@<TRIPOS>MOLECULE
3R540
247   249    1
SMALL
USER_CHARGES


@<TRIPOS>ATOM
      1 CA          7.9515  -11.5350  -49.1725 C.3       0 UNK        -0.1800 
      2 C           6.4625  -11.8254  -49.2977 C.2       0 UNK         0.5000 
      3 O           5.6874  -10.9181  -49.5992 O.2       0 UNK        -0.5000 
      4 N           6.0660  -13.0854  -49.0681 N.am      1 UNK        -0.5000 
      5 CA          4.6833  -13.5816  -49.1147 C.3       1 UNK         0.1400 
      6 C6          4.0578  -13.4959  -50.5372 C.3       23 UNK        -0.0398 
      7 S7          2.8879  -14.8566  -50.8756 S.3       23 UNK        -0.2404 
      8 C8          1.3288  -13.9411  -51.0734 C.3       23 UNK        -0.0205 
      9 C9          0.1501  -14.8866  -51.2336 C.ar      23 UNK        -0.0193 
     10 C10        -0.3913  -15.1427  -52.4964 C.ar      23 UNK        -0.1150 
     11 C11        -1.4909  -15.9953  -52.6377 C.ar      23 UNK        -0.0193 
     12 C12        -2.0398  -16.6012  -51.5024 C.ar      23 UNK        -0.1150 
     13 C13        -1.4895  -16.3739  -50.2374 C.ar      23 UNK        -0.0193 
     14 C14        -0.4064  -15.5006  -50.1092 C.ar      23 UNK        -0.1150 
     15 C15        -2.0556  -17.0750  -49.0095 C.3       23 UNK        -0.0205 
     16 S16        -0.8293  -18.1730  -48.2265 S.3       23 UNK        -0.2404 
     17 C17        -0.5185  -19.3969  -49.5517 C.3       23 UNK        -0.0398 
     18 CA         -0.6161  -20.8698  -49.0860 C.3       11 UNK         0.1400 
     19 N           0.2465  -21.1196  -47.9313 N.am      11 UNK        -0.5000 
     20 C           0.4638  -22.2987  -47.3359 C.2       10 UNK         0.5000 
     21 O           0.0014  -23.3664  -47.7338 O.2       10 UNK        -0.5000 
     22 CA          1.2802  -22.2540  -46.0302 C.3       10 UNK         0.1400 
     23 CB          2.7768  -22.4303  -46.3229 C.3       10 UNK        -0.1800 
     24 N           1.0800  -21.0168  -45.2690 N.am      10 UNK        -0.5000 
     25 C          -0.0909  -20.5683  -44.7978 C.2       9 UNK         0.5000 
     26 O          -1.1524  -21.1777  -44.9449 O.2       9 UNK        -0.5000 
     27 CA         -0.0628  -19.2041  -44.0749 C.3       9 UNK         0.1400 
     28 CB         -1.4541  -18.7618  -43.5893 C.3       9 UNK        -0.1800 
     29 N           0.8680  -19.1768  -42.9434 N.am      9 UNK        -0.5000 
     30 C           2.2035  -19.1125  -43.0288 C.2       8 UNK         0.5000 
     31 O           2.8095  -19.0662  -44.1012 O.2       8 UNK        -0.5000 
     32 CA          2.9668  -19.0677  -41.6966 C.3       8 UNK         0.1400 
     33 CB          4.4810  -18.8507  -41.8751 C.3       8 UNK        -0.1800 
     34 N           2.4267  -17.9932  -40.8706 N.am      8 UNK        -0.5000 
     35 C           2.1860  -18.0633  -39.5558 C.2       7 UNK         0.5000 
     36 O           2.3184  -19.0935  -38.8926 O.2       7 UNK        -0.5000 
     37 CA          1.7315  -16.7516  -38.8767 C.3       7 UNK         0.1400 
     38 CB          1.8784  -16.7780  -37.3413 C.3       7 UNK        -0.1800 
     39 N           2.3860  -15.5675  -39.4452 N.am      7 UNK        -0.5000 
     40 C           3.7021  -15.3005  -39.4910 C.2       6 UNK         0.5000 
     41 O           4.5603  -15.9910  -38.9401 O.2       6 UNK        -0.5000 
     42 CA          4.1452  -14.0726  -40.3134 C.3       6 UNK         0.1400 
     43 CB          5.0975  -14.4926  -41.4455 C.3       6 UNK        -0.1800 
     44 N           3.0079  -13.3655  -40.9048 N.am      6 UNK        -0.5000 
     45 C           2.4238  -12.2757  -40.3885 C.2       5 UNK         0.5000 
     46 O           2.8415  -11.6811  -39.3945 O.2       5 UNK        -0.5000 
     47 CA          1.1370  -11.7809  -41.0797 C.3       5 UNK         0.1400 
     48 CB          1.4440  -10.6080  -42.0230 C.3       5 UNK        -0.1800 
     49 N           0.4395  -12.8400  -41.8179 N.am      5 UNK        -0.5000 
     50 C          -0.2140  -13.8545  -41.2301 C.2       4 UNK         0.5000 
     51 O          -0.3068  -13.9814  -40.0095 O.2       4 UNK        -0.5000 
     52 CA         -0.8163  -14.9458  -42.1361 C.3       4 UNK         0.1400 
     53 CB         -2.2968  -14.6554  -42.4214 C.3       4 UNK        -0.1800 
     54 N          -0.1120  -15.1251  -43.4054 N.am      4 UNK        -0.5000 
     55 C           1.1676  -15.4960  -43.5394 C.2       3 UNK         0.5000 
     56 O           1.9112  -15.7282  -42.5842 O.2       3 UNK        -0.5000 
     57 CA          1.7258  -15.5934  -44.9738 C.3       3 UNK         0.1400 
     58 CB          0.6396  -15.5915  -46.0719 C.3       3 UNK        -0.1800 
     59 N           2.7133  -14.5487  -45.2553 N.am      3 UNK        -0.5000 
     60 C           2.5598  -13.2236  -45.1018 C.2       2 UNK         0.5000 
     61 O           1.5555  -12.6927  -44.6255 O.2       2 UNK        -0.5000 
     62 CA          3.7247  -12.3405  -45.5874 C.3       2 UNK         0.1400 
     63 CB          4.7686  -12.1625  -44.4754 C.3       2 UNK        -0.1800 
     64 N           4.3841  -12.8698  -46.7850 N.am      2 UNK        -0.5000 
     65 C           3.8125  -12.9575  -47.9962 C.2       1 UNK         0.5000 
     66 O           2.6720  -12.5579  -48.2332 O.2       1 UNK        -0.5000 
     67 C          -2.0854  -21.2867  -48.8579 C.2       11 UNK         0.5000 
     68 O          -2.7239  -21.7723  -49.7940 O.2       11 UNK        -0.5000 
     69 N          -2.5791  -21.0893  -47.6280 N.am      12 UNK        -0.5000 
     70 CA         -3.9272  -21.4480  -47.1996 C.3       12 UNK         0.1400 
     71 CB         -4.3853  -20.4750  -46.1027 C.3       12 UNK        -0.1800 
     72 C          -3.9894  -22.9002  -46.6991 C.2       12 UNK         0.5000 
     73 O          -5.0018  -23.5665  -46.9078 O.2       12 UNK        -0.5000 
     74 N          -2.9092  -23.3777  -46.0648 N.am      13 UNK        -0.5000 
     75 CA         -2.7858  -24.7500  -45.5677 C.3       13 UNK         0.1400 
     76 CB         -1.5446  -24.8605  -44.6703 C.3       13 UNK        -0.1800 
     77 C          -2.7303  -25.7925  -46.7012 C.2       13 UNK         0.5000 
     78 O          -3.3515  -26.8492  -46.5869 O.2       13 UNK        -0.5000 
     79 N          -2.0056  -25.4660  -47.7791 N.am      14 UNK        -0.5000 
     80 CA         -1.8304  -26.3077  -48.9648 C.3       14 UNK         0.1400 
     81 CB         -0.3989  -26.1097  -49.4928 C.3       14 UNK        -0.1800 
     82 C          -2.8718  -26.0281  -50.0694 C.2       14 UNK         0.5000 
     83 O          -2.7256  -26.5567  -51.1728 O.2       14 UNK        -0.5000 
     84 N          -3.8804  -25.1925  -49.7808 N.am      15 UNK        -0.5000 
     85 CA         -4.9350  -24.7747  -50.7071 C.3       15 UNK         0.1400 
     86 CB         -5.8521  -23.7700  -49.9938 C.3       15 UNK        -0.1800 
     87 C          -5.7791  -25.9366  -51.2647 C.2       15 UNK         0.5000 
     88 O          -5.9225  -26.9782  -50.6203 O.2       15 UNK        -0.5000 
     89 N          -6.3787  -25.6930  -52.4339 N.am      16 UNK        -0.5000 
     90 CA         -7.2921  -26.5999  -53.1304 C.3       16 UNK         0.1400 
     91 CB         -7.0619  -26.4383  -54.6434 C.3       16 UNK        -0.1800 
     92 C          -8.7675  -26.3300  -52.7666 C.2       16 UNK         0.5000 
     93 O          -9.6595  -26.8471  -53.4401 O.2       16 UNK        -0.5000 
     94 N          -9.0039  -25.4793  -51.7554 N.am      17 UNK        -0.5000 
     95 CA        -10.2797  -24.9438  -51.2569 C.3       17 UNK         0.1400 
     96 CB        -11.2529  -26.0613  -50.8354 C.3       17 UNK        -0.1800 
     97 C         -10.9452  -23.9464  -52.2245 C.2       17 UNK         0.5000 
     98 O         -11.4050  -22.8918  -51.7859 O.2       17 UNK        -0.5000 
     99 N         -10.9441  -24.2697  -53.5228 N.am      18 UNK        -0.5000 
    100 CA       -11.3724  -23.3959  -54.6149 C.3       18 UNK         0.1400 
    101 CB       -11.5799  -24.2477  -55.8765 C.3       18 UNK        -0.1800 
    102 C        -10.3742  -22.2541  -54.8953 C.2       18 UNK         0.5000 
    103 O        -10.7766  -21.2199  -55.4298 O.2       18 UNK        -0.5000 
    104 N         -9.1011  -22.4542  -54.5320 N.am      19 UNK        -0.5000 
    105 CA        -8.0129  -21.4951  -54.6771 C.3       19 UNK         0.1400 
    106 CB        -7.4818  -21.5176  -56.1217 C.3       19 UNK        -0.1800 
    107 C         -6.8970  -21.8469  -53.6846 C.2       19 UNK         0.5000 
    108 O         -6.7463  -23.0169  -53.3183 O.2       19 UNK        -0.5000 
    109 N         -6.1230  -20.8307  -53.2892 N.am      20 UNK        -0.5000 
    110 CA        -4.9047  -20.9688  -52.4920 C.3       20 UNK         0.1400 
    111 CB        -4.5554  -19.6000  -51.8872 C.3       20 UNK        -0.1800 
    112 C         -3.7362  -21.5039  -53.3410 C.2       20 UNK         0.5000 
    113 O         -3.7535  -21.3721  -54.5674 O.2       20 UNK        -0.5000 
    114 N         -2.7291  -22.0785  -52.6716 N.am      21 UNK        -0.5000 
    115 CA        -1.5144  -22.5860  -53.3179 C.3       21 UNK         0.1400 
    116 CB        -0.8280  -23.5972  -52.3893 C.3       21 UNK        -0.1800 
    117 C         -0.5368  -21.4655  -53.7231 C.2       21 UNK         0.5000 
    118 O          0.2096  -21.6341  -54.6875 O.2       21 UNK        -0.5000 
    119 N         -0.5675  -20.3497  -52.9808 N.am      22 UNK        -0.5000 
    120 CA         0.2017  -19.1104  -53.2174 C.3       22 UNK         0.1400 
    121 C          1.7523  -19.2513  -53.1125 C.2       22 UNK         0.5000 
    122 N          2.2801  -20.3040  -52.4996 N.am      22 UNK        -0.7600 
    123 O          2.4931  -18.3825  -53.5637 O.2       22 UNK        -0.5000 
    124 C124       -0.2492  -18.3576  -54.5015 C.3       23 UNK        -0.0398 
    125 S125       -2.0419  -18.0019  -54.5063 S.3       23 UNK        -0.2404 
    126 C126       -2.0915  -16.2470  -54.0154 C.3       23 UNK        -0.0205 
    127 H127        8.5187  -12.4274  -48.9067 H         1 UNK         0.0600 
    128 H128        8.1231  -10.7817  -48.4035 H         1 UNK         0.0600 
    129 H129        8.3401  -11.1543  -50.1170 H         1 UNK         0.0600 
    130 H130        6.7636  -13.7780  -48.8324 H         1 UNK         0.3000 
    131 H131        4.7684  -14.6384  -48.8562 H         1 UNK         0.0600 
    132 H132        3.5929  -12.5246  -50.7153 H         1 UNK         0.0800 
    133 H133        4.8429  -13.5807  -51.2898 H         1 UNK         0.0800 
    134 H134        1.4066  -13.2767  -51.9353 H         1 UNK         0.0800 
    135 H135        1.1596  -13.3026  -50.2060 H         1 UNK         0.0800 
    136 H136        0.0394  -14.6701  -53.3680 H         1 UNK         0.1150 
    137 H137       -2.8878  -17.2607  -51.6103 H         1 UNK         0.1150 
    138 H138        0.0173  -15.3120  -49.1332 H         1 UNK         0.1150 
    139 H139       -2.3700  -16.3233  -48.2844 H         1 UNK         0.0800 
    140 H140       -2.9461  -17.6533  -49.2612 H         1 UNK         0.0800 
    141 H141        0.4814  -19.2053  -49.9438 H         1 UNK         0.0800 
    142 H142       -1.2006  -19.2173  -50.3826 H         1 UNK         0.0800 
    143 H143       -0.2362  -21.4944  -49.8949 H         1 UNK         0.0600 
    144 H144        0.6597  -20.2989  -47.5131 H         1 UNK         0.3000 
    145 H145        0.9549  -23.0838  -45.4023 H         1 UNK         0.0600 
    146 H146        3.3558  -22.4773  -45.4004 H         1 UNK         0.0600 
    147 H147        2.9615  -23.3560  -46.8697 H         1 UNK         0.0600 
    148 H148        3.1692  -21.6087  -46.9235 H         1 UNK         0.0600 
    149 H149        1.9033  -20.4504  -45.0833 H         1 UNK         0.3000 
    150 H150        0.2728  -18.4716  -44.8107 H         1 UNK         0.0600 
    151 H151       -2.1561  -18.6970  -44.4217 H         1 UNK         0.0600 
    152 H152       -1.4167  -17.7773  -43.1249 H         1 UNK         0.0600 
    153 H153       -1.8682  -19.4609  -42.8618 H         1 UNK         0.0600 
    154 H154        0.4536  -19.2306  -42.0241 H         1 UNK         0.3000 
    155 H155        2.8108  -20.0352  -41.2152 H         1 UNK         0.0600 
    156 H156        4.9932  -18.8460  -40.9128 H         1 UNK         0.0600 
    157 H157        4.6932  -17.9017  -42.3696 H         1 UNK         0.0600 
    158 H158        4.9245  -19.6453  -42.4762 H         1 UNK         0.0600 
    159 H159        2.2660  -17.1128  -41.3562 H         1 UNK         0.3000 
    160 H160        0.6693  -16.6481  -39.1025 H         1 UNK         0.0600 
    161 H161        2.9113  -16.9441  -37.0342 H         1 UNK         0.0600 
    162 H162        1.2761  -17.5754  -36.9048 H         1 UNK         0.0600 
    163 H163        1.5430  -15.8403  -36.8980 H         1 UNK         0.0600 
    164 H164        1.7646  -14.9162  -39.9050 H         1 UNK         0.3000 
    165 H165        4.6931  -13.4133  -39.6373 H         1 UNK         0.0600 
    166 H166        4.5965  -15.1175  -42.1859 H         1 UNK         0.0600 
    167 H167        5.5010  -13.6189  -41.9553 H         1 UNK         0.0600 
    168 H168        5.9476  -15.0571  -41.0605 H         1 UNK         0.0600 
    169 H169        2.5799  -13.8138  -41.7054 H         1 UNK         0.3000 
    170 H170        0.4660  -11.4152  -40.2995 H         1 UNK         0.0600 
    171 H171        1.8704   -9.7687  -41.4722 H         1 UNK         0.0600 
    172 H172        2.1598  -10.8855  -42.7959 H         1 UNK         0.0600 
    173 H173        0.5402  -10.2482  -42.5151 H         1 UNK         0.0600 
    174 H174        0.5254  -12.8214  -42.8295 H         1 UNK         0.3000 
    175 H175       -0.7530  -15.8890  -41.5895 H         1 UNK         0.0600 
    176 H176       -2.4226  -13.7354  -42.9938 H         1 UNK         0.0600 
    177 H177       -2.7577  -15.4675  -42.9840 H         1 UNK         0.0600 
    178 H178       -2.8596  -14.5447  -41.4935 H         1 UNK         0.0600 
    179 H179       -0.6344  -14.9096  -44.2419 H         1 UNK         0.3000 
    180 H180        2.2519  -16.5468  -45.0302 H         1 UNK         0.0600 
    181 H181        0.1348  -14.6283  -46.1550 H         1 UNK         0.0600 
    182 H182       -0.1200  -16.3511  -45.8865 H         1 UNK         0.0600 
    183 H183        1.0802  -15.8129  -47.0439 H         1 UNK         0.0600 
    184 H184        3.5938  -14.8734  -45.6271 H         1 UNK         0.3000 
    185 H185        3.3130  -11.3586  -45.8302 H         1 UNK         0.0600 
    186 H186        5.5235  -11.4290  -44.7591 H         1 UNK         0.0600 
    187 H187        4.3079  -11.8125  -43.5509 H         1 UNK         0.0600 
    188 H188        5.2798  -13.0998  -44.2550 H         1 UNK         0.0600 
    189 H189        5.3368  -13.1860  -46.6775 H         1 UNK         0.3000 
    190 H190       -1.9667  -20.7248  -46.9099 H         1 UNK         0.3000 
    191 H191       -4.6121  -21.3453  -48.0432 H         1 UNK         0.0600 
    192 H192       -4.3471  -19.4426  -46.4506 H         1 UNK         0.0600 
    193 H193       -5.4143  -20.6813  -45.8060 H         1 UNK         0.0600 
    194 H194       -3.7663  -20.5504  -45.2082 H         1 UNK         0.0600 
    195 H195       -2.1392  -22.7465  -45.8755 H         1 UNK         0.3000 
    196 H196       -3.6653  -24.9638  -44.9567 H         1 UNK         0.0600 
    197 H197       -1.5035  -25.8365  -44.1854 H         1 UNK         0.0600 
    198 H198       -1.5522  -24.1049  -43.8843 H         1 UNK         0.0600 
    199 H199       -0.6251  -24.7442  -45.2429 H         1 UNK         0.0600 
    200 H200       -1.4846  -24.5926  -47.7731 H         1 UNK         0.3000 
    201 H201       -1.9384  -27.3574  -48.6848 H         1 UNK         0.0600 
    202 H202        0.3392  -26.3217  -48.7191 H         1 UNK         0.0600 
    203 H203       -0.2365  -25.0882  -49.8367 H         1 UNK         0.0600 
    204 H204       -0.1893  -26.7758  -50.3305 H         1 UNK         0.0600 
    205 H205       -3.9401  -24.8296  -48.8404 H         1 UNK         0.3000 
    206 H206       -4.4495  -24.2723  -51.5462 H         1 UNK         0.0600 
    207 H207       -5.2886  -22.9099  -49.6372 H         1 UNK         0.0600 
    208 H208       -6.6275  -23.3907  -50.6594 H         1 UNK         0.0600 
    209 H209       -6.3532  -24.2238  -49.1381 H         1 UNK         0.0600 
    210 H210       -6.2869  -24.7669  -52.8481 H         1 UNK         0.3000 
    211 H211       -7.0706  -27.6335  -52.8576 H         1 UNK         0.0600 
    212 H212       -7.3084  -25.4311  -54.9826 H         1 UNK         0.0600 
    213 H213       -7.6742  -27.1376  -55.2142 H         1 UNK         0.0600 
    214 H214       -6.0221  -26.6338  -54.9058 H         1 UNK         0.0600 
    215 H215       -8.1856  -25.0985  -51.3039 H         1 UNK         0.3000 
    216 H216      -10.0259  -24.3811  -50.3571 H         1 UNK         0.0600 
    217 H217      -10.7842  -26.7462  -50.1289 H         1 UNK         0.0600 
    218 H218      -11.6045  -26.6445  -51.6865 H         1 UNK         0.0600 
    219 H219      -12.1331  -25.6419  -50.3467 H         1 UNK         0.0600 
    220 H220      -10.5673  -25.1787  -53.7754 H         1 UNK         0.3000 
    221 H221      -12.3284  -22.9436  -54.3430 H         1 UNK         0.0600 
    222 H222      -10.6564  -24.7391  -56.1859 H         1 UNK         0.0600 
    223 H223      -12.3317  -25.0198  -55.7115 H         1 UNK         0.0600 
    224 H224      -11.9222  -23.6343  -56.7110 H         1 UNK         0.0600 
    225 H225       -8.8446  -23.3112  -54.0612 H         1 UNK         0.3000 
    226 H226       -8.3836  -20.4958  -54.4388 H         1 UNK         0.0600 
    227 H227       -8.2528  -21.2243  -56.8342 H         1 UNK         0.0600 
    228 H228       -6.6478  -20.8253  -56.2442 H         1 UNK         0.0600 
    229 H229       -7.1274  -22.5106  -56.4011 H         1 UNK         0.0600 
    230 H230       -6.2941  -19.9138  -53.6750 H         1 UNK         0.3000 
    231 H231       -5.0905  -21.6697  -51.6785 H         1 UNK         0.0600 
    232 H232       -3.6503  -19.6530  -51.2821 H         1 UNK         0.0600 
    233 H233       -5.3547  -19.2409  -51.2390 H         1 UNK         0.0600 
    234 H234       -4.3903  -18.8514  -52.6627 H         1 UNK         0.0600 
    235 H235       -2.7711  -22.1295  -51.6561 H         1 UNK         0.3000 
    236 H236       -1.7987  -23.1145  -54.2306 H         1 UNK         0.0600 
    237 H237       -1.4671  -24.4626  -52.2241 H         1 UNK         0.0600 
    238 H238        0.1025  -23.9641  -52.8242 H         1 UNK         0.0600 
    239 H239       -0.5912  -23.1661  -51.4180 H         1 UNK         0.0600 
    240 H240       -1.2540  -20.3075  -52.2457 H         1 UNK         0.3000 
    241 H241       -0.0429  -18.4606  -52.3788 H         1 UNK         0.0600 
    242 H242        1.6961  -21.0433  -52.1473 H         1 UNK         0.3800 
    243 H243        3.2827  -20.3811  -52.4313 H         1 UNK         0.3800 
    244 H244       -0.0129  -18.9468  -55.3884 H         1 UNK         0.0800 
    245 H245        0.2924  -17.4168  -54.6119 H         1 UNK         0.0800 
    246 H246       -3.1303  -15.9144  -54.0111 H         1 UNK         0.0800 
    247 H247       -1.5842  -15.6527  -54.7771 H         1 UNK         0.0800 
@<TRIPOS>BOND
     1    1    2 1    
     2    1  127 1    
     3    1  128 1    
     4    1  129 1    
     5    2    3 2    
     6    2    4 am   BACKBONE|DICT|INTERRES
     7    4    5 1    
     8    4  130 1    
     9    5    6 1    
    10    5   65 1    
    11    5  131 1    
    12    6    7 1    
    13    6  132 1    
    14    6  133 1    
    15    7    8 1    
    16    8    9 1    
    17    8  134 1    
    18    8  135 1    
    19    9   10 ar   
    20    9   14 ar   
    21   10   11 ar   
    22   10  136 1    
    23   11   12 ar   
    24   11  126 1    
    25   12   13 ar   
    26   12  137 1    
    27   13   14 ar   
    28   13   15 1    
    29   14  138 1    
    30   15   16 1    
    31   15  139 1    
    32   15  140 1    
    33   16   17 1    
    34   17   18 1    
    35   17  141 1    
    36   17  142 1    
    37   18   19 1    
    38   18   67 1    
    39   18  143 1    
    40   19   20 am   BACKBONE|DICT|INTERRES
    41   19  144 1    
    42   20   21 2    
    43   20   22 1    
    44   22   23 1    
    45   22   24 1    
    46   22  145 1    
    47   23  146 1    
    48   23  147 1    
    49   23  148 1    
    50   24   25 am   BACKBONE|DICT|INTERRES
    51   24  149 1    
    52   25   26 2    
    53   25   27 1    
    54   27   28 1    
    55   27   29 1    
    56   27  150 1    
    57   28  151 1    
    58   28  152 1    
    59   28  153 1    
    60   29   30 am   BACKBONE|DICT|INTERRES
    61   29  154 1    
    62   30   31 2    
    63   30   32 1    
    64   32   33 1    
    65   32   34 1    
    66   32  155 1    
    67   33  156 1    
    68   33  157 1    
    69   33  158 1    
    70   34   35 am   BACKBONE|DICT|INTERRES
    71   34  159 1    
    72   35   36 2    
    73   35   37 1    
    74   37   38 1    
    75   37   39 1    
    76   37  160 1    
    77   38  161 1    
    78   38  162 1    
    79   38  163 1    
    80   39   40 am   BACKBONE|DICT|INTERRES
    81   39  164 1    
    82   40   41 2    
    83   40   42 1    
    84   42   43 1    
    85   42   44 1    
    86   42  165 1    
    87   43  166 1    
    88   43  167 1    
    89   43  168 1    
    90   44   45 am   BACKBONE|DICT|INTERRES
    91   44  169 1    
    92   45   46 2    
    93   45   47 1    
    94   47   48 1    
    95   47   49 1    
    96   47  170 1    
    97   48  171 1    
    98   48  172 1    
    99   48  173 1    
   100   49   50 am   BACKBONE|DICT|INTERRES
   101   49  174 1    
   102   50   51 2    
   103   50   52 1    
   104   52   53 1    
   105   52   54 1    
   106   52  175 1    
   107   53  176 1    
   108   53  177 1    
   109   53  178 1    
   110   54   55 am   BACKBONE|DICT|INTERRES
   111   54  179 1    
   112   55   56 2    
   113   55   57 1    
   114   57   58 1    
   115   57   59 1    
   116   57  180 1    
   117   58  181 1    
   118   58  182 1    
   119   58  183 1    
   120   59   60 am   BACKBONE|DICT|INTERRES
   121   59  184 1    
   122   60   61 2    
   123   60   62 1    
   124   62   63 1    
   125   62   64 1    
   126   62  185 1    
   127   63  186 1    
   128   63  187 1    
   129   63  188 1    
   130   64   65 am   BACKBONE|DICT|INTERRES
   131   64  189 1    
   132   65   66 2    
   133   67   68 2    
   134   67   69 am   BACKBONE|DICT|INTERRES
   135   69   70 1    
   136   69  190 1    
   137   70   71 1    
   138   70   72 1    
   139   70  191 1    
   140   71  192 1    
   141   71  193 1    
   142   71  194 1    
   143   72   73 2    
   144   72   74 am   BACKBONE|DICT|INTERRES
   145   74   75 1    
   146   74  195 1    
   147   75   76 1    
   148   75   77 1    
   149   75  196 1    
   150   76  197 1    
   151   76  198 1    
   152   76  199 1    
   153   77   78 2    
   154   77   79 am   BACKBONE|DICT|INTERRES
   155   79   80 1    
   156   79  200 1    
   157   80   81 1    
   158   80   82 1    
   159   80  201 1    
   160   81  202 1    
   161   81  203 1    
   162   81  204 1    
   163   82   83 2    
   164   82   84 am   BACKBONE|DICT|INTERRES
   165   84   85 1    
   166   84  205 1    
   167   85   86 1    
   168   85   87 1    
   169   85  206 1    
   170   86  207 1    
   171   86  208 1    
   172   86  209 1    
   173   87   88 2    
   174   87   89 am   BACKBONE|DICT|INTERRES
   175   89   90 1    
   176   89  210 1    
   177   90   91 1    
   178   90   92 1    
   179   90  211 1    
   180   91  212 1    
   181   91  213 1    
   182   91  214 1    
   183   92   93 2    
   184   92   94 am   BACKBONE|DICT|INTERRES
   185   94   95 1    
   186   94  215 1    
   187   95   96 1    
   188   95   97 1    
   189   95  216 1    
   190   96  217 1    
   191   96  218 1    
   192   96  219 1    
   193   97   98 2    
   194   97   99 am   BACKBONE|DICT|INTERRES
   195   99  100 1    
   196   99  220 1    
   197  100  101 1    
   198  100  102 1    
   199  100  221 1    
   200  101  222 1    
   201  101  223 1    
   202  101  224 1    
   203  102  103 2    
   204  102  104 am   BACKBONE|DICT|INTERRES
   205  104  105 1    
   206  104  225 1    
   207  105  106 1    
   208  105  107 1    
   209  105  226 1    
   210  106  227 1    
   211  106  228 1    
   212  106  229 1    
   213  107  108 2    
   214  107  109 am   BACKBONE|DICT|INTERRES
   215  109  110 1    
   216  109  230 1    
   217  110  111 1    
   218  110  112 1    
   219  110  231 1    
   220  111  232 1    
   221  111  233 1    
   222  111  234 1    
   223  112  113 2    
   224  112  114 am   BACKBONE|DICT|INTERRES
   225  114  115 1    
   226  114  235 1    
   227  115  116 1    
   228  115  117 1    
   229  115  236 1    
   230  116  237 1    
   231  116  238 1    
   232  116  239 1    
   233  117  118 2    
   234  117  119 am   BACKBONE|DICT|INTERRES
   235  119  120 1    
   236  119  240 1    
   237  120  121 1    
   238  120  124 1    
   239  120  241 1    
   240  121  122 am   BACKBONE|DICT|INTERRES
   241  121  123 2    
   242  122  242 1    
   243  122  243 1    
   244  124  125 1    
   245  124  244 1    
   246  124  245 1    
   247  125  126 1    
   248  126  246 1    
   249  126  247 1    
@<TRIPOS>SUBSTRUCTURE
     1 UNK         1 GROUP             0       ****    0 ROOT    
