@<TRIPOS>MOLECULE
3R540
247   249    1
SMALL
USER_CHARGES


@<TRIPOS>ATOM
      1 CA          5.4172  -11.2897  -52.3688 C.3       0 UNK        -0.1800 
      2 C           4.5715  -11.8641  -51.2406 C.2       0 UNK         0.5000 
      3 O           4.0786  -11.1104  -50.4005 O.2       0 UNK        -0.5000 
      4 N           4.4109  -13.1929  -51.2140 N.am      1 UNK        -0.5000 
      5 CA          3.5726  -13.9160  -50.2524 C.3       1 UNK         0.1400 
      6 C6          3.9966  -15.4044  -50.1537 C.3       23 UNK        -0.0398 
      7 S7          3.6250  -16.1192  -48.5149 S.3       23 UNK        -0.2404 
      8 C8          3.7909  -17.9063  -48.8380 C.3       23 UNK        -0.0205 
      9 C9          2.5575  -18.5998  -49.4199 C.ar      23 UNK        -0.0193 
     10 C10         1.5354  -17.9111  -50.0831 C.ar      23 UNK        -0.1150 
     11 C11         0.4483  -18.5934  -50.6369 C.ar      23 UNK        -0.0193 
     12 C12         0.3681  -19.9808  -50.4863 C.ar      23 UNK        -0.1150 
     13 C13         1.3569  -20.6898  -49.7963 C.ar      23 UNK        -0.0193 
     14 C14         2.4600  -19.9877  -49.2919 C.ar      23 UNK        -0.1150 
     15 C15         1.1800  -22.2028  -49.6272 C.3       23 UNK        -0.0205 
     16 S16         2.3702  -23.0491  -48.5231 S.3       23 UNK        -0.2404 
     17 C17         1.9706  -22.3249  -46.8943 C.3       23 UNK        -0.0398 
     18 CA          1.2164  -23.2994  -45.9601 C.3       11 UNK         0.1400 
     19 N           1.3823  -22.9217  -44.5558 N.am      11 UNK        -0.5000 
     20 C           1.1020  -23.6913  -43.4967 C.2       10 UNK         0.5000 
     21 O           0.7283  -24.8601  -43.5966 O.2       10 UNK        -0.5000 
     22 CA          1.1890  -23.0205  -42.1069 C.3       10 UNK         0.1400 
     23 CB          1.6661  -23.9888  -41.0056 C.3       10 UNK        -0.1800 
     24 N           1.9617  -21.7705  -42.1050 N.am      10 UNK        -0.5000 
     25 C           3.2784  -21.6125  -42.3098 C.2       9 UNK         0.5000 
     26 O           4.0685  -22.5467  -42.4472 O.2       9 UNK        -0.5000 
     27 CA          3.8044  -20.1666  -42.4298 C.3       9 UNK         0.1400 
     28 CB          4.1982  -19.8704  -43.8867 C.3       9 UNK        -0.1800 
     29 N           2.8461  -19.1482  -41.9939 N.am      9 UNK        -0.5000 
     30 C           2.5439  -18.8624  -40.7206 C.2       8 UNK         0.5000 
     31 O           3.0698  -19.4125  -39.7526 O.2       8 UNK        -0.5000 
     32 CA          1.4431  -17.8066  -40.4944 C.3       8 UNK         0.1400 
     33 CB          2.0240  -16.3854  -40.5474 C.3       8 UNK        -0.1800 
     34 N           0.3436  -17.9210  -41.4560 N.am      8 UNK        -0.5000 
     35 C          -0.5089  -18.9542  -41.5106 C.2       7 UNK         0.5000 
     36 O          -0.4788  -19.9088  -40.7341 O.2       7 UNK        -0.5000 
     37 CA         -1.5347  -18.9494  -42.6564 C.3       7 UNK         0.1400 
     38 CB         -2.7460  -18.0691  -42.3175 C.3       7 UNK        -0.1800 
     39 N          -0.9524  -18.5202  -43.9267 N.am      7 UNK        -0.5000 
     40 C          -0.0162  -19.2014  -44.6006 C.2       6 UNK         0.5000 
     41 O           0.4003  -20.3073  -44.2612 O.2       6 UNK        -0.5000 
     42 CA          0.5640  -18.5341  -45.8569 C.3       6 UNK         0.1400 
     43 CB         -0.3638  -18.7949  -47.0490 C.3       6 UNK        -0.1800 
     44 N           0.7638  -17.0953  -45.6857 N.am      6 UNK        -0.5000 
     45 C           1.5698  -16.5338  -44.7732 C.2       5 UNK         0.5000 
     46 O           2.2836  -17.1786  -44.0069 O.2       5 UNK        -0.5000 
     47 CA          1.5157  -15.0019  -44.6417 C.3       5 UNK         0.1400 
     48 CB          2.4789  -14.3117  -45.6162 C.3       5 UNK        -0.1800 
     49 N           0.1621  -14.4915  -44.8491 N.am      5 UNK        -0.5000 
     50 C          -0.8282  -14.6017  -43.9544 C.2       4 UNK         0.5000 
     51 O          -0.6847  -15.0919  -42.8337 O.2       4 UNK        -0.5000 
     52 CA         -2.2176  -14.1158  -44.4092 C.3       4 UNK         0.1400 
     53 CB         -2.3461  -12.5956  -44.2311 C.3       4 UNK        -0.1800 
     54 N          -2.5096  -14.4682  -45.8017 N.am      4 UNK        -0.5000 
     55 C          -2.7027  -15.7228  -46.2323 C.2       3 UNK         0.5000 
     56 O          -2.6865  -16.7033  -45.4892 O.2       3 UNK        -0.5000 
     57 CA         -2.9178  -15.9245  -47.7468 C.3       3 UNK         0.1400 
     58 CB         -4.4109  -15.8208  -48.0869 C.3       3 UNK        -0.1800 
     59 N          -2.1623  -15.0075  -48.6096 N.am      3 UNK        -0.5000 
     60 C          -0.8324  -14.8477  -48.5962 C.2       2 UNK         0.5000 
     61 O          -0.0882  -15.3957  -47.7803 O.2       2 UNK        -0.5000 
     62 CA         -0.2366  -13.9013  -49.6481 C.3       2 UNK         0.1400 
     63 CB         -0.6671  -12.4445  -49.3987 C.3       2 UNK        -0.1800 
     64 N           1.2176  -13.9977  -49.5855 N.am      2 UNK        -0.5000 
     65 C           2.0697  -13.7471  -50.5825 C.2       1 UNK         0.5000 
     66 O           1.7134  -13.4006  -51.7121 O.2       1 UNK        -0.5000 
     67 C          -0.2771  -23.4007  -46.3322 C.2       11 UNK         0.5000 
     68 O          -0.6395  -24.2370  -47.1572 O.2       11 UNK        -0.5000 
     69 N          -1.1277  -22.6042  -45.6653 N.am      12 UNK        -0.5000 
     70 CA         -2.5876  -22.6217  -45.8090 C.3       12 UNK         0.1400 
     71 CB         -3.1817  -21.4288  -45.0468 C.3       12 UNK        -0.1800 
     72 C          -3.2578  -23.9401  -45.3579 C.2       12 UNK         0.5000 
     73 O          -4.4201  -24.1696  -45.6931 O.2       12 UNK        -0.5000 
     74 N          -2.5295  -24.7783  -44.6063 N.am      13 UNK        -0.5000 
     75 CA         -2.9462  -26.1309  -44.2371 C.3       13 UNK         0.1400 
     76 CB         -2.3818  -26.4608  -42.8462 C.3       13 UNK        -0.1800 
     77 C          -2.4892  -27.1851  -45.2666 C.2       13 UNK         0.5000 
     78 O          -3.0561  -28.2782  -45.2918 O.2       13 UNK        -0.5000 
     79 N          -1.4745  -26.8603  -46.0804 N.am      14 UNK        -0.5000 
     80 CA         -0.8912  -27.7494  -47.0855 C.3       14 UNK         0.1400 
     81 CB          0.6249  -27.5035  -47.1559 C.3       14 UNK        -0.1800 
     82 C          -1.5347  -27.5473  -48.4674 C.2       14 UNK         0.5000 
     83 O          -1.7643  -28.5271  -49.1777 O.2       14 UNK        -0.5000 
     84 N          -1.8197  -26.2893  -48.8183 N.am      15 UNK        -0.5000 
     85 CA         -2.4784  -25.8716  -50.0508 C.3       15 UNK         0.1400 
     86 CB         -1.4334  -25.2380  -50.9832 C.3       15 UNK        -0.1800 
     87 C          -3.5731  -24.8566  -49.7013 C.2       15 UNK         0.5000 
     88 O          -3.4643  -24.1659  -48.6873 O.2       15 UNK        -0.5000 
     89 N          -4.5982  -24.7494  -50.5547 N.am      16 UNK        -0.5000 
     90 CA         -5.7498  -23.8574  -50.3841 C.3       16 UNK         0.1400 
     91 CB         -6.9134  -24.3852  -51.2414 C.3       16 UNK        -0.1800 
     92 C          -5.4064  -22.3818  -50.6880 C.2       16 UNK         0.5000 
     93 O          -5.9998  -21.7718  -51.5790 O.2       16 UNK        -0.5000 
     94 N          -4.4458  -21.8330  -49.9347 N.am      17 UNK        -0.5000 
     95 CA         -3.8636  -20.4972  -50.0895 C.3       17 UNK         0.1400 
     96 CB         -2.7885  -20.3022  -49.0111 C.3       17 UNK        -0.1800 
     97 C          -4.8770  -19.3395  -50.0296 C.2       17 UNK         0.5000 
     98 O          -4.6609  -18.3186  -50.6796 O.2       17 UNK        -0.5000 
     99 N          -5.9544  -19.5220  -49.2545 N.am      18 UNK        -0.5000 
    100 CA        -7.0472  -18.5600  -49.1135 C.3       18 UNK         0.1400 
    101 CB        -7.7606  -18.8144  -47.7770 C.3       18 UNK        -0.1800 
    102 C         -8.0518  -18.6052  -50.2813 C.2       18 UNK         0.5000 
    103 O         -8.7262  -17.6043  -50.5271 O.2       18 UNK        -0.5000 
    104 N         -8.1508  -19.7523  -50.9682 N.am      19 UNK        -0.5000 
    105 CA        -9.0058  -19.9342  -52.1430 C.3       19 UNK         0.1400 
    106 CB        -9.4495  -21.4022  -52.2334 C.3       19 UNK        -0.1800 
    107 C         -8.2778  -19.5106  -53.4292 C.2       19 UNK         0.5000 
    108 O         -8.9043  -18.9466  -54.3277 O.2       19 UNK        -0.5000 
    109 N         -6.9686  -19.7871  -53.4884 N.am      20 UNK        -0.5000 
    110 CA        -6.0621  -19.3778  -54.5570 C.3       20 UNK         0.1400 
    111 CB        -4.7055  -20.0657  -54.3325 C.3       20 UNK        -0.1800 
    112 C         -5.8788  -17.8491  -54.6159 C.2       20 UNK         0.5000 
    113 O         -5.9829  -17.1690  -53.5928 O.2       20 UNK        -0.5000 
    114 N         -5.5631  -17.3401  -55.8135 N.am      21 UNK        -0.5000 
    115 CA        -5.2379  -15.9291  -56.0427 C.3       21 UNK         0.1400 
    116 CB        -5.3189  -15.6328  -57.5481 C.3       21 UNK        -0.1800 
    117 C         -3.8516  -15.5388  -55.4920 C.2       21 UNK         0.5000 
    118 O         -3.6321  -14.3686  -55.1766 O.2       21 UNK        -0.5000 
    119 N         -2.9434  -16.5209  -55.4026 N.am      22 UNK        -0.5000 
    120 CA        -1.5561  -16.4394  -54.9115 C.3       22 UNK         0.1400 
    121 C         -0.5880  -15.5900  -55.7923 C.2       22 UNK         0.5000 
    122 N         -1.0177  -14.4655  -56.3476 N.am      22 UNK        -0.7600 
    123 O          0.5586  -15.9751  -56.0029 O.2       22 UNK        -0.5000 
    124 C124       -1.4842  -16.0387  -53.4117 C.3       23 UNK        -0.0398 
    125 S125        0.0232  -16.6650  -52.5975 S.3       23 UNK        -0.2404 
    126 C126       -0.6520  -17.8320  -51.3699 C.3       23 UNK        -0.0205 
    127 H127        4.8236  -10.5991  -52.9679 H         1 UNK         0.0600 
    128 H128        5.7986  -12.0699  -53.0280 H         1 UNK         0.0600 
    129 H129        6.2679  -10.7442  -51.9604 H         1 UNK         0.0600 
    130 H130        4.8105  -13.7507  -51.9549 H         1 UNK         0.3000 
    131 H131        3.7434  -13.4511  -49.2783 H         1 UNK         0.0600 
    132 H132        5.0761  -15.4938  -50.2846 H         1 UNK         0.0800 
    133 H133        3.5536  -16.0021  -50.9520 H         1 UNK         0.0800 
    134 H134        4.0413  -18.3795  -47.8872 H         1 UNK         0.0800 
    135 H135        4.6415  -18.0777  -49.4989 H         1 UNK         0.0800 
    136 H136        1.5713  -16.8382  -50.1814 H         1 UNK         0.1150 
    137 H137       -0.4769  -20.5140  -50.8986 H         1 UNK         0.1150 
    138 H138        3.2547  -20.5120  -48.7831 H         1 UNK         0.1150 
    139 H139        0.1718  -22.4064  -49.2636 H         1 UNK         0.0800 
    140 H140        1.2487  -22.6659  -50.6123 H         1 UNK         0.0800 
    141 H141        1.4271  -21.3875  -47.0102 H         1 UNK         0.0800 
    142 H142        2.9260  -22.0528  -46.4429 H         1 UNK         0.0800 
    143 H143        1.6515  -24.2947  -46.0762 H         1 UNK         0.0600 
    144 H144        1.5545  -21.9395  -44.3737 H         1 UNK         0.3000 
    145 H145        0.1675  -22.7285  -41.8593 H         1 UNK         0.0600 
    146 H146        1.7217  -23.4891  -40.0384 H         1 UNK         0.0600 
    147 H147        0.9759  -24.8263  -40.8978 H         1 UNK         0.0600 
    148 H148        2.6485  -24.4062  -41.2266 H         1 UNK         0.0600 
    149 H149        1.4076  -20.9275  -42.0301 H         1 UNK         0.3000 
    150 H150        4.6994  -20.0899  -41.8093 H         1 UNK         0.0600 
    151 H151        4.9418  -20.5822  -44.2475 H         1 UNK         0.0600 
    152 H152        4.6301  -18.8741  -43.9836 H         1 UNK         0.0600 
    153 H153        3.3377  -19.9268  -44.5542 H         1 UNK         0.0600 
    154 H154        2.4254  -18.5831  -42.7274 H         1 UNK         0.3000 
    155 H155        1.0318  -17.9656  -39.4954 H         1 UNK         0.0600 
    156 H156        2.8074  -16.2572  -39.7995 H         1 UNK         0.0600 
    157 H157        1.2563  -15.6377  -40.3468 H         1 UNK         0.0600 
    158 H158        2.4614  -16.1620  -41.5204 H         1 UNK         0.0600 
    159 H159        0.2436  -17.1721  -42.1291 H         1 UNK         0.3000 
    160 H160       -1.8867  -19.9742  -42.7760 H         1 UNK         0.0600 
    161 H161       -2.4665  -17.0215  -42.2058 H         1 UNK         0.0600 
    162 H162       -3.2113  -18.3872  -41.3838 H         1 UNK         0.0600 
    163 H163       -3.5054  -18.1303  -43.0974 H         1 UNK         0.0600 
    164 H164       -1.3088  -17.6582  -44.3259 H         1 UNK         0.3000 
    165 H165        1.5384  -18.9771  -46.0705 H         1 UNK         0.0600 
    166 H166       -0.0893  -18.1856  -47.9066 H         1 UNK         0.0600 
    167 H167       -0.3193  -19.8392  -47.3568 H         1 UNK         0.0600 
    168 H168       -1.4036  -18.5776  -46.8102 H         1 UNK         0.0600 
    169 H169        0.2722  -16.4851  -46.3338 H         1 UNK         0.3000 
    170 H170        1.8322  -14.7498  -43.6273 H         1 UNK         0.0600 
    171 H171        3.4844  -14.7267  -45.5359 H         1 UNK         0.0600 
    172 H172        2.1547  -14.4257  -46.6491 H         1 UNK         0.0600 
    173 H173        2.5491  -13.2442  -45.4071 H         1 UNK         0.0600 
    174 H174       -0.0550  -14.1488  -45.7738 H         1 UNK         0.3000 
    175 H175       -2.9622  -14.5977  -43.7716 H         1 UNK         0.0600 
    176 H176       -2.1484  -12.3061  -43.1981 H         1 UNK         0.0600 
    177 H177       -1.6431  -12.0532  -44.8645 H         1 UNK         0.0600 
    178 H178       -3.3519  -12.2539  -44.4762 H         1 UNK         0.0600 
    179 H179       -2.5406  -13.7151  -46.4726 H         1 UNK         0.3000 
    180 H180       -2.5896  -16.9355  -47.9924 H         1 UNK         0.0600 
    181 H181       -4.8030  -14.8238  -47.8825 H         1 UNK         0.0600 
    182 H182       -4.9939  -16.5311  -47.4990 H         1 UNK         0.0600 
    183 H183       -4.5926  -16.0431  -49.1383 H         1 UNK         0.0600 
    184 H184       -2.7034  -14.5047  -49.2979 H         1 UNK         0.3000 
    185 H185       -0.5826  -14.2288  -50.6306 H         1 UNK         0.0600 
    186 H186       -1.7501  -12.3329  -49.4586 H         1 UNK         0.0600 
    187 H187       -0.3529  -12.0968  -48.4137 H         1 UNK         0.0600 
    188 H188       -0.2352  -11.7733  -50.1414 H         1 UNK         0.0600 
    189 H189        1.5622  -14.3850  -48.7152 H         1 UNK         0.3000 
    190 H190       -0.7420  -21.9421  -45.0026 H         1 UNK         0.3000 
    191 H191       -2.8115  -22.4864  -46.8671 H         1 UNK         0.0600 
    192 H192       -3.0368  -21.5347  -43.9721 H         1 UNK         0.0600 
    193 H193       -4.2550  -21.3502  -45.2238 H         1 UNK         0.0600 
    194 H194       -2.7343  -20.4870  -45.3641 H         1 UNK         0.0600 
    195 H195       -1.5883  -24.5133  -44.3522 H         1 UNK         0.3000 
    196 H196       -4.0354  -26.1788  -44.1758 H         1 UNK         0.0600 
    197 H197       -2.7203  -27.4421  -42.5113 H         1 UNK         0.0600 
    198 H198       -2.7104  -25.7335  -42.1036 H         1 UNK         0.0600 
    199 H199       -1.2916  -26.4739  -42.8445 H         1 UNK         0.0600 
    200 H200       -1.1123  -25.9157  -46.0606 H         1 UNK         0.3000 
    201 H201       -1.0459  -28.7897  -46.7912 H         1 UNK         0.0600 
    202 H202        1.0956  -27.6657  -46.1861 H         1 UNK         0.0600 
    203 H203        0.8584  -26.4872  -47.4750 H         1 UNK         0.0600 
    204 H204        1.0966  -28.1848  -47.8651 H         1 UNK         0.0600 
    205 H205       -1.6111  -25.5313  -48.1716 H         1 UNK         0.3000 
    206 H206       -2.9439  -26.7250  -50.5481 H         1 UNK         0.0600 
    207 H207       -0.6503  -25.9520  -51.2383 H         1 UNK         0.0600 
    208 H208       -1.8883  -24.9052  -51.9168 H         1 UNK         0.0600 
    209 H209       -0.9576  -24.3723  -50.5206 H         1 UNK         0.0600 
    210 H210       -4.5979  -25.3160  -51.3907 H         1 UNK         0.3000 
    211 H211       -6.0674  -23.9023  -49.3400 H         1 UNK         0.0600 
    212 H212       -7.8214  -23.8108  -51.0580 H         1 UNK         0.0600 
    213 H213       -7.1403  -25.4244  -51.0029 H         1 UNK         0.0600 
    214 H214       -6.6911  -24.3258  -52.3076 H         1 UNK         0.0600 
    215 H215       -4.0032  -22.4470  -49.2556 H         1 UNK         0.3000 
    216 H216       -3.3817  -20.4643  -51.0685 H         1 UNK         0.0600 
    217 H217       -2.2682  -19.3547  -49.1534 H         1 UNK         0.0600 
    218 H218       -2.0416  -21.0954  -49.0425 H         1 UNK         0.0600 
    219 H219       -3.2206  -20.2900  -48.0100 H         1 UNK         0.0600 
    220 H220       -6.0393  -20.3900  -48.7466 H         1 UNK         0.3000 
    221 H221       -6.6290  -17.5522  -49.0862 H         1 UNK         0.0600 
    222 H222       -8.1971  -19.8131  -47.7367 H         1 UNK         0.0600 
    223 H223       -7.0722  -18.7133  -46.9376 H         1 UNK         0.0600 
    224 H224       -8.5674  -18.0968  -47.6220 H         1 UNK         0.0600 
    225 H225       -7.5149  -20.5089  -50.7531 H         1 UNK         0.3000 
    226 H226       -9.9026  -19.3193  -52.0403 H         1 UNK         0.0600 
    227 H227       -9.9333  -21.7289  -51.3128 H         1 UNK         0.0600 
    228 H228      -10.1649  -21.5404  -53.0449 H         1 UNK         0.0600 
    229 H229       -8.6073  -22.0661  -52.4276 H         1 UNK         0.0600 
    230 H230       -6.5506  -20.2974  -52.7172 H         1 UNK         0.3000 
    231 H231       -6.4810  -19.7203  -55.5053 H         1 UNK         0.0600 
    232 H232       -4.8138  -21.1500  -54.2945 H         1 UNK         0.0600 
    233 H233       -4.2447  -19.7439  -53.3974 H         1 UNK         0.0600 
    234 H234       -4.0082  -19.8372  -55.1391 H         1 UNK         0.0600 
    235 H235       -5.5065  -17.9538  -56.6139 H         1 UNK         0.3000 
    236 H236       -5.9819  -15.3126  -55.5335 H         1 UNK         0.0600 
    237 H237       -5.1080  -14.5819  -57.7509 H         1 UNK         0.0600 
    238 H238       -4.6013  -16.2266  -58.1159 H         1 UNK         0.0600 
    239 H239       -6.3145  -15.8438  -57.9388 H         1 UNK         0.0600 
    240 H240       -3.2252  -17.4333  -55.7280 H         1 UNK         0.3000 
    241 H241       -1.1984  -17.4673  -54.9889 H         1 UNK         0.0600 
    242 H242       -0.4032  -13.9174  -56.9285 H         1 UNK         0.3800 
    243 H243       -1.9553  -14.1403  -56.1367 H         1 UNK         0.3800 
    244 H244       -1.5301  -14.9548  -53.2928 H         1 UNK         0.0800 
    245 H245       -2.3517  -16.4306  -52.8782 H         1 UNK         0.0800 
    246 H246       -1.2525  -17.2868  -50.6407 H         1 UNK         0.0800 
    247 H247       -1.3248  -18.5262  -51.8760 H         1 UNK         0.0800 
@<TRIPOS>BOND
     1    1    2 1    
     2    1  127 1    
     3    1  128 1    
     4    1  129 1    
     5    2    3 2    
     6    2    4 am   BACKBONE|DICT|INTERRES
     7    4    5 1    
     8    4  130 1    
     9    5    6 1    
    10    5   65 1    
    11    5  131 1    
    12    6    7 1    
    13    6  132 1    
    14    6  133 1    
    15    7    8 1    
    16    8    9 1    
    17    8  134 1    
    18    8  135 1    
    19    9   10 ar   
    20    9   14 ar   
    21   10   11 ar   
    22   10  136 1    
    23   11   12 ar   
    24   11  126 1    
    25   12   13 ar   
    26   12  137 1    
    27   13   14 ar   
    28   13   15 1    
    29   14  138 1    
    30   15   16 1    
    31   15  139 1    
    32   15  140 1    
    33   16   17 1    
    34   17   18 1    
    35   17  141 1    
    36   17  142 1    
    37   18   19 1    
    38   18   67 1    
    39   18  143 1    
    40   19   20 am   BACKBONE|DICT|INTERRES
    41   19  144 1    
    42   20   21 2    
    43   20   22 1    
    44   22   23 1    
    45   22   24 1    
    46   22  145 1    
    47   23  146 1    
    48   23  147 1    
    49   23  148 1    
    50   24   25 am   BACKBONE|DICT|INTERRES
    51   24  149 1    
    52   25   26 2    
    53   25   27 1    
    54   27   28 1    
    55   27   29 1    
    56   27  150 1    
    57   28  151 1    
    58   28  152 1    
    59   28  153 1    
    60   29   30 am   BACKBONE|DICT|INTERRES
    61   29  154 1    
    62   30   31 2    
    63   30   32 1    
    64   32   33 1    
    65   32   34 1    
    66   32  155 1    
    67   33  156 1    
    68   33  157 1    
    69   33  158 1    
    70   34   35 am   BACKBONE|DICT|INTERRES
    71   34  159 1    
    72   35   36 2    
    73   35   37 1    
    74   37   38 1    
    75   37   39 1    
    76   37  160 1    
    77   38  161 1    
    78   38  162 1    
    79   38  163 1    
    80   39   40 am   BACKBONE|DICT|INTERRES
    81   39  164 1    
    82   40   41 2    
    83   40   42 1    
    84   42   43 1    
    85   42   44 1    
    86   42  165 1    
    87   43  166 1    
    88   43  167 1    
    89   43  168 1    
    90   44   45 am   BACKBONE|DICT|INTERRES
    91   44  169 1    
    92   45   46 2    
    93   45   47 1    
    94   47   48 1    
    95   47   49 1    
    96   47  170 1    
    97   48  171 1    
    98   48  172 1    
    99   48  173 1    
   100   49   50 am   BACKBONE|DICT|INTERRES
   101   49  174 1    
   102   50   51 2    
   103   50   52 1    
   104   52   53 1    
   105   52   54 1    
   106   52  175 1    
   107   53  176 1    
   108   53  177 1    
   109   53  178 1    
   110   54   55 am   BACKBONE|DICT|INTERRES
   111   54  179 1    
   112   55   56 2    
   113   55   57 1    
   114   57   58 1    
   115   57   59 1    
   116   57  180 1    
   117   58  181 1    
   118   58  182 1    
   119   58  183 1    
   120   59   60 am   BACKBONE|DICT|INTERRES
   121   59  184 1    
   122   60   61 2    
   123   60   62 1    
   124   62   63 1    
   125   62   64 1    
   126   62  185 1    
   127   63  186 1    
   128   63  187 1    
   129   63  188 1    
   130   64   65 am   BACKBONE|DICT|INTERRES
   131   64  189 1    
   132   65   66 2    
   133   67   68 2    
   134   67   69 am   BACKBONE|DICT|INTERRES
   135   69   70 1    
   136   69  190 1    
   137   70   71 1    
   138   70   72 1    
   139   70  191 1    
   140   71  192 1    
   141   71  193 1    
   142   71  194 1    
   143   72   73 2    
   144   72   74 am   BACKBONE|DICT|INTERRES
   145   74   75 1    
   146   74  195 1    
   147   75   76 1    
   148   75   77 1    
   149   75  196 1    
   150   76  197 1    
   151   76  198 1    
   152   76  199 1    
   153   77   78 2    
   154   77   79 am   BACKBONE|DICT|INTERRES
   155   79   80 1    
   156   79  200 1    
   157   80   81 1    
   158   80   82 1    
   159   80  201 1    
   160   81  202 1    
   161   81  203 1    
   162   81  204 1    
   163   82   83 2    
   164   82   84 am   BACKBONE|DICT|INTERRES
   165   84   85 1    
   166   84  205 1    
   167   85   86 1    
   168   85   87 1    
   169   85  206 1    
   170   86  207 1    
   171   86  208 1    
   172   86  209 1    
   173   87   88 2    
   174   87   89 am   BACKBONE|DICT|INTERRES
   175   89   90 1    
   176   89  210 1    
   177   90   91 1    
   178   90   92 1    
   179   90  211 1    
   180   91  212 1    
   181   91  213 1    
   182   91  214 1    
   183   92   93 2    
   184   92   94 am   BACKBONE|DICT|INTERRES
   185   94   95 1    
   186   94  215 1    
   187   95   96 1    
   188   95   97 1    
   189   95  216 1    
   190   96  217 1    
   191   96  218 1    
   192   96  219 1    
   193   97   98 2    
   194   97   99 am   BACKBONE|DICT|INTERRES
   195   99  100 1    
   196   99  220 1    
   197  100  101 1    
   198  100  102 1    
   199  100  221 1    
   200  101  222 1    
   201  101  223 1    
   202  101  224 1    
   203  102  103 2    
   204  102  104 am   BACKBONE|DICT|INTERRES
   205  104  105 1    
   206  104  225 1    
   207  105  106 1    
   208  105  107 1    
   209  105  226 1    
   210  106  227 1    
   211  106  228 1    
   212  106  229 1    
   213  107  108 2    
   214  107  109 am   BACKBONE|DICT|INTERRES
   215  109  110 1    
   216  109  230 1    
   217  110  111 1    
   218  110  112 1    
   219  110  231 1    
   220  111  232 1    
   221  111  233 1    
   222  111  234 1    
   223  112  113 2    
   224  112  114 am   BACKBONE|DICT|INTERRES
   225  114  115 1    
   226  114  235 1    
   227  115  116 1    
   228  115  117 1    
   229  115  236 1    
   230  116  237 1    
   231  116  238 1    
   232  116  239 1    
   233  117  118 2    
   234  117  119 am   BACKBONE|DICT|INTERRES
   235  119  120 1    
   236  119  240 1    
   237  120  121 1    
   238  120  124 1    
   239  120  241 1    
   240  121  122 am   BACKBONE|DICT|INTERRES
   241  121  123 2    
   242  122  242 1    
   243  122  243 1    
   244  124  125 1    
   245  124  244 1    
   246  124  245 1    
   247  125  126 1    
   248  126  246 1    
   249  126  247 1    
@<TRIPOS>SUBSTRUCTURE
     1 UNK         1 GROUP             0       ****    0 ROOT    
