@<TRIPOS>MOLECULE
3R540
247   249    1
SMALL
USER_CHARGES


@<TRIPOS>ATOM
      1 CA          8.9969  -13.9946  -45.4985 C.3       0 UNK        -0.1800 
      2 C           7.5872  -13.9184  -46.0685 C.2       0 UNK         0.5000 
      3 O           7.3008  -13.0276  -46.8686 O.2       0 UNK        -0.5000 
      4 N           6.7163  -14.8531  -45.6645 N.am      1 UNK        -0.5000 
      5 CA          5.2978  -14.9365  -46.0347 C.3       1 UNK         0.1400 
      6 C6          5.0829  -15.1115  -47.5671 C.3       23 UNK        -0.0398 
      7 S7          3.5801  -16.0669  -47.9556 S.3       23 UNK        -0.2404 
      8 C8          3.7896  -16.3198  -49.7438 C.3       23 UNK        -0.0205 
      9 C9          2.8855  -17.4433  -50.2156 C.ar      23 UNK        -0.0193 
     10 C10         1.6180  -17.1713  -50.7364 C.ar      23 UNK        -0.1150 
     11 C11         0.7600  -18.2171  -51.0915 C.ar      23 UNK        -0.0193 
     12 C12         1.1800  -19.5402  -50.9192 C.ar      23 UNK        -0.1150 
     13 C13         2.4545  -19.8221  -50.4181 C.ar      23 UNK        -0.0193 
     14 C14         3.3070  -18.7674  -50.0836 C.ar      23 UNK        -0.1150 
     15 C15         2.8945  -21.2640  -50.2000 C.3       23 UNK        -0.0205 
     16 S16         3.4609  -21.5874  -48.4922 S.3       23 UNK        -0.2404 
     17 C17         2.0569  -20.9814  -47.4904 C.3       23 UNK        -0.0398 
     18 CA          1.1016  -22.0990  -47.0203 C.3       11 UNK         0.1400 
     19 N           0.1893  -21.6154  -45.9834 N.am      11 UNK        -0.5000 
     20 C          -0.6319  -22.3946  -45.2666 C.2       10 UNK         0.5000 
     21 O          -0.6724  -23.6205  -45.3630 O.2       10 UNK        -0.5000 
     22 CA         -1.6037  -21.6791  -44.3141 C.3       10 UNK         0.1400 
     23 CB         -0.9013  -21.3162  -42.9977 C.3       10 UNK        -0.1800 
     24 N          -2.1902  -20.4788  -44.9122 N.am      10 UNK        -0.5000 
     25 C          -2.9926  -20.4858  -45.9862 C.2       9 UNK         0.5000 
     26 O          -3.3577  -21.5082  -46.5652 O.2       9 UNK        -0.5000 
     27 CA         -3.4288  -19.1221  -46.5434 C.3       9 UNK         0.1400 
     28 CB         -4.5798  -18.5307  -45.7178 C.3       9 UNK        -0.1800 
     29 N          -2.3329  -18.1606  -46.6357 N.am      9 UNK        -0.5000 
     30 C          -1.2521  -18.3110  -47.4149 C.2       8 UNK         0.5000 
     31 O          -1.0725  -19.2785  -48.1533 O.2       8 UNK        -0.5000 
     32 CA         -0.1745  -17.2179  -47.3188 C.3       8 UNK         0.1400 
     33 CB         -0.5558  -15.9883  -48.1568 C.3       8 UNK        -0.1800 
     34 N           0.0617  -16.8046  -45.9375 N.am      8 UNK        -0.5000 
     35 C           0.5986  -17.5853  -44.9908 C.2       7 UNK         0.5000 
     36 O           0.9873  -18.7381  -45.1844 O.2       7 UNK        -0.5000 
     37 CA          0.6556  -16.9812  -43.5769 C.3       7 UNK         0.1400 
     38 CB          1.7971  -15.9573  -43.4682 C.3       7 UNK        -0.1800 
     39 N          -0.6106  -16.3476  -43.1999 N.am      7 UNK        -0.5000 
     40 C          -1.7587  -17.0178  -43.0088 C.2       6 UNK         0.5000 
     41 O          -1.8573  -18.2397  -43.1061 O.2       6 UNK        -0.5000 
     42 CA         -3.0232  -16.1931  -42.6973 C.3       6 UNK         0.1400 
     43 CB         -3.1648  -15.9834  -41.1826 C.3       6 UNK        -0.1800 
     44 N          -3.0539  -14.8925  -43.3632 N.am      6 UNK        -0.5000 
     45 C          -2.9654  -14.6855  -44.6844 C.2       5 UNK         0.5000 
     46 O          -2.9320  -15.5909  -45.5170 O.2       5 UNK        -0.5000 
     47 CA         -2.8386  -13.2227  -45.1527 C.3       5 UNK         0.1400 
     48 CB         -4.1829  -12.7181  -45.6971 C.3       5 UNK        -0.1800 
     49 N          -2.3563  -12.2942  -44.1215 N.am      5 UNK        -0.5000 
     50 C          -1.1756  -12.3801  -43.4938 C.2       4 UNK         0.5000 
     51 O          -0.3729  -13.3019  -43.6619 O.2       4 UNK        -0.5000 
     52 CA         -0.8585  -11.2799  -42.4678 C.3       4 UNK         0.1400 
     53 CB         -1.1140  -11.7921  -41.0421 C.3       4 UNK        -0.1800 
     54 N           0.5354  -10.8574  -42.5823 N.am      4 UNK        -0.5000 
     55 C           1.0273  -10.1532  -43.6088 C.2       3 UNK         0.5000 
     56 O           0.3264   -9.6750  -44.5026 O.2       3 UNK        -0.5000 
     57 CA          2.5535   -9.9393  -43.6547 C.3       3 UNK         0.1400 
     58 CB          3.3640  -10.7982  -42.6574 C.3       3 UNK        -0.1800 
     59 N           3.1049  -10.0283  -45.0135 N.am      3 UNK        -0.5000 
     60 C           3.0899  -11.0212  -45.9192 C.2       2 UNK         0.5000 
     61 O           3.6087  -10.8579  -47.0246 O.2       2 UNK        -0.5000 
     62 CA          2.4189  -12.3872  -45.6325 C.3       2 UNK         0.1400 
     63 CB          1.1251  -12.5407  -46.4514 C.3       2 UNK        -0.1800 
     64 N           3.3063  -13.4896  -45.9946 N.am      2 UNK        -0.5000 
     65 C           4.4729  -13.7839  -45.4083 C.2       1 UNK         0.5000 
     66 O           4.8858  -13.2120  -44.3965 O.2       1 UNK        -0.5000 
     67 C           0.3344  -22.7439  -48.1937 C.2       11 UNK         0.5000 
     68 O           0.6742  -23.8557  -48.5978 O.2       11 UNK        -0.5000 
     69 N          -0.7096  -22.0639  -48.6902 N.am      12 UNK        -0.5000 
     70 CA         -1.5994  -22.5679  -49.7365 C.3       12 UNK         0.1400 
     71 CB         -2.5904  -21.4715  -50.1501 C.3       12 UNK        -0.1800 
     72 C          -2.3308  -23.8573  -49.3238 C.2       12 UNK         0.5000 
     73 O          -2.3613  -24.8047  -50.1073 O.2       12 UNK        -0.5000 
     74 N          -2.8474  -23.8969  -48.0874 N.am      13 UNK        -0.5000 
     75 CA         -3.4805  -25.0750  -47.4937 C.3       13 UNK         0.1400 
     76 CB         -4.0823  -24.7096  -46.1286 C.3       13 UNK        -0.1800 
     77 C          -2.5176  -26.2709  -47.3659 C.2       13 UNK         0.5000 
     78 O          -2.8937  -27.3877  -47.7223 O.2       13 UNK        -0.5000 
     79 N          -1.2820  -26.0156  -46.9100 N.am      14 UNK        -0.5000 
     80 CA         -0.2067  -27.0081  -46.8128 C.3       14 UNK         0.1400 
     81 CB          0.9826  -26.4061  -46.0494 C.3       14 UNK        -0.1800 
     82 C           0.2431  -27.5499  -48.1841 C.2       14 UNK         0.5000 
     83 O           0.5636  -28.7336  -48.2953 O.2       14 UNK        -0.5000 
     84 N           0.2177  -26.6876  -49.2086 N.am      15 UNK        -0.5000 
     85 CA          0.4736  -27.0257  -50.6105 C.3       15 UNK         0.1400 
     86 CB          0.8479  -25.7393  -51.3662 C.3       15 UNK        -0.1800 
     87 C          -0.7074  -27.7432  -51.3028 C.2       15 UNK         0.5000 
     88 O          -0.5621  -28.1478  -52.4571 O.2       15 UNK        -0.5000 
     89 N          -1.8451  -27.8812  -50.6040 N.am      16 UNK        -0.5000 
     90 CA         -3.1140  -28.4645  -51.0530 C.3       16 UNK         0.1400 
     91 CB         -2.9508  -29.9571  -51.4101 C.3       16 UNK        -0.1800 
     92 C          -3.8083  -27.6440  -52.1615 C.2       16 UNK         0.5000 
     93 O          -4.5514  -28.2029  -52.9710 O.2       16 UNK        -0.5000 
     94 N          -3.5736  -26.3277  -52.1617 N.am      17 UNK        -0.5000 
     95 CA         -4.2603  -25.3412  -52.9878 C.3       17 UNK         0.1400 
     96 CB         -3.2359  -24.2752  -53.4145 C.3       17 UNK        -0.1800 
     97 C          -5.4156  -24.7082  -52.1891 C.2       17 UNK         0.5000 
     98 O          -5.5597  -24.9610  -50.9892 O.2       17 UNK        -0.5000 
     99 N          -6.2230  -23.8828  -52.8674 N.am      18 UNK        -0.5000 
    100 CA        -7.2865  -23.0867  -52.2546 C.3       18 UNK         0.1400 
    101 CB        -8.1441  -22.4457  -53.3571 C.3       18 UNK        -0.1800 
    102 C         -6.6914  -22.0154  -51.3231 C.2       18 UNK         0.5000 
    103 O         -5.9590  -21.1426  -51.7986 O.2       18 UNK        -0.5000 
    104 N         -6.9941  -22.1213  -50.0233 N.am      19 UNK        -0.5000 
    105 CA        -6.5075  -21.2313  -48.9704 C.3       19 UNK         0.1400 
    106 CB        -6.9503  -21.7751  -47.6048 C.3       19 UNK        -0.1800 
    107 C         -6.9918  -19.7837  -49.1653 C.2       19 UNK         0.5000 
    108 O         -8.1374  -19.5701  -49.5672 O.2       19 UNK        -0.5000 
    109 N         -6.0942  -18.8243  -48.9032 N.am      20 UNK        -0.5000 
    110 CA        -6.2243  -17.3643  -49.0417 C.3       20 UNK         0.1400 
    111 CB        -7.3814  -16.8102  -48.1896 C.3       20 UNK        -0.1800 
    112 C         -6.3101  -16.8736  -50.5015 C.2       20 UNK         0.5000 
    113 O         -5.7381  -15.8316  -50.8215 O.2       20 UNK        -0.5000 
    114 N         -6.9757  -17.6464  -51.3677 N.am      21 UNK        -0.5000 
    115 CA        -7.0263  -17.4568  -52.8170 C.3       21 UNK         0.1400 
    116 CB        -8.1374  -18.3491  -53.3906 C.3       21 UNK        -0.1800 
    117 C         -5.6830  -17.7622  -53.5098 C.2       21 UNK         0.5000 
    118 O         -5.4319  -17.2321  -54.5927 O.2       21 UNK        -0.5000 
    119 N         -4.8511  -18.5998  -52.8737 N.am      22 UNK        -0.5000 
    120 CA        -3.5668  -19.0993  -53.3866 C.3       22 UNK         0.1400 
    121 C         -3.7436  -20.1213  -54.5493 C.2       22 UNK         0.5000 
    122 N         -4.7513  -20.9820  -54.4772 N.am      22 UNK        -0.7600 
    123 O         -2.9862  -20.1419  -55.5158 O.2       22 UNK        -0.5000 
    124 C124       -2.5491  -17.9564  -53.6700 C.3       23 UNK        -0.0398 
    125 S125       -0.8229  -18.4535  -53.3532 S.3       23 UNK        -0.2404 
    126 C126       -0.6332  -17.9193  -51.6243 C.3       23 UNK        -0.0205 
    127 H127        9.7221  -14.1082  -46.3043 H         1 UNK         0.0600 
    128 H128        9.1139  -14.8360  -44.8150 H         1 UNK         0.0600 
    129 H129        9.2308  -13.0797  -44.9541 H         1 UNK         0.0600 
    130 H130        7.0189  -15.5349  -44.9830 H         1 UNK         0.3000 
    131 H131        4.9450  -15.8435  -45.5413 H         1 UNK         0.0600 
    132 H132        5.0618  -14.1513  -48.0863 H         1 UNK         0.0800 
    133 H133        5.9253  -15.6595  -47.9918 H         1 UNK         0.0800 
    134 H134        4.8280  -16.5677  -49.9690 H         1 UNK         0.0800 
    135 H135        3.5662  -15.3931  -50.2744 H         1 UNK         0.0800 
    136 H136        1.2916  -16.1460  -50.8389 H         1 UNK         0.1150 
    137 H137        0.5076  -20.3481  -51.1713 H         1 UNK         0.1150 
    138 H138        4.2853  -18.9787  -49.6750 H         1 UNK         0.1150 
    139 H139        2.0875  -21.9565  -50.4434 H         1 UNK         0.0800 
    140 H140        3.7088  -21.4909  -50.8890 H         1 UNK         0.0800 
    141 H141        1.5085  -20.1950  -48.0084 H         1 UNK         0.0800 
    142 H142        2.4953  -20.4950  -46.6182 H         1 UNK         0.0800 
    143 H143        1.7082  -22.8829  -46.5616 H         1 UNK         0.0600 
    144 H144        0.1781  -20.6148  -45.8205 H         1 UNK         0.3000 
    145 H145       -2.4166  -22.3716  -44.0864 H         1 UNK         0.0600 
    146 H146       -1.6065  -20.9007  -42.2777 H         1 UNK         0.0600 
    147 H147       -0.4494  -22.1964  -42.5388 H         1 UNK         0.0600 
    148 H148       -0.1101  -20.5813  -43.1529 H         1 UNK         0.0600 
    149 H149       -1.9691  -19.5953  -44.4606 H         1 UNK         0.3000 
    150 H150       -3.7868  -19.2909  -47.5585 H         1 UNK         0.0600 
    151 H151       -5.4442  -19.1953  -45.7184 H         1 UNK         0.0600 
    152 H152       -4.9058  -17.5713  -46.1192 H         1 UNK         0.0600 
    153 H153       -4.2880  -18.3766  -44.6797 H         1 UNK         0.0600 
    154 H154       -2.4285  -17.3044  -46.0948 H         1 UNK         0.3000 
    155 H155        0.7543  -17.6310  -47.7188 H         1 UNK         0.0600 
    156 H156       -1.4292  -15.4751  -47.7542 H         1 UNK         0.0600 
    157 H157        0.2658  -15.2731  -48.1983 H         1 UNK         0.0600 
    158 H158       -0.7912  -16.2713  -49.1819 H         1 UNK         0.0600 
    159 H159       -0.2791  -15.8931  -45.6709 H         1 UNK         0.3000 
    160 H160        0.8544  -17.7921  -42.8730 H         1 UNK         0.0600 
    161 H161        1.6458  -15.1106  -44.1383 H         1 UNK         0.0600 
    162 H162        2.7553  -16.4108  -43.7248 H         1 UNK         0.0600 
    163 H163        1.8821  -15.5671  -42.4540 H         1 UNK         0.0600 
    164 H164       -0.6151  -15.3345  -43.1499 H         1 UNK         0.3000 
    165 H165       -3.8871  -16.7612  -43.0449 H         1 UNK         0.0600 
    166 H166       -4.0999  -15.4787  -40.9392 H         1 UNK         0.0600 
    167 H167       -3.1655  -16.9380  -40.6546 H         1 UNK         0.0600 
    168 H168       -2.3453  -15.3859  -40.7806 H         1 UNK         0.0600 
    169 H169       -3.0745  -14.0817  -42.7637 H         1 UNK         0.3000 
    170 H170       -2.1133  -13.2117  -45.9689 H         1 UNK         0.0600 
    171 H171       -4.5564  -13.3730  -46.4858 H         1 UNK         0.0600 
    172 H172       -4.9433  -12.6777  -44.9163 H         1 UNK         0.0600 
    173 H173       -4.0861  -11.7203  -46.1255 H         1 UNK         0.0600 
    174 H174       -2.9615  -11.5131  -43.9122 H         1 UNK         0.3000 
    175 H175       -1.5024  -10.4168  -42.6506 H         1 UNK         0.0600 
    176 H176       -0.4923  -12.6571  -40.8063 H         1 UNK         0.0600 
    177 H177       -0.9072  -11.0186  -40.3022 H         1 UNK         0.0600 
    178 H178       -2.1549  -12.0920  -40.9147 H         1 UNK         0.0600 
    179 H179        1.1761  -11.2385  -41.9019 H         1 UNK         0.3000 
    180 H180        2.7011   -8.8994  -43.3597 H         1 UNK         0.0600 
    181 H181        3.1784  -11.8663  -42.7572 H         1 UNK         0.0600 
    182 H182        3.1305  -10.5237  -41.6280 H         1 UNK         0.0600 
    183 H183        4.4347  -10.6401  -42.7883 H         1 UNK         0.0600 
    184 H184        3.5352   -9.1676  -45.3183 H         1 UNK         0.3000 
    185 H185        2.1704  -12.4991  -44.5805 H         1 UNK         0.0600 
    186 H186        0.4089  -11.7554  -46.2107 H         1 UNK         0.0600 
    187 H187        1.3167  -12.4892  -47.5240 H         1 UNK         0.0600 
    188 H188        0.6390  -13.4942  -46.2448 H         1 UNK         0.0600 
    189 H189        3.0478  -14.0143  -46.8189 H         1 UNK         0.3000 
    190 H190       -0.9074  -21.1303  -48.3369 H         1 UNK         0.3000 
    191 H191       -0.9837  -22.8070  -50.6059 H         1 UNK         0.0600 
    192 H192       -3.1401  -21.0875  -49.2925 H         1 UNK         0.0600 
    193 H193       -3.3166  -21.8424  -50.8747 H         1 UNK         0.0600 
    194 H194       -2.0678  -20.6340  -50.6088 H         1 UNK         0.0600 
    195 H195       -2.8164  -23.0588  -47.5125 H         1 UNK         0.3000 
    196 H196       -4.2965  -25.3751  -48.1549 H         1 UNK         0.0600 
    197 H197       -4.5893  -25.5664  -45.6834 H         1 UNK         0.0600 
    198 H198       -4.8161  -23.9096  -46.2218 H         1 UNK         0.0600 
    199 H199       -3.3175  -24.3784  -45.4262 H         1 UNK         0.0600 
    200 H200       -1.0594  -25.0754  -46.5945 H         1 UNK         0.3000 
    201 H201       -0.5867  -27.8528  -46.2347 H         1 UNK         0.0600 
    202 H202        0.6908  -26.0988  -45.0451 H         1 UNK         0.0600 
    203 H203        1.3894  -25.5334  -46.5607 H         1 UNK         0.0600 
    204 H204        1.7894  -27.1326  -45.9459 H         1 UNK         0.0600 
    205 H205        0.0095  -25.7130  -49.0131 H         1 UNK         0.3000 
    206 H206        1.3298  -27.7019  -50.6509 H         1 UNK         0.0600 
    207 H207        1.7050  -25.2464  -50.9068 H         1 UNK         0.0600 
    208 H208        1.1143  -25.9545  -52.4016 H         1 UNK         0.0600 
    209 H209        0.0224  -25.0278  -51.3819 H         1 UNK         0.0600 
    210 H210       -1.8666  -27.4925  -49.6692 H         1 UNK         0.3000 
    211 H211       -3.7807  -28.4115  -50.1913 H         1 UNK         0.0600 
    212 H212       -2.3657  -30.0969  -52.3192 H         1 UNK         0.0600 
    213 H213       -3.9211  -30.4274  -51.5731 H         1 UNK         0.0600 
    214 H214       -2.4586  -30.5032  -50.6054 H         1 UNK         0.0600 
    215 H215       -3.0207  -25.9355  -51.4015 H         1 UNK         0.3000 
    216 H216       -4.6710  -25.8146  -53.8817 H         1 UNK         0.0600 
    217 H217       -3.6692  -23.5734  -54.1264 H         1 UNK         0.0600 
    218 H218       -2.3723  -24.7310  -53.8993 H         1 UNK         0.0600 
    219 H219       -2.8729  -23.6973  -52.5644 H         1 UNK         0.0600 
    220 H220       -6.0462  -23.7188  -53.8469 H         1 UNK         0.3000 
    221 H221       -7.9259  -23.7544  -51.6732 H         1 UNK         0.0600 
    222 H222       -7.5566  -21.7960  -54.0062 H         1 UNK         0.0600 
    223 H223       -8.6135  -23.2056  -53.9820 H         1 UNK         0.0600 
    224 H224       -8.9436  -21.8418  -52.9259 H         1 UNK         0.0600 
    225 H225       -7.6022  -22.8698  -49.7263 H         1 UNK         0.3000 
    226 H226       -5.4179  -21.2495  -49.0059 H         1 UNK         0.0600 
    227 H227       -8.0366  -21.7779  -47.5051 H         1 UNK         0.0600 
    228 H228       -6.5962  -22.7948  -47.4542 H         1 UNK         0.0600 
    229 H229       -6.5457  -21.1701  -46.7928 H         1 UNK         0.0600 
    230 H230       -5.1724  -19.1269  -48.6306 H         1 UNK         0.3000 
    231 H231       -5.2993  -16.9515  -48.6351 H         1 UNK         0.0600 
    232 H232       -7.3789  -15.7196  -48.1973 H         1 UNK         0.0600 
    233 H233       -7.2940  -17.1280  -47.1507 H         1 UNK         0.0600 
    234 H234       -8.3545  -17.1336  -48.5595 H         1 UNK         0.0600 
    235 H235       -7.4519  -18.4609  -50.9921 H         1 UNK         0.3000 
    236 H236       -7.2780  -16.4141  -53.0206 H         1 UNK         0.0600 
    237 H237       -9.1071  -18.0975  -52.9609 H         1 UNK         0.0600 
    238 H238       -8.2188  -18.2285  -54.4716 H         1 UNK         0.0600 
    239 H239       -7.9455  -19.4036  -53.1905 H         1 UNK         0.0600 
    240 H240       -5.1943  -19.0585  -52.0402 H         1 UNK         0.3000 
    241 H241       -3.1674  -19.6921  -52.5641 H         1 UNK         0.0600 
    242 H242       -5.3357  -20.9994  -53.6479 H         1 UNK         0.3800 
    243 H243       -4.9022  -21.6292  -55.2328 H         1 UNK         0.3800 
    244 H244       -2.6356  -17.5995  -54.6975 H         1 UNK         0.0800 
    245 H245       -2.7688  -17.0896  -53.0453 H         1 UNK         0.0800 
    246 H246       -1.3719  -18.4196  -50.9973 H         1 UNK         0.0800 
    247 H247       -0.8458  -16.8512  -51.5606 H         1 UNK         0.0800 
@<TRIPOS>BOND
     1    1    2 1    
     2    1  127 1    
     3    1  128 1    
     4    1  129 1    
     5    2    3 2    
     6    2    4 am   BACKBONE|DICT|INTERRES
     7    4    5 1    
     8    4  130 1    
     9    5    6 1    
    10    5   65 1    
    11    5  131 1    
    12    6    7 1    
    13    6  132 1    
    14    6  133 1    
    15    7    8 1    
    16    8    9 1    
    17    8  134 1    
    18    8  135 1    
    19    9   10 ar   
    20    9   14 ar   
    21   10   11 ar   
    22   10  136 1    
    23   11   12 ar   
    24   11  126 1    
    25   12   13 ar   
    26   12  137 1    
    27   13   14 ar   
    28   13   15 1    
    29   14  138 1    
    30   15   16 1    
    31   15  139 1    
    32   15  140 1    
    33   16   17 1    
    34   17   18 1    
    35   17  141 1    
    36   17  142 1    
    37   18   19 1    
    38   18   67 1    
    39   18  143 1    
    40   19   20 am   BACKBONE|DICT|INTERRES
    41   19  144 1    
    42   20   21 2    
    43   20   22 1    
    44   22   23 1    
    45   22   24 1    
    46   22  145 1    
    47   23  146 1    
    48   23  147 1    
    49   23  148 1    
    50   24   25 am   BACKBONE|DICT|INTERRES
    51   24  149 1    
    52   25   26 2    
    53   25   27 1    
    54   27   28 1    
    55   27   29 1    
    56   27  150 1    
    57   28  151 1    
    58   28  152 1    
    59   28  153 1    
    60   29   30 am   BACKBONE|DICT|INTERRES
    61   29  154 1    
    62   30   31 2    
    63   30   32 1    
    64   32   33 1    
    65   32   34 1    
    66   32  155 1    
    67   33  156 1    
    68   33  157 1    
    69   33  158 1    
    70   34   35 am   BACKBONE|DICT|INTERRES
    71   34  159 1    
    72   35   36 2    
    73   35   37 1    
    74   37   38 1    
    75   37   39 1    
    76   37  160 1    
    77   38  161 1    
    78   38  162 1    
    79   38  163 1    
    80   39   40 am   BACKBONE|DICT|INTERRES
    81   39  164 1    
    82   40   41 2    
    83   40   42 1    
    84   42   43 1    
    85   42   44 1    
    86   42  165 1    
    87   43  166 1    
    88   43  167 1    
    89   43  168 1    
    90   44   45 am   BACKBONE|DICT|INTERRES
    91   44  169 1    
    92   45   46 2    
    93   45   47 1    
    94   47   48 1    
    95   47   49 1    
    96   47  170 1    
    97   48  171 1    
    98   48  172 1    
    99   48  173 1    
   100   49   50 am   BACKBONE|DICT|INTERRES
   101   49  174 1    
   102   50   51 2    
   103   50   52 1    
   104   52   53 1    
   105   52   54 1    
   106   52  175 1    
   107   53  176 1    
   108   53  177 1    
   109   53  178 1    
   110   54   55 am   BACKBONE|DICT|INTERRES
   111   54  179 1    
   112   55   56 2    
   113   55   57 1    
   114   57   58 1    
   115   57   59 1    
   116   57  180 1    
   117   58  181 1    
   118   58  182 1    
   119   58  183 1    
   120   59   60 am   BACKBONE|DICT|INTERRES
   121   59  184 1    
   122   60   61 2    
   123   60   62 1    
   124   62   63 1    
   125   62   64 1    
   126   62  185 1    
   127   63  186 1    
   128   63  187 1    
   129   63  188 1    
   130   64   65 am   BACKBONE|DICT|INTERRES
   131   64  189 1    
   132   65   66 2    
   133   67   68 2    
   134   67   69 am   BACKBONE|DICT|INTERRES
   135   69   70 1    
   136   69  190 1    
   137   70   71 1    
   138   70   72 1    
   139   70  191 1    
   140   71  192 1    
   141   71  193 1    
   142   71  194 1    
   143   72   73 2    
   144   72   74 am   BACKBONE|DICT|INTERRES
   145   74   75 1    
   146   74  195 1    
   147   75   76 1    
   148   75   77 1    
   149   75  196 1    
   150   76  197 1    
   151   76  198 1    
   152   76  199 1    
   153   77   78 2    
   154   77   79 am   BACKBONE|DICT|INTERRES
   155   79   80 1    
   156   79  200 1    
   157   80   81 1    
   158   80   82 1    
   159   80  201 1    
   160   81  202 1    
   161   81  203 1    
   162   81  204 1    
   163   82   83 2    
   164   82   84 am   BACKBONE|DICT|INTERRES
   165   84   85 1    
   166   84  205 1    
   167   85   86 1    
   168   85   87 1    
   169   85  206 1    
   170   86  207 1    
   171   86  208 1    
   172   86  209 1    
   173   87   88 2    
   174   87   89 am   BACKBONE|DICT|INTERRES
   175   89   90 1    
   176   89  210 1    
   177   90   91 1    
   178   90   92 1    
   179   90  211 1    
   180   91  212 1    
   181   91  213 1    
   182   91  214 1    
   183   92   93 2    
   184   92   94 am   BACKBONE|DICT|INTERRES
   185   94   95 1    
   186   94  215 1    
   187   95   96 1    
   188   95   97 1    
   189   95  216 1    
   190   96  217 1    
   191   96  218 1    
   192   96  219 1    
   193   97   98 2    
   194   97   99 am   BACKBONE|DICT|INTERRES
   195   99  100 1    
   196   99  220 1    
   197  100  101 1    
   198  100  102 1    
   199  100  221 1    
   200  101  222 1    
   201  101  223 1    
   202  101  224 1    
   203  102  103 2    
   204  102  104 am   BACKBONE|DICT|INTERRES
   205  104  105 1    
   206  104  225 1    
   207  105  106 1    
   208  105  107 1    
   209  105  226 1    
   210  106  227 1    
   211  106  228 1    
   212  106  229 1    
   213  107  108 2    
   214  107  109 am   BACKBONE|DICT|INTERRES
   215  109  110 1    
   216  109  230 1    
   217  110  111 1    
   218  110  112 1    
   219  110  231 1    
   220  111  232 1    
   221  111  233 1    
   222  111  234 1    
   223  112  113 2    
   224  112  114 am   BACKBONE|DICT|INTERRES
   225  114  115 1    
   226  114  235 1    
   227  115  116 1    
   228  115  117 1    
   229  115  236 1    
   230  116  237 1    
   231  116  238 1    
   232  116  239 1    
   233  117  118 2    
   234  117  119 am   BACKBONE|DICT|INTERRES
   235  119  120 1    
   236  119  240 1    
   237  120  121 1    
   238  120  124 1    
   239  120  241 1    
   240  121  122 am   BACKBONE|DICT|INTERRES
   241  121  123 2    
   242  122  242 1    
   243  122  243 1    
   244  124  125 1    
   245  124  244 1    
   246  124  245 1    
   247  125  126 1    
   248  126  246 1    
   249  126  247 1    
@<TRIPOS>SUBSTRUCTURE
     1 UNK         1 GROUP             0       ****    0 ROOT    
