@<TRIPOS>MOLECULE
3R540
247   249    1
SMALL
USER_CHARGES


@<TRIPOS>ATOM
      1 CA         -2.4393   -9.1772  -47.0315 C.3       0 UNK        -0.1800 
      2 C          -1.6208  -10.2747  -46.3693 C.2       0 UNK         0.5000 
      3 O          -0.4159  -10.3658  -46.6010 O.2       0 UNK        -0.5000 
      4 N          -2.2592  -11.0976  -45.5279 N.am      1 UNK        -0.5000 
      5 CA         -1.6666  -12.2591  -44.8451 C.3       1 UNK         0.1400 
      6 C6         -2.7471  -13.1512  -44.1901 C.3       23 UNK        -0.0398 
      7 S7         -3.8421  -13.8946  -45.4453 S.3       23 UNK        -0.2404 
      8 C8         -2.9077  -15.4174  -45.7714 C.3       23 UNK        -0.0205 
      9 C9         -3.4150  -16.1609  -46.9923 C.ar      23 UNK        -0.0193 
     10 C10        -3.1272  -15.6777  -48.2715 C.ar      23 UNK        -0.1150 
     11 C11        -3.5297  -16.3775  -49.4130 C.ar      23 UNK        -0.0193 
     12 C12        -4.2304  -17.5799  -49.2497 C.ar      23 UNK        -0.1150 
     13 C13        -4.5429  -18.0631  -47.9764 C.ar      23 UNK        -0.0193 
     14 C14        -4.1319  -17.3508  -46.8487 C.ar      23 UNK        -0.1150 
     15 C15        -5.3310  -19.3534  -47.8320 C.3       23 UNK        -0.0205 
     16 S16        -4.2345  -20.8000  -47.8546 S.3       23 UNK        -0.2404 
     17 C17        -4.0107  -21.1408  -46.0794 C.3       23 UNK        -0.0398 
     18 CA         -3.2372  -22.4656  -45.8884 C.3       11 UNK         0.1400 
     19 N          -1.8035  -22.3259  -46.1613 N.am      11 UNK        -0.5000 
     20 C          -0.9680  -23.3584  -46.3269 C.2       10 UNK         0.5000 
     21 O          -1.3392  -24.5304  -46.3191 O.2       10 UNK        -0.5000 
     22 CA          0.5292  -23.0440  -46.4909 C.3       10 UNK         0.1400 
     23 CB          0.8459  -22.5895  -47.9207 C.3       10 UNK        -0.1800 
     24 N           1.0018  -22.0396  -45.5397 N.am      10 UNK        -0.5000 
     25 C           1.0253  -22.2115  -44.2110 C.2       9 UNK         0.5000 
     26 O           0.6912  -23.2561  -43.6535 O.2       9 UNK        -0.5000 
     27 CA          1.4515  -21.0036  -43.3584 C.3       9 UNK         0.1400 
     28 CB          2.9815  -20.8766  -43.3178 C.3       9 UNK        -0.1800 
     29 N           0.8666  -19.7463  -43.8239 N.am      9 UNK        -0.5000 
     30 C          -0.4468  -19.4788  -43.8567 C.2       8 UNK         0.5000 
     31 O          -1.3171  -20.2574  -43.4682 O.2       8 UNK        -0.5000 
     32 CA         -0.8602  -18.1345  -44.4809 C.3       8 UNK         0.1400 
     33 CB         -0.5764  -16.9740  -43.5111 C.3       8 UNK        -0.1800 
     34 N          -0.1992  -17.8921  -45.7649 N.am      8 UNK        -0.5000 
     35 C          -0.3115  -18.6888  -46.8398 C.2       7 UNK         0.5000 
     36 O          -1.0276  -19.6873  -46.8817 O.2       7 UNK        -0.5000 
     37 CA          0.5877  -18.3620  -48.0432 C.3       7 UNK         0.1400 
     38 CB         -0.0439  -17.2851  -48.9339 C.3       7 UNK        -0.1800 
     39 N           1.9220  -17.9413  -47.6172 N.am      7 UNK        -0.5000 
     40 C           2.8265  -18.7639  -47.0655 C.2       6 UNK         0.5000 
     41 O           2.6465  -19.9712  -46.9086 O.2       6 UNK        -0.5000 
     42 CA          4.1305  -18.1187  -46.5621 C.3       6 UNK         0.1400 
     43 CB          5.1293  -17.9390  -47.7149 C.3       6 UNK        -0.1800 
     44 N           3.8962  -16.8275  -45.9142 N.am      6 UNK        -0.5000 
     45 C           3.2313  -16.6712  -44.7605 C.2       5 UNK         0.5000 
     46 O           2.8049  -17.6102  -44.0900 O.2       5 UNK        -0.5000 
     47 CA          2.9586  -15.2266  -44.3023 C.3       5 UNK         0.1400 
     48 CB          4.0760  -14.7283  -43.3751 C.3       5 UNK        -0.1800 
     49 N           2.8054  -14.2895  -45.4154 N.am      5 UNK        -0.5000 
     50 C           1.8139  -14.3115  -46.3142 C.2       4 UNK         0.5000 
     51 O           0.9249  -15.1656  -46.3169 O.2       4 UNK        -0.5000 
     52 CA          1.8395  -13.1999  -47.3852 C.3       4 UNK         0.1400 
     53 CB          0.6026  -13.2246  -48.3019 C.3       4 UNK        -0.1800 
     54 N           1.9669  -11.8660  -46.7942 N.am      4 UNK        -0.5000 
     55 C           3.1010  -11.3069  -46.3485 C.2       3 UNK         0.5000 
     56 O           4.1929  -11.8761  -46.3715 O.2       3 UNK        -0.5000 
     57 CA          2.9859   -9.9035  -45.7340 C.3       3 UNK         0.1400 
     58 CB          2.7855   -8.8410  -46.8263 C.3       3 UNK        -0.1800 
     59 N           1.8693   -9.8526  -44.7928 N.am      3 UNK        -0.5000 
     60 C           1.9754  -10.0410  -43.4697 C.2       2 UNK         0.5000 
     61 O           3.0475  -10.1883  -42.8818 O.2       2 UNK        -0.5000 
     62 CA          0.6604  -10.0860  -42.6634 C.3       2 UNK         0.1400 
     63 CB          0.2879   -8.6834  -42.1598 C.3       2 UNK        -0.1800 
     64 N          -0.4567  -10.6291  -43.4378 N.am      2 UNK        -0.5000 
     65 C          -0.5508  -11.9052  -43.8374 C.2       1 UNK         0.5000 
     66 O           0.2237  -12.7878  -43.4684 O.2       1 UNK        -0.5000 
     67 C          -3.5117  -23.1089  -44.5137 C.2       11 UNK         0.5000 
     68 O          -4.4045  -23.9518  -44.4232 O.2       11 UNK        -0.5000 
     69 N          -2.7124  -22.7747  -43.4897 N.am      12 UNK        -0.5000 
     70 CA         -2.7520  -23.4160  -42.1701 C.3       12 UNK         0.1400 
     71 CB         -1.8567  -22.6431  -41.1904 C.3       12 UNK        -0.1800 
     72 C          -2.3600  -24.9080  -42.2132 C.2       12 UNK         0.5000 
     73 O          -2.9341  -25.7098  -41.4760 O.2       12 UNK        -0.5000 
     74 N          -1.4265  -25.2584  -43.1080 N.am      13 UNK        -0.5000 
     75 CA         -1.0097  -26.6292  -43.4140 C.3       13 UNK         0.1400 
     76 CB          0.4078  -26.5903  -44.0092 C.3       13 UNK        -0.1800 
     77 C          -1.9793  -27.3767  -44.3577 C.2       13 UNK         0.5000 
     78 O          -1.7374  -28.5478  -44.6528 O.2       13 UNK        -0.5000 
     79 N          -3.0427  -26.6997  -44.8185 N.am      14 UNK        -0.5000 
     80 CA         -4.0816  -27.1713  -45.7407 C.3       14 UNK         0.1400 
     81 CB         -4.8682  -28.3554  -45.1402 C.3       14 UNK        -0.1800 
     82 C          -3.5683  -27.4464  -47.1714 C.2       14 UNK         0.5000 
     83 O          -4.1583  -28.2548  -47.8901 O.2       14 UNK        -0.5000 
     84 N          -2.5029  -26.7432  -47.5789 N.am      15 UNK        -0.5000 
     85 CA         -1.9296  -26.7854  -48.9267 C.3       15 UNK         0.1400 
     86 CB         -0.4086  -26.5818  -48.8299 C.3       15 UNK        -0.1800 
     87 C          -2.5652  -25.7470  -49.8751 C.2       15 UNK         0.5000 
     88 O          -2.2069  -25.7174  -51.0530 O.2       15 UNK        -0.5000 
     89 N          -3.4778  -24.9093  -49.3534 N.am      16 UNK        -0.5000 
     90 CA         -4.3022  -23.9234  -50.0691 C.3       16 UNK         0.1400 
     91 CB         -5.3583  -24.6457  -50.9306 C.3       16 UNK        -0.1800 
     92 C          -3.4793  -22.9004  -50.8812 C.2       16 UNK         0.5000 
     93 O          -3.8432  -22.5717  -52.0132 O.2       16 UNK        -0.5000 
     94 N          -2.3484  -22.4641  -50.3038 N.am      17 UNK        -0.5000 
     95 CA         -1.3469  -21.5644  -50.8927 C.3       17 UNK         0.1400 
     96 CB         -1.8952  -20.1271  -50.9914 C.3       17 UNK        -0.1800 
     97 C          -0.7711  -22.0905  -52.2257 C.2       17 UNK         0.5000 
     98 O          -0.4730  -21.3044  -53.1248 O.2       17 UNK        -0.5000 
     99 N          -0.6735  -23.4254  -52.3424 N.am      18 UNK        -0.5000 
    100 CA        -0.2634  -24.1901  -53.5261 C.3       18 UNK         0.1400 
    101 CB         1.2236  -23.9365  -53.8501 C.3       18 UNK        -0.1800 
    102 C         -1.1859  -23.9751  -54.7474 C.2       18 UNK         0.5000 
    103 O         -0.7527  -24.1804  -55.8824 O.2       18 UNK        -0.5000 
    104 N         -2.4354  -23.5542  -54.4911 N.am      19 UNK        -0.5000 
    105 CA        -3.4687  -23.1785  -55.4592 C.3       19 UNK         0.1400 
    106 CB        -3.9190  -24.3980  -56.2900 C.3       19 UNK        -0.1800 
    107 C         -3.0841  -21.9626  -56.3318 C.2       19 UNK         0.5000 
    108 O         -3.5988  -21.8211  -57.4433 O.2       19 UNK        -0.5000 
    109 N         -2.2091  -21.0840  -55.8173 N.am      20 UNK        -0.5000 
    110 CA        -1.7433  -19.8621  -56.4788 C.3       20 UNK         0.1400 
    111 CB        -0.4031  -19.4371  -55.8540 C.3       20 UNK        -0.1800 
    112 C         -2.8071  -18.7469  -56.4118 C.2       20 UNK         0.5000 
    113 O         -2.6141  -17.7411  -55.7275 O.2       20 UNK        -0.5000 
    114 N         -3.9396  -18.9819  -57.0876 N.am      21 UNK        -0.5000 
    115 CA        -5.1747  -18.1896  -57.1449 C.3       21 UNK         0.1400 
    116 CB        -4.9243  -16.7574  -57.6563 C.3       21 UNK        -0.1800 
    117 C         -5.9609  -18.1961  -55.8204 C.2       21 UNK         0.5000 
    118 O         -7.1377  -18.5591  -55.8191 O.2       21 UNK        -0.5000 
    119 N         -5.2971  -17.8261  -54.7207 N.am      22 UNK        -0.5000 
    120 CA        -5.8247  -17.8895  -53.3493 C.3       22 UNK         0.1400 
    121 C         -5.6976  -19.2920  -52.6807 C.2       22 UNK         0.5000 
    122 N         -4.9734  -20.2376  -53.2679 N.am      22 UNK        -0.7600 
    123 O         -6.2715  -19.5224  -51.6204 O.2       22 UNK        -0.5000 
    124 C124       -5.2318  -16.7585  -52.4687 C.3       23 UNK        -0.0398 
    125 S125       -3.4204  -16.8699  -52.2314 S.3       23 UNK        -0.2404 
    126 C126       -3.1747  -15.7863  -50.7809 C.3       23 UNK        -0.0205 
    127 H127       -3.4846   -9.2090  -46.7237 H         1 UNK         0.0600 
    128 H128       -2.3994   -9.2847  -48.1153 H         1 UNK         0.0600 
    129 H129       -2.0355   -8.1993  -46.7696 H         1 UNK         0.0600 
    130 H130       -3.2510  -10.9732  -45.3810 H         1 UNK         0.3000 
    131 H131       -1.1709  -12.8555  -45.6123 H         1 UNK         0.0600 
    132 H132       -2.2972  -13.9527  -43.6006 H         1 UNK         0.0800 
    133 H133       -3.3543  -12.5701  -43.4941 H         1 UNK         0.0800 
    134 H134       -2.9680  -16.0514  -44.8873 H         1 UNK         0.0800 
    135 H135       -1.8533  -15.1815  -45.9220 H         1 UNK         0.0800 
    136 H136       -2.5725  -14.7554  -48.3758 H         1 UNK         0.1150 
    137 H137       -4.5390  -18.1599  -50.1051 H         1 UNK         0.1150 
    138 H138       -4.3590  -17.7304  -45.8626 H         1 UNK         0.1150 
    139 H139       -5.9317  -19.3399  -46.9216 H         1 UNK         0.0800 
    140 H140       -6.0374  -19.4418  -48.6592 H         1 UNK         0.0800 
    141 H141       -5.0020  -21.1962  -45.6256 H         1 UNK         0.0800 
    142 H142       -3.4914  -20.3071  -45.6036 H         1 UNK         0.0800 
    143 H143       -3.6275  -23.1800  -46.6170 H         1 UNK         0.0600 
    144 H144       -1.4475  -21.3751  -46.2435 H         1 UNK         0.3000 
    145 H145        1.0794  -23.9683  -46.3030 H         1 UNK         0.0600 
    146 H146        1.9218  -22.5071  -48.0761 H         1 UNK         0.0600 
    147 H147        0.4635  -23.2947  -48.6588 H         1 UNK         0.0600 
    148 H148        0.4069  -21.6153  -48.1283 H         1 UNK         0.0600 
    149 H149        1.3386  -21.1648  -45.9286 H         1 UNK         0.3000 
    150 H150        1.0983  -21.1757  -42.3398 H         1 UNK         0.0600 
    151 H151        3.4410  -21.7980  -42.9579 H         1 UNK         0.0600 
    152 H152        3.2920  -20.0746  -42.6480 H         1 UNK         0.0600 
    153 H153        3.3949  -20.6657  -44.3045 H         1 UNK         0.0600 
    154 H154        1.5191  -19.0258  -44.1217 H         1 UNK         0.3000 
    155 H155       -1.9338  -18.1730  -44.6726 H         1 UNK         0.0600 
    156 H156        0.4404  -17.0060  -43.1222 H         1 UNK         0.0600 
    157 H157       -1.2485  -17.0181  -42.6537 H         1 UNK         0.0600 
    158 H158       -0.7112  -16.0020  -43.9834 H         1 UNK         0.0600 
    159 H159        0.3818  -17.0637  -45.8366 H         1 UNK         0.3000 
    160 H160        0.6927  -19.2685  -48.6425 H         1 UNK         0.0600 
    161 H161        0.6016  -17.0317  -49.7747 H         1 UNK         0.0600 
    162 H162       -0.2533  -16.3718  -48.3783 H         1 UNK         0.0600 
    163 H163       -0.9886  -17.6394  -49.3461 H         1 UNK         0.0600 
    164 H164        2.1212  -16.9532  -47.6589 H         1 UNK         0.3000 
    165 H165        4.5744  -18.7935  -45.8270 H         1 UNK         0.0600 
    166 H166        6.0817  -17.5506  -47.3539 H         1 UNK         0.0600 
    167 H167        5.3331  -18.8918  -48.2054 H         1 UNK         0.0600 
    168 H168        4.7523  -17.2527  -48.4742 H         1 UNK         0.0600 
    169 H169        4.2218  -16.0034  -46.3973 H         1 UNK         0.3000 
    170 H170        2.0233  -15.2275  -43.7391 H         1 UNK         0.0600 
    171 H171        4.1989  -15.3933  -42.5192 H         1 UNK         0.0600 
    172 H172        5.0350  -14.6751  -43.8921 H         1 UNK         0.0600 
    173 H173        3.8489  -13.7356  -42.9852 H         1 UNK         0.0600 
    174 H174        3.4949  -13.5498  -45.4961 H         1 UNK         0.3000 
    175 H175        2.7134  -13.3850  -48.0130 H         1 UNK         0.0600 
    176 H176       -0.3237  -13.1001  -47.7421 H         1 UNK         0.0600 
    177 H177        0.6493  -12.4302  -49.0468 H         1 UNK         0.0600 
    178 H178        0.5356  -14.1682  -48.8433 H         1 UNK         0.0600 
    179 H179        1.1054  -11.3279  -46.7265 H         1 UNK         0.3000 
    180 H180        3.9230   -9.6810  -45.2191 H         1 UNK         0.0600 
    181 H181        1.8624   -8.9987  -47.3853 H         1 UNK         0.0600 
    182 H182        3.6091   -8.8573  -47.5412 H         1 UNK         0.0600 
    183 H183        2.7478   -7.8399  -46.3967 H         1 UNK         0.0600 
    184 H184        0.9452   -9.7943  -45.2050 H         1 UNK         0.3000 
    185 H185        0.8226  -10.7299  -41.7964 H         1 UNK         0.0600 
    186 H186        1.0925   -8.2588  -41.5579 H         1 UNK         0.0600 
    187 H187        0.0974   -7.9960  -42.9850 H         1 UNK         0.0600 
    188 H188       -0.6040   -8.7129  -41.5335 H         1 UNK         0.0600 
    189 H189       -1.1400   -9.9693  -43.7797 H         1 UNK         0.3000 
    190 H190       -2.0331  -22.0282  -43.6139 H         1 UNK         0.3000 
    191 H191       -3.7791  -23.3575  -41.8040 H         1 UNK         0.0600 
    192 H192       -1.9002  -23.0818  -40.1928 H         1 UNK         0.0600 
    193 H193       -2.1736  -21.6038  -41.1028 H         1 UNK         0.0600 
    194 H194       -0.8137  -22.6491  -41.5057 H         1 UNK         0.0600 
    195 H195       -0.9549  -24.5233  -43.6240 H         1 UNK         0.3000 
    196 H196       -0.9678  -27.1961  -42.4818 H         1 UNK         0.0600 
    197 H197        0.7881  -27.5967  -44.1877 H         1 UNK         0.0600 
    198 H198        1.1059  -26.0961  -43.3333 H         1 UNK         0.0600 
    199 H199        0.4304  -26.0585  -44.9603 H         1 UNK         0.0600 
    200 H200       -3.1434  -25.7366  -44.5234 H         1 UNK         0.3000 
    201 H201       -4.7820  -26.3411  -45.8391 H         1 UNK         0.0600 
    202 H202       -5.2185  -28.1258  -44.1338 H         1 UNK         0.0600 
    203 H203       -4.2639  -29.2613  -45.0878 H         1 UNK         0.0600 
    204 H204       -5.7474  -28.5863  -45.7426 H         1 UNK         0.0600 
    205 H205       -2.0796  -26.0725  -46.9390 H         1 UNK         0.3000 
    206 H206       -2.1054  -27.7699  -49.3647 H         1 UNK         0.0600 
    207 H207        0.0457  -27.3219  -48.1709 H         1 UNK         0.0600 
    208 H208        0.0639  -26.6848  -49.8075 H         1 UNK         0.0600 
    209 H209       -0.1546  -25.5948  -48.4473 H         1 UNK         0.0600 
    210 H210       -3.6702  -25.0081  -48.3680 H         1 UNK         0.3000 
    211 H211       -4.8354  -23.3526  -49.3084 H         1 UNK         0.0600 
    212 H212       -4.8993  -25.2045  -51.7471 H         1 UNK         0.0600 
    213 H213       -6.0571  -23.9343  -51.3726 H         1 UNK         0.0600 
    214 H214       -5.9436  -25.3447  -50.3333 H         1 UNK         0.0600 
    215 H215       -2.1486  -22.7932  -49.3711 H         1 UNK         0.3000 
    216 H216       -0.5055  -21.5379  -50.2039 H         1 UNK         0.0600 
    217 H217       -1.1245  -19.4312  -51.3241 H         1 UNK         0.0600 
    218 H218       -2.2500  -19.7746  -50.0229 H         1 UNK         0.0600 
    219 H219       -2.7228  -20.0560  -51.6954 H         1 UNK         0.0600 
    220 H220       -1.0274  -23.9939  -51.5818 H         1 UNK         0.3000 
    221 H221       -0.3671  -25.2416  -53.2549 H         1 UNK         0.0600 
    222 H222        1.3930  -22.9202  -54.2072 H         1 UNK         0.0600 
    223 H223        1.8508  -24.0934  -52.9726 H         1 UNK         0.0600 
    224 H224        1.5773  -24.6172  -54.6252 H         1 UNK         0.0600 
    225 H225       -2.6909  -23.3944  -53.5220 H         1 UNK         0.3000 
    226 H226       -4.3258  -22.8569  -54.8661 H         1 UNK         0.0600 
    227 H227       -4.7971  -24.1592  -56.8910 H         1 UNK         0.0600 
    228 H228       -3.1392  -24.7351  -56.9732 H         1 UNK         0.0600 
    229 H229       -4.1875  -25.2356  -55.6462 H         1 UNK         0.0600 
    230 H230       -1.8174  -21.2660  -54.9002 H         1 UNK         0.3000 
    231 H231       -1.5604  -20.0805  -57.5330 H         1 UNK         0.0600 
    232 H232        0.3373  -20.2340  -55.9274 H         1 UNK         0.0600 
    233 H233       -0.5130  -19.1803  -54.7996 H         1 UNK         0.0600 
    234 H234        0.0055  -18.5636  -56.3633 H         1 UNK         0.0600 
    235 H235       -3.9964  -19.8874  -57.5457 H         1 UNK         0.3000 
    236 H236       -5.8038  -18.6882  -57.8840 H         1 UNK         0.0600 
    237 H237       -4.4071  -16.7670  -58.6156 H         1 UNK         0.0600 
    238 H238       -5.8675  -16.2292  -57.8007 H         1 UNK         0.0600 
    239 H239       -4.3282  -16.1676  -56.9598 H         1 UNK         0.0600 
    240 H240       -4.3171  -17.5733  -54.8162 H         1 UNK         0.3000 
    241 H241       -6.8982  -17.6995  -53.4036 H         1 UNK         0.0600 
    242 H242       -4.8238  -21.1247  -52.7968 H         1 UNK         0.3800 
    243 H243       -4.4953  -20.0353  -54.1276 H         1 UNK         0.3800 
    244 H244       -5.4500  -15.7923  -52.9251 H         1 UNK         0.0800 
    245 H245       -5.7313  -16.7384  -51.4995 H         1 UNK         0.0800 
    246 H246       -3.7404  -14.8651  -50.9264 H         1 UNK         0.0800 
    247 H247       -2.1221  -15.4994  -50.7671 H         1 UNK         0.0800 
@<TRIPOS>BOND
     1    1    2 1    
     2    1  127 1    
     3    1  128 1    
     4    1  129 1    
     5    2    3 2    
     6    2    4 am   BACKBONE|DICT|INTERRES
     7    4    5 1    
     8    4  130 1    
     9    5    6 1    
    10    5   65 1    
    11    5  131 1    
    12    6    7 1    
    13    6  132 1    
    14    6  133 1    
    15    7    8 1    
    16    8    9 1    
    17    8  134 1    
    18    8  135 1    
    19    9   10 ar   
    20    9   14 ar   
    21   10   11 ar   
    22   10  136 1    
    23   11   12 ar   
    24   11  126 1    
    25   12   13 ar   
    26   12  137 1    
    27   13   14 ar   
    28   13   15 1    
    29   14  138 1    
    30   15   16 1    
    31   15  139 1    
    32   15  140 1    
    33   16   17 1    
    34   17   18 1    
    35   17  141 1    
    36   17  142 1    
    37   18   19 1    
    38   18   67 1    
    39   18  143 1    
    40   19   20 am   BACKBONE|DICT|INTERRES
    41   19  144 1    
    42   20   21 2    
    43   20   22 1    
    44   22   23 1    
    45   22   24 1    
    46   22  145 1    
    47   23  146 1    
    48   23  147 1    
    49   23  148 1    
    50   24   25 am   BACKBONE|DICT|INTERRES
    51   24  149 1    
    52   25   26 2    
    53   25   27 1    
    54   27   28 1    
    55   27   29 1    
    56   27  150 1    
    57   28  151 1    
    58   28  152 1    
    59   28  153 1    
    60   29   30 am   BACKBONE|DICT|INTERRES
    61   29  154 1    
    62   30   31 2    
    63   30   32 1    
    64   32   33 1    
    65   32   34 1    
    66   32  155 1    
    67   33  156 1    
    68   33  157 1    
    69   33  158 1    
    70   34   35 am   BACKBONE|DICT|INTERRES
    71   34  159 1    
    72   35   36 2    
    73   35   37 1    
    74   37   38 1    
    75   37   39 1    
    76   37  160 1    
    77   38  161 1    
    78   38  162 1    
    79   38  163 1    
    80   39   40 am   BACKBONE|DICT|INTERRES
    81   39  164 1    
    82   40   41 2    
    83   40   42 1    
    84   42   43 1    
    85   42   44 1    
    86   42  165 1    
    87   43  166 1    
    88   43  167 1    
    89   43  168 1    
    90   44   45 am   BACKBONE|DICT|INTERRES
    91   44  169 1    
    92   45   46 2    
    93   45   47 1    
    94   47   48 1    
    95   47   49 1    
    96   47  170 1    
    97   48  171 1    
    98   48  172 1    
    99   48  173 1    
   100   49   50 am   BACKBONE|DICT|INTERRES
   101   49  174 1    
   102   50   51 2    
   103   50   52 1    
   104   52   53 1    
   105   52   54 1    
   106   52  175 1    
   107   53  176 1    
   108   53  177 1    
   109   53  178 1    
   110   54   55 am   BACKBONE|DICT|INTERRES
   111   54  179 1    
   112   55   56 2    
   113   55   57 1    
   114   57   58 1    
   115   57   59 1    
   116   57  180 1    
   117   58  181 1    
   118   58  182 1    
   119   58  183 1    
   120   59   60 am   BACKBONE|DICT|INTERRES
   121   59  184 1    
   122   60   61 2    
   123   60   62 1    
   124   62   63 1    
   125   62   64 1    
   126   62  185 1    
   127   63  186 1    
   128   63  187 1    
   129   63  188 1    
   130   64   65 am   BACKBONE|DICT|INTERRES
   131   64  189 1    
   132   65   66 2    
   133   67   68 2    
   134   67   69 am   BACKBONE|DICT|INTERRES
   135   69   70 1    
   136   69  190 1    
   137   70   71 1    
   138   70   72 1    
   139   70  191 1    
   140   71  192 1    
   141   71  193 1    
   142   71  194 1    
   143   72   73 2    
   144   72   74 am   BACKBONE|DICT|INTERRES
   145   74   75 1    
   146   74  195 1    
   147   75   76 1    
   148   75   77 1    
   149   75  196 1    
   150   76  197 1    
   151   76  198 1    
   152   76  199 1    
   153   77   78 2    
   154   77   79 am   BACKBONE|DICT|INTERRES
   155   79   80 1    
   156   79  200 1    
   157   80   81 1    
   158   80   82 1    
   159   80  201 1    
   160   81  202 1    
   161   81  203 1    
   162   81  204 1    
   163   82   83 2    
   164   82   84 am   BACKBONE|DICT|INTERRES
   165   84   85 1    
   166   84  205 1    
   167   85   86 1    
   168   85   87 1    
   169   85  206 1    
   170   86  207 1    
   171   86  208 1    
   172   86  209 1    
   173   87   88 2    
   174   87   89 am   BACKBONE|DICT|INTERRES
   175   89   90 1    
   176   89  210 1    
   177   90   91 1    
   178   90   92 1    
   179   90  211 1    
   180   91  212 1    
   181   91  213 1    
   182   91  214 1    
   183   92   93 2    
   184   92   94 am   BACKBONE|DICT|INTERRES
   185   94   95 1    
   186   94  215 1    
   187   95   96 1    
   188   95   97 1    
   189   95  216 1    
   190   96  217 1    
   191   96  218 1    
   192   96  219 1    
   193   97   98 2    
   194   97   99 am   BACKBONE|DICT|INTERRES
   195   99  100 1    
   196   99  220 1    
   197  100  101 1    
   198  100  102 1    
   199  100  221 1    
   200  101  222 1    
   201  101  223 1    
   202  101  224 1    
   203  102  103 2    
   204  102  104 am   BACKBONE|DICT|INTERRES
   205  104  105 1    
   206  104  225 1    
   207  105  106 1    
   208  105  107 1    
   209  105  226 1    
   210  106  227 1    
   211  106  228 1    
   212  106  229 1    
   213  107  108 2    
   214  107  109 am   BACKBONE|DICT|INTERRES
   215  109  110 1    
   216  109  230 1    
   217  110  111 1    
   218  110  112 1    
   219  110  231 1    
   220  111  232 1    
   221  111  233 1    
   222  111  234 1    
   223  112  113 2    
   224  112  114 am   BACKBONE|DICT|INTERRES
   225  114  115 1    
   226  114  235 1    
   227  115  116 1    
   228  115  117 1    
   229  115  236 1    
   230  116  237 1    
   231  116  238 1    
   232  116  239 1    
   233  117  118 2    
   234  117  119 am   BACKBONE|DICT|INTERRES
   235  119  120 1    
   236  119  240 1    
   237  120  121 1    
   238  120  124 1    
   239  120  241 1    
   240  121  122 am   BACKBONE|DICT|INTERRES
   241  121  123 2    
   242  122  242 1    
   243  122  243 1    
   244  124  125 1    
   245  124  244 1    
   246  124  245 1    
   247  125  126 1    
   248  126  246 1    
   249  126  247 1    
@<TRIPOS>SUBSTRUCTURE
     1 UNK         1 GROUP             0       ****    0 ROOT    
