@<TRIPOS>MOLECULE
3R540
247   249    1
SMALL
USER_CHARGES


@<TRIPOS>ATOM
      1 CA         -1.5011  -13.1804  -50.8271 C.3       0 UNK        -0.1800 
      2 C          -1.1905  -13.4555  -49.3637 C.2       0 UNK         0.5000 
      3 O          -0.3394  -14.2917  -49.0527 O.2       0 UNK        -0.5000 
      4 N          -1.8501  -12.7081  -48.4710 N.am      1 UNK        -0.5000 
      5 CA         -1.6710  -12.7254  -47.0124 C.3       1 UNK         0.1400 
      6 C6         -2.7877  -11.9053  -46.3120 C.3       23 UNK        -0.0398 
      7 S7         -4.3002  -12.8483  -45.9196 S.3       23 UNK        -0.2404 
      8 C8         -4.9596  -13.3956  -47.5367 C.3       23 UNK        -0.0205 
      9 C9         -4.7167  -14.8740  -47.8508 C.ar      23 UNK        -0.0193 
     10 C10        -4.5803  -15.2886  -49.1821 C.ar      23 UNK        -0.1150 
     11 C11        -4.4166  -16.6428  -49.4976 C.ar      23 UNK        -0.0193 
     12 C12        -4.3782  -17.5846  -48.4660 C.ar      23 UNK        -0.1150 
     13 C13        -4.5184  -17.1917  -47.1333 C.ar      23 UNK        -0.0193 
     14 C14        -4.6945  -15.8394  -46.8352 C.ar      23 UNK        -0.1150 
     15 C15        -4.4400  -18.2204  -46.0143 C.3       23 UNK        -0.0205 
     16 S16        -5.7219  -19.5081  -46.1389 S.3       23 UNK        -0.2404 
     17 C17        -4.9507  -20.8008  -45.1022 C.3       23 UNK        -0.0398 
     18 CA         -4.3031  -21.9427  -45.9274 C.3       11 UNK         0.1400 
     19 N          -3.4655  -21.4449  -47.0259 N.am      11 UNK        -0.5000 
     20 C          -2.8742  -22.2025  -47.9563 C.2       10 UNK         0.5000 
     21 O          -2.9650  -23.4266  -48.0003 O.2       10 UNK        -0.5000 
     22 CA         -2.0155  -21.4874  -49.0067 C.3       10 UNK         0.1400 
     23 CB         -2.9047  -21.1134  -50.2021 C.3       10 UNK        -0.1800 
     24 N          -1.2991  -20.2974  -48.5371 N.am      10 UNK        -0.5000 
     25 C          -0.5478  -20.1793  -47.4321 C.2       9 UNK         0.5000 
     26 O          -0.4451  -21.0557  -46.5687 O.2       9 UNK        -0.5000 
     27 CA          0.1630  -18.8252  -47.2590 C.3       9 UNK         0.1400 
     28 CB         -0.8545  -17.7061  -46.9864 C.3       9 UNK        -0.1800 
     29 N           1.1352  -18.8523  -46.1704 N.am      9 UNK        -0.5000 
     30 C           2.3622  -19.3845  -46.2524 C.2       8 UNK         0.5000 
     31 O           2.8264  -19.8624  -47.2876 O.2       8 UNK        -0.5000 
     32 CA          3.2262  -19.3729  -44.9763 C.3       8 UNK         0.1400 
     33 CB          4.6082  -18.7498  -45.2399 C.3       8 UNK        -0.1800 
     34 N           2.5768  -18.6385  -43.8881 N.am      8 UNK        -0.5000 
     35 C           2.0935  -19.1954  -42.7693 C.2       7 UNK         0.5000 
     36 O           2.1871  -20.3943  -42.5061 O.2       7 UNK        -0.5000 
     37 CA          1.3778  -18.2665  -41.7701 C.3       7 UNK         0.1400 
     38 CB          2.3297  -17.8755  -40.6305 C.3       7 UNK        -0.1800 
     39 N           0.8234  -17.0608  -42.3948 N.am      7 UNK        -0.5000 
     40 C          -0.2709  -17.0642  -43.1714 C.2       6 UNK         0.5000 
     41 O          -0.8959  -18.0929  -43.4310 O.2       6 UNK        -0.5000 
     42 CA         -0.7337  -15.7391  -43.8133 C.3       6 UNK         0.1400 
     43 CB         -2.2498  -15.5092  -43.6625 C.3       6 UNK        -0.1800 
     44 N           0.0286  -14.5574  -43.4178 N.am      6 UNK        -0.5000 
     45 C           0.0607  -13.9203  -42.2417 C.2       5 UNK         0.5000 
     46 O          -0.6070  -14.2394  -41.2569 O.2       5 UNK        -0.5000 
     47 CA          1.0695  -12.7515  -42.1750 C.3       5 UNK         0.1400 
     48 CB          1.2830  -12.2140  -40.7444 C.3       5 UNK        -0.1800 
     49 N           2.3552  -13.0995  -42.8025 N.am      5 UNK        -0.5000 
     50 C           3.1502  -14.1251  -42.4585 C.2       4 UNK         0.5000 
     51 O           2.9091  -14.8832  -41.5199 O.2       4 UNK        -0.5000 
     52 CA          4.3956  -14.3616  -43.3358 C.3       4 UNK         0.1400 
     53 CB          5.1095  -15.6918  -43.0146 C.3       4 UNK        -0.1800 
     54 N           4.1137  -14.2696  -44.7719 N.am      4 UNK        -0.5000 
     55 C           3.2707  -15.0160  -45.4989 C.2       3 UNK         0.5000 
     56 O           2.5243  -15.8776  -45.0262 O.2       3 UNK        -0.5000 
     57 CA          3.2654  -14.7183  -47.0146 C.3       3 UNK         0.1400 
     58 CB          2.6998  -15.8814  -47.8457 C.3       3 UNK        -0.1800 
     59 N           2.5057  -13.5084  -47.3236 N.am      3 UNK        -0.5000 
     60 C           2.8708  -12.2535  -47.0217 C.2       2 UNK         0.5000 
     61 O           3.9596  -11.9661  -46.5217 O.2       2 UNK        -0.5000 
     62 CA          1.8547  -11.1260  -47.3050 C.3       2 UNK         0.1400 
     63 CB          2.2766  -10.3240  -48.5456 C.3       2 UNK        -0.1800 
     64 N           0.4772  -11.5887  -47.4922 N.am      2 UNK        -0.5000 
     65 C          -0.2714  -12.2227  -46.5772 C.2       1 UNK         0.5000 
     66 O           0.1177  -12.4371  -45.4298 O.2       1 UNK        -0.5000 
     67 C          -3.5421  -22.9101  -44.9950 C.2       11 UNK         0.5000 
     68 O          -4.1468  -23.8461  -44.4719 O.2       11 UNK        -0.5000 
     69 N          -2.2330  -22.6771  -44.8316 N.am      12 UNK        -0.5000 
     70 CA         -1.3202  -23.5309  -44.0788 C.3       12 UNK         0.1400 
     71 CB         -0.3973  -22.6428  -43.2290 C.3       12 UNK        -0.1800 
     72 C          -0.4909  -24.4171  -45.0226 C.2       12 UNK         0.5000 
     73 O          -0.3075  -25.6003  -44.7367 O.2       12 UNK        -0.5000 
     74 N           0.0049  -23.8313  -46.1217 N.am      13 UNK        -0.5000 
     75 CA          0.9552  -24.4612  -47.0391 C.3       13 UNK         0.1400 
     76 CB          1.6192  -23.3706  -47.8940 C.3       13 UNK        -0.1800 
     77 C           0.3502  -25.5519  -47.9417 C.2       13 UNK         0.5000 
     78 O           1.0728  -26.4720  -48.3268 O.2       13 UNK        -0.5000 
     79 N          -0.9378  -25.4275  -48.2844 N.am      14 UNK        -0.5000 
     80 CA         -1.6247  -26.2873  -49.2512 C.3       14 UNK         0.1400 
     81 CB         -1.6123  -25.5901  -50.6257 C.3       14 UNK        -0.1800 
     82 C          -3.0579  -26.6413  -48.8157 C.2       14 UNK         0.5000 
     83 O          -3.8260  -27.1337  -49.6409 O.2       14 UNK        -0.5000 
     84 N          -3.4215  -26.3503  -47.5565 N.am      15 UNK        -0.5000 
     85 CA         -4.7624  -26.5053  -46.9706 C.3       15 UNK         0.1400 
     86 CB         -5.0921  -27.9998  -46.7760 C.3       15 UNK        -0.1800 
     87 C          -5.8690  -25.7459  -47.7442 C.2       15 UNK         0.5000 
     88 O          -7.0145  -26.1974  -47.7883 O.2       15 UNK        -0.5000 
     89 N          -5.4890  -24.6143  -48.3564 N.am      16 UNK        -0.5000 
     90 CA         -6.2829  -23.7404  -49.2265 C.3       16 UNK         0.1400 
     91 CB         -7.4434  -23.0853  -48.4474 C.3       16 UNK        -0.1800 
     92 C          -6.7498  -24.4097  -50.5396 C.2       16 UNK         0.5000 
     93 O          -7.7405  -23.9665  -51.1232 O.2       16 UNK        -0.5000 
     94 N          -6.0365  -25.4499  -51.0011 N.am      17 UNK        -0.5000 
     95 CA         -6.3660  -26.1968  -52.2203 C.3       17 UNK         0.1400 
     96 CB         -5.5387  -27.4890  -52.2733 C.3       17 UNK        -0.1800 
     97 C          -6.1810  -25.3937  -53.5228 C.2       17 UNK         0.5000 
     98 O          -6.8837  -25.6650  -54.4978 O.2       17 UNK        -0.5000 
     99 N          -5.2560  -24.4263  -53.5246 N.am      18 UNK        -0.5000 
    100 CA        -4.9850  -23.5355  -54.6470 C.3       18 UNK         0.1400 
    101 CB        -4.0213  -24.2106  -55.6387 C.3       18 UNK        -0.1800 
    102 C         -4.3848  -22.2310  -54.1140 C.2       18 UNK         0.5000 
    103 O         -3.5461  -22.2720  -53.2118 O.2       18 UNK        -0.5000 
    104 N         -4.7854  -21.1010  -54.7106 N.am      19 UNK        -0.5000 
    105 CA        -4.3005  -19.7587  -54.3700 C.3       19 UNK         0.1400 
    106 CB        -5.2397  -18.7124  -54.9883 C.3       19 UNK        -0.1800 
    107 C         -2.8423  -19.5001  -54.7989 C.2       19 UNK         0.5000 
    108 O         -2.2224  -18.5640  -54.3005 O.2       19 UNK        -0.5000 
    109 N         -2.2949  -20.3476  -55.6813 N.am      20 UNK        -0.5000 
    110 CA        -0.8996  -20.3139  -56.1313 C.3       20 UNK         0.1400 
    111 CB        -0.7096  -21.3800  -57.2214 C.3       20 UNK        -0.1800 
    112 C          0.1329  -20.5106  -54.9993 C.2       20 UNK         0.5000 
    113 O          1.2915  -20.1285  -55.1659 O.2       20 UNK        -0.5000 
    114 N         -0.3022  -21.0970  -53.8756 N.am      21 UNK        -0.5000 
    115 CA         0.5048  -21.3162  -52.6794 C.3       21 UNK         0.1400 
    116 CB         0.0048  -22.5923  -51.9820 C.3       21 UNK        -0.1800 
    117 C          0.5413  -20.1082  -51.7163 C.2       21 UNK         0.5000 
    118 O          1.2866  -20.1724  -50.7398 O.2       21 UNK        -0.5000 
    119 N         -0.2359  -19.0424  -51.9718 N.am      22 UNK        -0.5000 
    120 CA        -0.1522  -17.7647  -51.2394 C.3       22 UNK         0.1400 
    121 C          0.5685  -16.6549  -52.0570 C.2       22 UNK         0.5000 
    122 N          0.8339  -15.5020  -51.4566 N.am      22 UNK        -0.7600 
    123 O          0.9198  -16.8281  -53.2221 O.2       22 UNK        -0.5000 
    124 C124       -1.5151  -17.3350  -50.6249 C.3       23 UNK        -0.0398 
    125 S125       -2.7605  -16.6389  -51.7597 S.3       23 UNK        -0.2404 
    126 C126       -4.3242  -17.1046  -50.9491 C.3       23 UNK        -0.0205 
    127 H127       -2.4246  -12.6137  -50.9456 H         1 UNK         0.0600 
    128 H128       -1.6076  -14.1102  -51.3783 H         1 UNK         0.0600 
    129 H129       -0.6891  -12.6121  -51.2797 H         1 UNK         0.0600 
    130 H130       -2.5168  -12.0316  -48.8129 H         1 UNK         0.3000 
    131 H131       -1.7341  -13.7644  -46.6808 H         1 UNK         0.0600 
    132 H132       -3.0551  -11.0221  -46.8940 H         1 UNK         0.0800 
    133 H133       -2.4454  -11.5182  -45.3500 H         1 UNK         0.0800 
    134 H134       -4.5720  -12.7590  -48.3316 H         1 UNK         0.0800 
    135 H135       -6.0383  -13.2362  -47.5274 H         1 UNK         0.0800 
    136 H136       -4.6180  -14.5600  -49.9797 H         1 UNK         0.1150 
    137 H137       -4.2549  -18.6313  -48.6959 H         1 UNK         0.1150 
    138 H138       -4.8177  -15.5427  -45.8039 H         1 UNK         0.1150 
    139 H139       -3.4553  -18.6837  -46.0412 H         1 UNK         0.0800 
    140 H140       -4.5271  -17.7421  -45.0377 H         1 UNK         0.0800 
    141 H141       -5.7250  -21.2093  -44.4505 H         1 UNK         0.0800 
    142 H142       -4.2192  -20.3373  -44.4370 H         1 UNK         0.0800 
    143 H143       -5.1081  -22.5188  -46.3841 H         1 UNK         0.0600 
    144 H144       -3.3445  -20.4461  -47.0741 H         1 UNK         0.3000 
    145 H145       -1.2631  -22.2007  -49.3439 H         1 UNK         0.0600 
    146 H146       -2.3365  -20.6577  -51.0111 H         1 UNK         0.0600 
    147 H147       -3.3874  -22.0017  -50.6107 H         1 UNK         0.0600 
    148 H148       -3.6971  -20.4211  -49.9226 H         1 UNK         0.0600 
    149 H149       -1.2936  -19.5261  -49.1836 H         1 UNK         0.3000 
    150 H150        0.6885  -18.6019  -48.1886 H         1 UNK         0.0600 
    151 H151       -1.6419  -17.6806  -47.7363 H         1 UNK         0.0600 
    152 H152       -0.3839  -16.7250  -46.9985 H         1 UNK         0.0600 
    153 H153       -1.3366  -17.8342  -46.0195 H         1 UNK         0.0600 
    154 H154        0.8084  -18.5528  -45.2638 H         1 UNK         0.3000 
    155 H155        3.3792  -20.4173  -44.6978 H         1 UNK         0.0600 
    156 H156        4.5290  -17.7190  -45.5832 H         1 UNK         0.0600 
    157 H157        5.1518  -19.3078  -46.0030 H         1 UNK         0.0600 
    158 H158        5.2207  -18.7564  -44.3383 H         1 UNK         0.0600 
    159 H159        2.4581  -17.6406  -44.0407 H         1 UNK         0.3000 
    160 H160        0.5508  -18.8298  -41.3323 H         1 UNK         0.0600 
    161 H161        3.2421  -17.4138  -41.0081 H         1 UNK         0.0600 
    162 H162        2.6266  -18.7537  -40.0561 H         1 UNK         0.0600 
    163 H163        1.8580  -17.1773  -39.9387 H         1 UNK         0.0600 
    164 H164        1.3149  -16.1907  -42.2258 H         1 UNK         0.3000 
    165 H165       -0.5294  -15.8422  -44.8772 H         1 UNK         0.0600 
    166 H166       -2.5531  -15.4684  -42.6163 H         1 UNK         0.0600 
    167 H167       -2.5559  -14.5786  -44.1390 H         1 UNK         0.0600 
    168 H168       -2.8137  -16.3138  -44.1334 H         1 UNK         0.0600 
    169 H169        0.6126  -14.1715  -44.1495 H         1 UNK         0.3000 
    170 H170        0.6415  -11.9426  -42.7687 H         1 UNK         0.0600 
    171 H171        0.3467  -11.8461  -40.3233 H         1 UNK         0.0600 
    172 H172        1.6623  -12.9841  -40.0721 H         1 UNK         0.0600 
    173 H173        1.9897  -11.3844  -40.7369 H         1 UNK         0.0600 
    174 H174        2.6141  -12.5475  -43.6080 H         1 UNK         0.3000 
    175 H175        5.0887  -13.5516  -43.1048 H         1 UNK         0.0600 
    176 H176        4.4528  -16.5487  -43.1614 H         1 UNK         0.0600 
    177 H177        5.9884  -15.8317  -43.6438 H         1 UNK         0.0600 
    178 H178        5.4462  -15.7144  -41.9775 H         1 UNK         0.0600 
    179 H179        4.5921  -13.5210  -45.2615 H         1 UNK         0.3000 
    180 H180        4.3009  -14.5669  -47.3265 H         1 UNK         0.0600 
    181 H181        1.6476  -16.0530  -47.6291 H         1 UNK         0.0600 
    182 H182        3.2364  -16.8082  -47.6414 H         1 UNK         0.0600 
    183 H183        2.7899  -15.6834  -48.9139 H         1 UNK         0.0600 
    184 H184        1.5914  -13.6511  -47.7322 H         1 UNK         0.3000 
    185 H185        1.8664  -10.4573  -46.4420 H         1 UNK         0.0600 
    186 H186        2.2603  -10.9394  -49.4461 H         1 UNK         0.0600 
    187 H187        1.6171   -9.4713  -48.7083 H         1 UNK         0.0600 
    188 H188        3.2886   -9.9323  -48.4338 H         1 UNK         0.0600 
    189 H189        0.0832  -11.4602  -48.4122 H         1 UNK         0.3000 
    190 H190       -1.8063  -21.9117  -45.3427 H         1 UNK         0.3000 
    191 H191       -1.8764  -24.1842  -43.4031 H         1 UNK         0.0600 
    192 H192        0.3087  -23.2447  -42.6555 H         1 UNK         0.0600 
    193 H193       -0.9697  -22.0471  -42.5179 H         1 UNK         0.0600 
    194 H194        0.1831  -21.9548  -43.8456 H         1 UNK         0.0600 
    195 H195       -0.1756  -22.8419  -46.2737 H         1 UNK         0.3000 
    196 H196        1.7354  -24.9345  -46.4392 H         1 UNK         0.0600 
    197 H197        0.8923  -22.8378  -48.5065 H         1 UNK         0.0600 
    198 H198        2.1288  -22.6365  -47.2697 H         1 UNK         0.0600 
    199 H199        2.3643  -23.7970  -48.5666 H         1 UNK         0.0600 
    200 H200       -1.4742  -24.6349  -47.9451 H         1 UNK         0.3000 
    201 H201       -1.1019  -27.2411  -49.3440 H         1 UNK         0.0600 
    202 H202       -2.1549  -24.6442  -50.5991 H         1 UNK         0.0600 
    203 H203       -2.0731  -26.2129  -51.3933 H         1 UNK         0.0600 
    204 H204       -0.5931  -25.3832  -50.9514 H         1 UNK         0.0600 
    205 H205       -2.7256  -25.9366  -46.9534 H         1 UNK         0.3000 
    206 H206       -4.7188  -26.0474  -45.9820 H         1 UNK         0.0600 
    207 H207       -4.3058  -28.5070  -46.2171 H         1 UNK         0.0600 
    208 H208       -6.0193  -28.1277  -46.2164 H         1 UNK         0.0600 
    209 H209       -5.2117  -28.5150  -47.7297 H         1 UNK         0.0600 
    210 H210       -4.5159  -24.3362  -48.2453 H         1 UNK         0.3000 
    211 H211       -5.6090  -22.9394  -49.5318 H         1 UNK         0.0600 
    212 H212       -7.9372  -22.3216  -49.0492 H         1 UNK         0.0600 
    213 H213       -7.0924  -22.5952  -47.5408 H         1 UNK         0.0600 
    214 H214       -8.2021  -23.8140  -48.1620 H         1 UNK         0.0600 
    215 H215       -5.2581  -25.8016  -50.4545 H         1 UNK         0.3000 
    216 H216       -7.4193  -26.4783  -52.1611 H         1 UNK         0.0600 
    217 H217       -4.4694  -27.2797  -52.3169 H         1 UNK         0.0600 
    218 H218       -5.7933  -28.0814  -53.1529 H         1 UNK         0.0600 
    219 H219       -5.7246  -28.1124  -51.3986 H         1 UNK         0.0600 
    220 H220       -4.7249  -24.2344  -52.6857 H         1 UNK         0.3000 
    221 H221       -5.9227  -23.3032  -55.1565 H         1 UNK         0.0600 
    222 H222       -4.4513  -25.1240  -56.0500 H         1 UNK         0.0600 
    223 H223       -3.0751  -24.4716  -55.1628 H         1 UNK         0.0600 
    224 H224       -3.7970  -23.5522  -56.4785 H         1 UNK         0.0600 
    225 H225       -5.4697  -21.1528  -55.4519 H         1 UNK         0.3000 
    226 H226       -4.3384  -19.6489  -53.2839 H         1 UNK         0.0600 
    227 H227       -5.2513  -18.7748  -56.0770 H         1 UNK         0.0600 
    228 H228       -6.2621  -18.8396  -54.6317 H         1 UNK         0.0600 
    229 H229       -4.9277  -17.7018  -54.7198 H         1 UNK         0.0600 
    230 H230       -2.8711  -21.0893  -56.0487 H         1 UNK         0.3000 
    231 H231       -0.7151  -19.3321  -56.5718 H         1 UNK         0.0600 
    232 H232       -0.9076  -22.3830  -56.8409 H         1 UNK         0.0600 
    233 H233        0.3115  -21.3700  -57.6052 H         1 UNK         0.0600 
    234 H234       -1.3741  -21.2036  -58.0674 H         1 UNK         0.0600 
    235 H235       -1.2712  -21.3817  -53.8233 H         1 UNK         0.3000 
    236 H236        1.5392  -21.4976  -52.9788 H         1 UNK         0.0600 
    237 H237        0.1728  -23.4670  -52.6104 H         1 UNK         0.0600 
    238 H238        0.5297  -22.7679  -51.0423 H         1 UNK         0.0600 
    239 H239       -1.0616  -22.5472  -51.7678 H         1 UNK         0.0600 
    240 H240       -0.7862  -19.0144  -52.8235 H         1 UNK         0.3000 
    241 H241        0.5125  -17.9063  -50.3873 H         1 UNK         0.0600 
    242 H242        1.3163  -14.7919  -51.9829 H         1 UNK         0.3800 
    243 H243        0.5188  -15.2894  -50.5158 H         1 UNK         0.3800 
    244 H244       -1.3476  -16.5922  -49.8455 H         1 UNK         0.0800 
    245 H245       -1.9657  -18.1877  -50.1230 H         1 UNK         0.0800 
    246 H246       -4.4464  -18.1864  -51.0190 H         1 UNK         0.0800 
    247 H247       -5.1513  -16.6719  -51.5134 H         1 UNK         0.0800 
@<TRIPOS>BOND
     1    1    2 1    
     2    1  127 1    
     3    1  128 1    
     4    1  129 1    
     5    2    3 2    
     6    2    4 am   BACKBONE|DICT|INTERRES
     7    4    5 1    
     8    4  130 1    
     9    5    6 1    
    10    5   65 1    
    11    5  131 1    
    12    6    7 1    
    13    6  132 1    
    14    6  133 1    
    15    7    8 1    
    16    8    9 1    
    17    8  134 1    
    18    8  135 1    
    19    9   10 ar   
    20    9   14 ar   
    21   10   11 ar   
    22   10  136 1    
    23   11   12 ar   
    24   11  126 1    
    25   12   13 ar   
    26   12  137 1    
    27   13   14 ar   
    28   13   15 1    
    29   14  138 1    
    30   15   16 1    
    31   15  139 1    
    32   15  140 1    
    33   16   17 1    
    34   17   18 1    
    35   17  141 1    
    36   17  142 1    
    37   18   19 1    
    38   18   67 1    
    39   18  143 1    
    40   19   20 am   BACKBONE|DICT|INTERRES
    41   19  144 1    
    42   20   21 2    
    43   20   22 1    
    44   22   23 1    
    45   22   24 1    
    46   22  145 1    
    47   23  146 1    
    48   23  147 1    
    49   23  148 1    
    50   24   25 am   BACKBONE|DICT|INTERRES
    51   24  149 1    
    52   25   26 2    
    53   25   27 1    
    54   27   28 1    
    55   27   29 1    
    56   27  150 1    
    57   28  151 1    
    58   28  152 1    
    59   28  153 1    
    60   29   30 am   BACKBONE|DICT|INTERRES
    61   29  154 1    
    62   30   31 2    
    63   30   32 1    
    64   32   33 1    
    65   32   34 1    
    66   32  155 1    
    67   33  156 1    
    68   33  157 1    
    69   33  158 1    
    70   34   35 am   BACKBONE|DICT|INTERRES
    71   34  159 1    
    72   35   36 2    
    73   35   37 1    
    74   37   38 1    
    75   37   39 1    
    76   37  160 1    
    77   38  161 1    
    78   38  162 1    
    79   38  163 1    
    80   39   40 am   BACKBONE|DICT|INTERRES
    81   39  164 1    
    82   40   41 2    
    83   40   42 1    
    84   42   43 1    
    85   42   44 1    
    86   42  165 1    
    87   43  166 1    
    88   43  167 1    
    89   43  168 1    
    90   44   45 am   BACKBONE|DICT|INTERRES
    91   44  169 1    
    92   45   46 2    
    93   45   47 1    
    94   47   48 1    
    95   47   49 1    
    96   47  170 1    
    97   48  171 1    
    98   48  172 1    
    99   48  173 1    
   100   49   50 am   BACKBONE|DICT|INTERRES
   101   49  174 1    
   102   50   51 2    
   103   50   52 1    
   104   52   53 1    
   105   52   54 1    
   106   52  175 1    
   107   53  176 1    
   108   53  177 1    
   109   53  178 1    
   110   54   55 am   BACKBONE|DICT|INTERRES
   111   54  179 1    
   112   55   56 2    
   113   55   57 1    
   114   57   58 1    
   115   57   59 1    
   116   57  180 1    
   117   58  181 1    
   118   58  182 1    
   119   58  183 1    
   120   59   60 am   BACKBONE|DICT|INTERRES
   121   59  184 1    
   122   60   61 2    
   123   60   62 1    
   124   62   63 1    
   125   62   64 1    
   126   62  185 1    
   127   63  186 1    
   128   63  187 1    
   129   63  188 1    
   130   64   65 am   BACKBONE|DICT|INTERRES
   131   64  189 1    
   132   65   66 2    
   133   67   68 2    
   134   67   69 am   BACKBONE|DICT|INTERRES
   135   69   70 1    
   136   69  190 1    
   137   70   71 1    
   138   70   72 1    
   139   70  191 1    
   140   71  192 1    
   141   71  193 1    
   142   71  194 1    
   143   72   73 2    
   144   72   74 am   BACKBONE|DICT|INTERRES
   145   74   75 1    
   146   74  195 1    
   147   75   76 1    
   148   75   77 1    
   149   75  196 1    
   150   76  197 1    
   151   76  198 1    
   152   76  199 1    
   153   77   78 2    
   154   77   79 am   BACKBONE|DICT|INTERRES
   155   79   80 1    
   156   79  200 1    
   157   80   81 1    
   158   80   82 1    
   159   80  201 1    
   160   81  202 1    
   161   81  203 1    
   162   81  204 1    
   163   82   83 2    
   164   82   84 am   BACKBONE|DICT|INTERRES
   165   84   85 1    
   166   84  205 1    
   167   85   86 1    
   168   85   87 1    
   169   85  206 1    
   170   86  207 1    
   171   86  208 1    
   172   86  209 1    
   173   87   88 2    
   174   87   89 am   BACKBONE|DICT|INTERRES
   175   89   90 1    
   176   89  210 1    
   177   90   91 1    
   178   90   92 1    
   179   90  211 1    
   180   91  212 1    
   181   91  213 1    
   182   91  214 1    
   183   92   93 2    
   184   92   94 am   BACKBONE|DICT|INTERRES
   185   94   95 1    
   186   94  215 1    
   187   95   96 1    
   188   95   97 1    
   189   95  216 1    
   190   96  217 1    
   191   96  218 1    
   192   96  219 1    
   193   97   98 2    
   194   97   99 am   BACKBONE|DICT|INTERRES
   195   99  100 1    
   196   99  220 1    
   197  100  101 1    
   198  100  102 1    
   199  100  221 1    
   200  101  222 1    
   201  101  223 1    
   202  101  224 1    
   203  102  103 2    
   204  102  104 am   BACKBONE|DICT|INTERRES
   205  104  105 1    
   206  104  225 1    
   207  105  106 1    
   208  105  107 1    
   209  105  226 1    
   210  106  227 1    
   211  106  228 1    
   212  106  229 1    
   213  107  108 2    
   214  107  109 am   BACKBONE|DICT|INTERRES
   215  109  110 1    
   216  109  230 1    
   217  110  111 1    
   218  110  112 1    
   219  110  231 1    
   220  111  232 1    
   221  111  233 1    
   222  111  234 1    
   223  112  113 2    
   224  112  114 am   BACKBONE|DICT|INTERRES
   225  114  115 1    
   226  114  235 1    
   227  115  116 1    
   228  115  117 1    
   229  115  236 1    
   230  116  237 1    
   231  116  238 1    
   232  116  239 1    
   233  117  118 2    
   234  117  119 am   BACKBONE|DICT|INTERRES
   235  119  120 1    
   236  119  240 1    
   237  120  121 1    
   238  120  124 1    
   239  120  241 1    
   240  121  122 am   BACKBONE|DICT|INTERRES
   241  121  123 2    
   242  122  242 1    
   243  122  243 1    
   244  124  125 1    
   245  124  244 1    
   246  124  245 1    
   247  125  126 1    
   248  126  246 1    
   249  126  247 1    
@<TRIPOS>SUBSTRUCTURE
     1 UNK         1 GROUP             0       ****    0 ROOT    
