@<TRIPOS>MOLECULE
3R540
247   249    1
SMALL
USER_CHARGES


@<TRIPOS>ATOM
      1 CA         -3.5687  -20.0409  -46.2490 C.3       0 UNK        -0.1800 
      2 C          -4.1695  -18.7948  -46.8813 C.2       0 UNK         0.5000 
      3 O          -5.3837  -18.6037  -46.8301 O.2       0 UNK        -0.5000 
      4 N          -3.3192  -17.9456  -47.4695 N.am      1 UNK        -0.5000 
      5 CA         -3.7033  -16.6984  -48.1400 C.3       1 UNK         0.1400 
      6 C6         -2.5925  -16.1993  -49.0952 C.3       23 UNK        -0.0398 
      7 S7         -0.9533  -15.9960  -48.3074 S.3       23 UNK        -0.2404 
      8 C8          0.1668  -16.1881  -49.7308 C.3       23 UNK        -0.0205 
      9 C9          0.3198  -17.6390  -50.1686 C.ar      23 UNK        -0.0193 
     10 C10        -0.4826  -18.1652  -51.1865 C.ar      23 UNK        -0.1150 
     11 C11        -0.3233  -19.4868  -51.6077 C.ar      23 UNK        -0.0193 
     12 C12         0.6496  -20.2880  -51.0056 C.ar      23 UNK        -0.1150 
     13 C13         1.4661  -19.7750  -49.9942 C.ar      23 UNK        -0.0193 
     14 C14         1.2955  -18.4492  -49.5796 C.ar      23 UNK        -0.1150 
     15 C15         2.5540  -20.6477  -49.3818 C.3       23 UNK        -0.0205 
     16 S16         2.3958  -20.8094  -47.5775 S.3       23 UNK        -0.2404 
     17 C17         0.8042  -21.6828  -47.3945 C.3       23 UNK        -0.0398 
     18 CA          0.9181  -22.9554  -46.5229 C.3       11 UNK         0.1400 
     19 N           1.4559  -22.6920  -45.1798 N.am      11 UNK        -0.5000 
     20 C           1.7468  -23.6334  -44.2682 C.2       10 UNK         0.5000 
     21 O           1.5568  -24.8361  -44.4472 O.2       10 UNK        -0.5000 
     22 CA          2.3181  -23.1570  -42.9231 C.3       10 UNK         0.1400 
     23 CB          3.8215  -22.8617  -43.0404 C.3       10 UNK        -0.1800 
     24 N           1.6176  -21.9658  -42.4489 N.am      10 UNK        -0.5000 
     25 C           0.5148  -21.9893  -41.6878 C.2       9 UNK         0.5000 
     26 O           0.0232  -23.0217  -41.2304 O.2       9 UNK        -0.5000 
     27 CA         -0.1706  -20.6376  -41.3952 C.3       9 UNK         0.1400 
     28 CB          0.3690  -20.0335  -40.0900 C.3       9 UNK        -0.1800 
     29 N          -0.0265  -19.6497  -42.4651 N.am      9 UNK        -0.5000 
     30 C          -0.4540  -19.8092  -43.7248 C.2       8 UNK         0.5000 
     31 O          -1.0512  -20.8049  -44.1318 O.2       8 UNK        -0.5000 
     32 CA         -0.1012  -18.6875  -44.7146 C.3       8 UNK         0.1400 
     33 CB         -1.1357  -17.5589  -44.6191 C.3       8 UNK        -0.1800 
     34 N           1.2399  -18.1270  -44.5392 N.am      8 UNK        -0.5000 
     35 C           2.3931  -18.8083  -44.4630 C.2       7 UNK         0.5000 
     36 O           2.4688  -20.0355  -44.4281 O.2       7 UNK        -0.5000 
     37 CA          3.6745  -17.9697  -44.3690 C.3       7 UNK         0.1400 
     38 CB          4.0255  -17.3529  -45.7329 C.3       7 UNK        -0.1800 
     39 N           3.5176  -16.9147  -43.3710 N.am      7 UNK        -0.5000 
     40 C           3.7230  -17.0855  -42.0582 C.2       6 UNK         0.5000 
     41 O           4.1688  -18.1216  -41.5640 O.2       6 UNK        -0.5000 
     42 CA          3.3589  -15.9071  -41.1342 C.3       6 UNK         0.1400 
     43 CB          4.5763  -14.9949  -40.9204 C.3       6 UNK        -0.1800 
     44 N           2.2386  -15.1023  -41.6252 N.am      6 UNK        -0.5000 
     45 C           0.9740  -15.5341  -41.7255 C.2       5 UNK         0.5000 
     46 O           0.6077  -16.6702  -41.4192 O.2       5 UNK        -0.5000 
     47 CA         -0.0477  -14.5319  -42.2990 C.3       5 UNK         0.1400 
     48 CB         -0.5469  -13.5921  -41.1911 C.3       5 UNK        -0.1800 
     49 N           0.4214  -13.7277  -43.4359 N.am      5 UNK        -0.5000 
     50 C           1.0334  -14.1802  -44.5398 C.2       4 UNK         0.5000 
     51 O           1.3951  -15.3457  -44.6942 O.2       4 UNK        -0.5000 
     52 CA          1.2010  -13.1700  -45.6829 C.3       4 UNK         0.1400 
     53 CB          2.0790  -13.7084  -46.8277 C.3       4 UNK        -0.1800 
     54 N          -0.1319  -12.8839  -46.1997 N.am      4 UNK        -0.5000 
     55 C          -0.7532  -11.7008  -46.1430 C.2       3 UNK         0.5000 
     56 O          -0.2262  -10.6626  -45.7421 O.2       3 UNK        -0.5000 
     57 CA         -2.2319  -11.6897  -46.5749 C.3       3 UNK         0.1400 
     58 CB         -2.3458  -11.4916  -48.0946 C.3       3 UNK        -0.1800 
     59 N          -2.9506  -12.9108  -46.2023 N.am      3 UNK        -0.5000 
     60 C          -3.1623  -13.3580  -44.9573 C.2       2 UNK         0.5000 
     61 O          -2.7885  -12.7570  -43.9505 O.2       2 UNK        -0.5000 
     62 CA         -3.8832  -14.7144  -44.7926 C.3       2 UNK         0.1400 
     63 CB         -5.3760  -14.5127  -44.4722 C.3       2 UNK        -0.1800 
     64 N          -3.6990  -15.6610  -45.9046 N.am      2 UNK        -0.5000 
     65 C          -4.1301  -15.5756  -47.1724 C.2       1 UNK         0.5000 
     66 O          -4.7890  -14.6319  -47.6089 O.2       1 UNK        -0.5000 
     67 C          -0.4367  -23.6897  -46.4828 C.2       11 UNK         0.5000 
     68 O          -0.6542  -24.5934  -47.2893 O.2       11 UNK        -0.5000 
     69 N          -1.2948  -23.3364  -45.5138 N.am      12 UNK        -0.5000 
     70 CA         -2.6028  -23.9502  -45.2728 C.3       12 UNK         0.1400 
     71 CB         -3.2895  -23.2313  -44.1019 C.3       12 UNK        -0.1800 
     72 C          -2.5626  -25.4675  -45.0047 C.2       12 UNK         0.5000 
     73 O          -3.5399  -26.1533  -45.3060 O.2       12 UNK        -0.5000 
     74 N          -1.4428  -25.9691  -44.4626 N.am      13 UNK        -0.5000 
     75 CA         -1.2180  -27.3951  -44.2218 C.3       13 UNK         0.1400 
     76 CB         -0.0747  -27.5701  -43.2107 C.3       13 UNK        -0.1800 
     77 C          -0.9259  -28.1786  -45.5165 C.2       13 UNK         0.5000 
     78 O          -1.1885  -29.3812  -45.5598 O.2       13 UNK        -0.5000 
     79 N          -0.4013  -27.4945  -46.5432 N.am      14 UNK        -0.5000 
     80 CA         -0.1922  -28.0454  -47.8794 C.3       14 UNK         0.1400 
     81 CB          1.0133  -27.3604  -48.5457 C.3       14 UNK        -0.1800 
     82 C          -1.4717  -27.8894  -48.7162 C.2       14 UNK         0.5000 
     83 O          -2.0246  -28.8916  -49.1709 O.2       14 UNK        -0.5000 
     84 N          -1.9339  -26.6423  -48.8685 N.am      15 UNK        -0.5000 
     85 CA         -3.1564  -26.2567  -49.5658 C.3       15 UNK         0.1400 
     86 CB         -3.0656  -26.5568  -51.0766 C.3       15 UNK        -0.1800 
     87 C          -3.3901  -24.7592  -49.3333 C.2       15 UNK         0.5000 
     88 O          -2.5521  -23.9463  -49.7289 O.2       15 UNK        -0.5000 
     89 N          -4.5212  -24.4142  -48.7086 N.am      16 UNK        -0.5000 
     90 CA         -4.9617  -23.0318  -48.5368 C.3       16 UNK         0.1400 
     91 CB         -5.9979  -22.9657  -47.4030 C.3       16 UNK        -0.1800 
     92 C          -5.5533  -22.4943  -49.8513 C.2       16 UNK         0.5000 
     93 O          -6.4231  -23.1460  -50.4344 O.2       16 UNK        -0.5000 
     94 N          -5.0870  -21.3198  -50.2820 N.am      17 UNK        -0.5000 
     95 CA         -5.5236  -20.6113  -51.4802 C.3       17 UNK         0.1400 
     96 CB         -4.9929  -21.3133  -52.7428 C.3       17 UNK        -0.1800 
     97 C          -5.0288  -19.1602  -51.3922 C.2       17 UNK         0.5000 
     98 O          -4.1330  -18.8698  -50.5963 O.2       17 UNK        -0.5000 
     99 N          -5.6338  -18.2758  -52.1926 N.am      18 UNK        -0.5000 
    100 CA        -5.3469  -16.8413  -52.2263 C.3       18 UNK         0.1400 
    101 CB        -6.4575  -16.1391  -53.0226 C.3       18 UNK        -0.1800 
    102 C         -3.9601  -16.5050  -52.8093 C.2       18 UNK         0.5000 
    103 O         -3.4090  -17.2744  -53.6001 O.2       18 UNK        -0.5000 
    104 N         -3.4364  -15.3348  -52.4185 N.am      19 UNK        -0.5000 
    105 CA        -2.1600  -14.7858  -52.8766 C.3       19 UNK         0.1400 
    106 CB        -1.8526  -13.4947  -52.1007 C.3       19 UNK        -0.1800 
    107 C         -2.1600  -14.5289  -54.3935 C.2       19 UNK         0.5000 
    108 O         -3.0543  -13.8426  -54.8923 O.2       19 UNK        -0.5000 
    109 N         -1.1660  -15.1054  -55.0845 N.am      20 UNK        -0.5000 
    110 CA        -0.9676  -15.0844  -56.5402 C.3       20 UNK         0.1400 
    111 CB        -0.6759  -13.6521  -57.0356 C.3       20 UNK        -0.1800 
    112 C         -2.0987  -15.7723  -57.3397 C.2       20 UNK         0.5000 
    113 O         -2.2451  -15.5147  -58.5359 O.2       20 UNK        -0.5000 
    114 N         -2.8651  -16.6481  -56.6788 N.am      21 UNK        -0.5000 
    115 CA        -3.9843  -17.3954  -57.2445 C.3       21 UNK         0.1400 
    116 CB        -5.2793  -16.5735  -57.1073 C.3       21 UNK        -0.1800 
    117 C         -4.0553  -18.7784  -56.5770 C.2       21 UNK         0.5000 
    118 O         -5.1295  -19.2233  -56.1688 O.2       21 UNK        -0.5000 
    119 N         -2.8871  -19.4226  -56.4590 N.am      22 UNK        -0.5000 
    120 CA        -2.7018  -20.7194  -55.7893 C.3       22 UNK         0.1400 
    121 C         -3.2660  -21.9508  -56.5586 C.2       22 UNK         0.5000 
    122 N         -3.6573  -21.8298  -57.8212 N.am      22 UNK        -0.7600 
    123 O         -3.3537  -23.0382  -55.9955 O.2       22 UNK        -0.5000 
    124 C124       -1.2253  -20.9592  -55.3836 C.3       23 UNK        -0.0398 
    125 S125       -0.5166  -19.6265  -54.3563 S.3       23 UNK        -0.2404 
    126 C126       -1.1927  -20.0481  -52.7200 C.3       23 UNK        -0.0205 
    127 H127       -2.5647  -20.2450  -46.6222 H         1 UNK         0.0600 
    128 H128       -4.1907  -20.9093  -46.4546 H         1 UNK         0.0600 
    129 H129       -3.5158  -19.9174  -45.1679 H         1 UNK         0.0600 
    130 H130       -2.3337  -18.1632  -47.5109 H         1 UNK         0.3000 
    131 H131       -4.5818  -16.9150  -48.7513 H         1 UNK         0.0600 
    132 H132       -2.5060  -16.9105  -49.9126 H         1 UNK         0.0800 
    133 H133       -2.8757  -15.2547  -49.5607 H         1 UNK         0.0800 
    134 H134       -0.1839  -15.5730  -50.5589 H         1 UNK         0.0800 
    135 H135        1.1445  -15.7889  -49.4574 H         1 UNK         0.0800 
    136 H136       -1.2318  -17.5523  -51.6636 H         1 UNK         0.1150 
    137 H137        0.7797  -21.3086  -51.3375 H         1 UNK         0.1150 
    138 H138        1.9276  -18.0470  -48.8001 H         1 UNK         0.1150 
    139 H139        2.5579  -21.6437  -49.8274 H         1 UNK         0.0800 
    140 H140        3.5249  -20.2061  -49.6093 H         1 UNK         0.0800 
    141 H141        0.0790  -20.9894  -46.9695 H         1 UNK         0.0800 
    142 H142        0.4257  -21.9421  -48.3852 H         1 UNK         0.0800 
    143 H143        1.6239  -23.6286  -47.0142 H         1 UNK         0.0600 
    144 H144        1.6880  -21.7254  -44.9693 H         1 UNK         0.3000 
    145 H145        2.1955  -23.9663  -42.2001 H         1 UNK         0.0600 
    146 H146        4.2355  -22.5433  -42.0836 H         1 UNK         0.0600 
    147 H147        4.3684  -23.7525  -43.3517 H         1 UNK         0.0600 
    148 H148        4.0293  -22.0797  -43.7712 H         1 UNK         0.0600 
    149 H149        1.9205  -21.0834  -42.8480 H         1 UNK         0.3000 
    150 H150       -1.2375  -20.8326  -41.2694 H         1 UNK         0.0600 
    151 H151        0.2608  -20.7324  -39.2596 H         1 UNK         0.0600 
    152 H152       -0.1714  -19.1249  -39.8232 H         1 UNK         0.0600 
    153 H153        1.4270  -19.7803  -40.1733 H         1 UNK         0.0600 
    154 H154        0.4378  -18.7822  -42.2232 H         1 UNK         0.3000 
    155 H155       -0.1440  -19.1013  -45.7219 H         1 UNK         0.0600 
    156 H156       -0.9417  -16.7782  -45.3541 H         1 UNK         0.0600 
    157 H157       -1.1276  -17.1033  -43.6309 H         1 UNK         0.0600 
    158 H158       -2.1429  -17.9357  -44.7863 H         1 UNK         0.0600 
    159 H159        1.2969  -17.1103  -44.5608 H         1 UNK         0.3000 
    160 H160        4.4940  -18.6309  -44.0789 H         1 UNK         0.0600 
    161 H161        3.2423  -16.6870  -46.0963 H         1 UNK         0.0600 
    162 H162        4.1651  -18.1308  -46.4848 H         1 UNK         0.0600 
    163 H163        4.9519  -16.7813  -45.6793 H         1 UNK         0.0600 
    164 H164        3.0709  -16.0625  -43.6871 H         1 UNK         0.3000 
    165 H165        3.0723  -16.3256  -40.1670 H         1 UNK         0.0600 
    166 H166        4.8959  -14.5253  -41.8516 H         1 UNK         0.0600 
    167 H167        4.3563  -14.2043  -40.2027 H         1 UNK         0.0600 
    168 H168        5.4238  -15.5598  -40.5299 H         1 UNK         0.0600 
    169 H169        2.4469  -14.1577  -41.9137 H         1 UNK         0.3000 
    170 H170       -0.9061  -15.1031  -42.6515 H         1 UNK         0.0600 
    171 H171       -0.9236  -14.1574  -40.3376 H         1 UNK         0.0600 
    172 H172        0.2478  -12.9390  -40.8285 H         1 UNK         0.0600 
    173 H173       -1.3631  -12.9621  -41.5452 H         1 UNK         0.0600 
    174 H174        0.1344  -12.7592  -43.4271 H         1 UNK         0.3000 
    175 H175        1.6742  -12.2748  -45.2747 H         1 UNK         0.0600 
    176 H176        1.6653  -14.6187  -47.2628 H         1 UNK         0.0600 
    177 H177        2.1776  -12.9729  -47.6259 H         1 UNK         0.0600 
    178 H178        3.0833  -13.9417  -46.4722 H         1 UNK         0.0600 
    179 H179       -0.6592  -13.6835  -46.5214 H         1 UNK         0.3000 
    180 H180       -2.7192  -10.8489  -46.0771 H         1 UNK         0.0600 
    181 H181       -3.3876  -11.4068  -48.4044 H         1 UNK         0.0600 
    182 H182       -1.8382  -10.5788  -48.4094 H         1 UNK         0.0600 
    183 H183       -1.8998  -12.3222  -48.6435 H         1 UNK         0.0600 
    184 H184       -3.3769  -13.4387  -46.9556 H         1 UNK         0.3000 
    185 H185       -3.4270  -15.1946  -43.9253 H         1 UNK         0.0600 
    186 H186       -5.5015  -13.9135  -43.5695 H         1 UNK         0.0600 
    187 H187       -5.9013  -13.9985  -45.2773 H         1 UNK         0.0600 
    188 H188       -5.8747  -15.4667  -44.3009 H         1 UNK         0.0600 
    189 H189       -3.1439  -16.4733  -45.6816 H         1 UNK         0.3000 
    190 H190       -1.0513  -22.5545  -44.9101 H         1 UNK         0.3000 
    191 H191       -3.2011  -23.7962  -46.1713 H         1 UNK         0.0600 
    192 H192       -4.2703  -23.6619  -43.8959 H         1 UNK         0.0600 
    193 H193       -3.4415  -22.1755  -44.3180 H         1 UNK         0.0600 
    194 H194       -2.6983  -23.3017  -43.1878 H         1 UNK         0.0600 
    195 H195       -0.6648  -25.3490  -44.2754 H         1 UNK         0.3000 
    196 H196       -2.1237  -27.8147  -43.7786 H         1 UNK         0.0600 
    197 H197        0.0402  -28.6187  -42.9339 H         1 UNK         0.0600 
    198 H198       -0.2655  -27.0107  -42.2946 H         1 UNK         0.0600 
    199 H199        0.8797  -27.2358  -43.6174 H         1 UNK         0.0600 
    200 H200       -0.2713  -26.4951  -46.4450 H         1 UNK         0.3000 
    201 H201        0.0362  -29.1109  -47.8047 H         1 UNK         0.0600 
    202 H202        1.9227  -27.5193  -47.9660 H         1 UNK         0.0600 
    203 H203        0.8721  -26.2850  -48.6527 H         1 UNK         0.0600 
    204 H204        1.1879  -27.7675  -49.5423 H         1 UNK         0.0600 
    205 H205       -1.4302  -25.8708  -48.4324 H         1 UNK         0.3000 
    206 H206       -3.9892  -26.8206  -49.1407 H         1 UNK         0.0600 
    207 H207       -3.0199  -27.6270  -51.2756 H         1 UNK         0.0600 
    208 H208       -3.9404  -26.1723  -51.6027 H         1 UNK         0.0600 
    209 H209       -2.1847  -26.0950  -51.5243 H         1 UNK         0.0600 
    210 H210       -5.1805  -25.1315  -48.4435 H         1 UNK         0.3000 
    211 H211       -4.1013  -22.4216  -48.2545 H         1 UNK         0.0600 
    212 H212       -6.8752  -23.5755  -47.6226 H         1 UNK         0.0600 
    213 H213       -6.3423  -21.9421  -47.2492 H         1 UNK         0.0600 
    214 H214       -5.5785  -23.3125  -46.4587 H         1 UNK         0.0600 
    215 H215       -4.3879  -20.8127  -49.7525 H         1 UNK         0.3000 
    216 H216       -6.6153  -20.5961  -51.5025 H         1 UNK         0.0600 
    217 H217       -5.2564  -20.7545  -53.6414 H         1 UNK         0.0600 
    218 H218       -5.4169  -22.3111  -52.8538 H         1 UNK         0.0600 
    219 H219       -3.9086  -21.4173  -52.7138 H         1 UNK         0.0600 
    220 H220       -6.3230  -18.6057  -52.8521 H         1 UNK         0.3000 
    221 H221       -5.3763  -16.4715  -51.1991 H         1 UNK         0.0600 
    222 H222       -6.5482  -16.5471  -54.0290 H         1 UNK         0.0600 
    223 H223       -7.4237  -16.2520  -52.5305 H         1 UNK         0.0600 
    224 H224       -6.2661  -15.0693  -53.1165 H         1 UNK         0.0600 
    225 H225       -3.9865  -14.7313  -51.8258 H         1 UNK         0.3000 
    226 H226       -1.3805  -15.5126  -52.6469 H         1 UNK         0.0600 
    227 H227       -0.8994  -13.0688  -52.4165 H         1 UNK         0.0600 
    228 H228       -2.6193  -12.7358  -52.2621 H         1 UNK         0.0600 
    229 H229       -1.7836  -13.6779  -51.0288 H         1 UNK         0.0600 
    230 H230       -0.4959  -15.6643  -54.5745 H         1 UNK         0.3000 
    231 H231       -0.0731  -15.6802  -56.7266 H         1 UNK         0.0600 
    232 H232       -0.3643  -13.6546  -58.0807 H         1 UNK         0.0600 
    233 H233        0.1281  -13.1918  -56.4614 H         1 UNK         0.0600 
    234 H234       -1.5534  -13.0095  -56.9600 H         1 UNK         0.0600 
    235 H235       -2.6931  -16.8124  -55.6925 H         1 UNK         0.3000 
    236 H236       -3.8056  -17.5794  -58.3059 H         1 UNK         0.0600 
    237 H237       -5.2098  -15.6361  -57.6591 H         1 UNK         0.0600 
    238 H238       -6.1388  -17.1180  -57.5000 H         1 UNK         0.0600 
    239 H239       -5.4841  -16.3304  -56.0655 H         1 UNK         0.0600 
    240 H240       -2.0506  -18.9792  -56.8088 H         1 UNK         0.3000 
    241 H241       -3.2744  -20.6689  -54.8650 H         1 UNK         0.0600 
    242 H242       -3.5944  -20.9437  -58.2959 H         1 UNK         0.3800 
    243 H243       -4.0244  -22.6336  -58.3064 H         1 UNK         0.3800 
    244 H244       -1.1186  -21.9031  -54.8460 H         1 UNK         0.0800 
    245 H245       -0.6054  -21.0548  -56.2766 H         1 UNK         0.0800 
    246 H246       -1.2780  -21.1301  -52.6109 H         1 UNK         0.0800 
    247 H247       -2.2037  -19.6468  -52.6390 H         1 UNK         0.0800 
@<TRIPOS>BOND
     1    1    2 1    
     2    1  127 1    
     3    1  128 1    
     4    1  129 1    
     5    2    3 2    
     6    2    4 am   BACKBONE|DICT|INTERRES
     7    4    5 1    
     8    4  130 1    
     9    5    6 1    
    10    5   65 1    
    11    5  131 1    
    12    6    7 1    
    13    6  132 1    
    14    6  133 1    
    15    7    8 1    
    16    8    9 1    
    17    8  134 1    
    18    8  135 1    
    19    9   10 ar   
    20    9   14 ar   
    21   10   11 ar   
    22   10  136 1    
    23   11   12 ar   
    24   11  126 1    
    25   12   13 ar   
    26   12  137 1    
    27   13   14 ar   
    28   13   15 1    
    29   14  138 1    
    30   15   16 1    
    31   15  139 1    
    32   15  140 1    
    33   16   17 1    
    34   17   18 1    
    35   17  141 1    
    36   17  142 1    
    37   18   19 1    
    38   18   67 1    
    39   18  143 1    
    40   19   20 am   BACKBONE|DICT|INTERRES
    41   19  144 1    
    42   20   21 2    
    43   20   22 1    
    44   22   23 1    
    45   22   24 1    
    46   22  145 1    
    47   23  146 1    
    48   23  147 1    
    49   23  148 1    
    50   24   25 am   BACKBONE|DICT|INTERRES
    51   24  149 1    
    52   25   26 2    
    53   25   27 1    
    54   27   28 1    
    55   27   29 1    
    56   27  150 1    
    57   28  151 1    
    58   28  152 1    
    59   28  153 1    
    60   29   30 am   BACKBONE|DICT|INTERRES
    61   29  154 1    
    62   30   31 2    
    63   30   32 1    
    64   32   33 1    
    65   32   34 1    
    66   32  155 1    
    67   33  156 1    
    68   33  157 1    
    69   33  158 1    
    70   34   35 am   BACKBONE|DICT|INTERRES
    71   34  159 1    
    72   35   36 2    
    73   35   37 1    
    74   37   38 1    
    75   37   39 1    
    76   37  160 1    
    77   38  161 1    
    78   38  162 1    
    79   38  163 1    
    80   39   40 am   BACKBONE|DICT|INTERRES
    81   39  164 1    
    82   40   41 2    
    83   40   42 1    
    84   42   43 1    
    85   42   44 1    
    86   42  165 1    
    87   43  166 1    
    88   43  167 1    
    89   43  168 1    
    90   44   45 am   BACKBONE|DICT|INTERRES
    91   44  169 1    
    92   45   46 2    
    93   45   47 1    
    94   47   48 1    
    95   47   49 1    
    96   47  170 1    
    97   48  171 1    
    98   48  172 1    
    99   48  173 1    
   100   49   50 am   BACKBONE|DICT|INTERRES
   101   49  174 1    
   102   50   51 2    
   103   50   52 1    
   104   52   53 1    
   105   52   54 1    
   106   52  175 1    
   107   53  176 1    
   108   53  177 1    
   109   53  178 1    
   110   54   55 am   BACKBONE|DICT|INTERRES
   111   54  179 1    
   112   55   56 2    
   113   55   57 1    
   114   57   58 1    
   115   57   59 1    
   116   57  180 1    
   117   58  181 1    
   118   58  182 1    
   119   58  183 1    
   120   59   60 am   BACKBONE|DICT|INTERRES
   121   59  184 1    
   122   60   61 2    
   123   60   62 1    
   124   62   63 1    
   125   62   64 1    
   126   62  185 1    
   127   63  186 1    
   128   63  187 1    
   129   63  188 1    
   130   64   65 am   BACKBONE|DICT|INTERRES
   131   64  189 1    
   132   65   66 2    
   133   67   68 2    
   134   67   69 am   BACKBONE|DICT|INTERRES
   135   69   70 1    
   136   69  190 1    
   137   70   71 1    
   138   70   72 1    
   139   70  191 1    
   140   71  192 1    
   141   71  193 1    
   142   71  194 1    
   143   72   73 2    
   144   72   74 am   BACKBONE|DICT|INTERRES
   145   74   75 1    
   146   74  195 1    
   147   75   76 1    
   148   75   77 1    
   149   75  196 1    
   150   76  197 1    
   151   76  198 1    
   152   76  199 1    
   153   77   78 2    
   154   77   79 am   BACKBONE|DICT|INTERRES
   155   79   80 1    
   156   79  200 1    
   157   80   81 1    
   158   80   82 1    
   159   80  201 1    
   160   81  202 1    
   161   81  203 1    
   162   81  204 1    
   163   82   83 2    
   164   82   84 am   BACKBONE|DICT|INTERRES
   165   84   85 1    
   166   84  205 1    
   167   85   86 1    
   168   85   87 1    
   169   85  206 1    
   170   86  207 1    
   171   86  208 1    
   172   86  209 1    
   173   87   88 2    
   174   87   89 am   BACKBONE|DICT|INTERRES
   175   89   90 1    
   176   89  210 1    
   177   90   91 1    
   178   90   92 1    
   179   90  211 1    
   180   91  212 1    
   181   91  213 1    
   182   91  214 1    
   183   92   93 2    
   184   92   94 am   BACKBONE|DICT|INTERRES
   185   94   95 1    
   186   94  215 1    
   187   95   96 1    
   188   95   97 1    
   189   95  216 1    
   190   96  217 1    
   191   96  218 1    
   192   96  219 1    
   193   97   98 2    
   194   97   99 am   BACKBONE|DICT|INTERRES
   195   99  100 1    
   196   99  220 1    
   197  100  101 1    
   198  100  102 1    
   199  100  221 1    
   200  101  222 1    
   201  101  223 1    
   202  101  224 1    
   203  102  103 2    
   204  102  104 am   BACKBONE|DICT|INTERRES
   205  104  105 1    
   206  104  225 1    
   207  105  106 1    
   208  105  107 1    
   209  105  226 1    
   210  106  227 1    
   211  106  228 1    
   212  106  229 1    
   213  107  108 2    
   214  107  109 am   BACKBONE|DICT|INTERRES
   215  109  110 1    
   216  109  230 1    
   217  110  111 1    
   218  110  112 1    
   219  110  231 1    
   220  111  232 1    
   221  111  233 1    
   222  111  234 1    
   223  112  113 2    
   224  112  114 am   BACKBONE|DICT|INTERRES
   225  114  115 1    
   226  114  235 1    
   227  115  116 1    
   228  115  117 1    
   229  115  236 1    
   230  116  237 1    
   231  116  238 1    
   232  116  239 1    
   233  117  118 2    
   234  117  119 am   BACKBONE|DICT|INTERRES
   235  119  120 1    
   236  119  240 1    
   237  120  121 1    
   238  120  124 1    
   239  120  241 1    
   240  121  122 am   BACKBONE|DICT|INTERRES
   241  121  123 2    
   242  122  242 1    
   243  122  243 1    
   244  124  125 1    
   245  124  244 1    
   246  124  245 1    
   247  125  126 1    
   248  126  246 1    
   249  126  247 1    
@<TRIPOS>SUBSTRUCTURE
     1 UNK         1 GROUP             0       ****    0 ROOT    
