@<TRIPOS>MOLECULE
3R540
247   249    1
SMALL
USER_CHARGES


@<TRIPOS>ATOM
      1 CA          4.7146  -17.7898  -49.1982 C.3       0 UNK        -0.1800 
      2 C           3.5410  -17.0891  -48.5295 C.2       0 UNK         0.5000 
      3 O           3.6165  -16.7603  -47.3462 O.2       0 UNK        -0.5000 
      4 N           2.4606  -16.8523  -49.2840 N.am      1 UNK        -0.5000 
      5 CA          1.2237  -16.2053  -48.8329 C.3       1 UNK         0.1400 
      6 C6          0.0165  -16.6700  -49.6914 C.3       23 UNK        -0.0398 
      7 S7         -1.5636  -16.5780  -48.7868 S.3       23 UNK        -0.2404 
      8 C8         -1.9577  -18.3445  -48.6399 C.3       23 UNK        -0.0205 
      9 C9         -3.2623  -18.5672  -47.8957 C.ar      23 UNK        -0.0193 
     10 C10        -4.4748  -18.5596  -48.5884 C.ar      23 UNK        -0.1150 
     11 C11        -5.6779  -18.7925  -47.9188 C.ar      23 UNK        -0.0193 
     12 C12        -5.6597  -19.0303  -46.5419 C.ar      23 UNK        -0.1150 
     13 C13        -4.4572  -19.0250  -45.8286 C.ar      23 UNK        -0.0193 
     14 C14        -3.2593  -18.7893  -46.5168 C.ar      23 UNK        -0.1150 
     15 C15        -4.5046  -19.2150  -44.3134 C.3       23 UNK        -0.0205 
     16 S16        -3.0016  -19.9338  -43.5752 S.3       23 UNK        -0.2404 
     17 C17        -3.1003  -21.6773  -44.1089 C.3       23 UNK        -0.0398 
     18 CA         -2.1799  -22.0328  -45.3080 C.3       11 UNK         0.1400 
     19 N          -0.8453  -21.4368  -45.2075 N.am      11 UNK        -0.5000 
     20 C           0.0992  -21.4875  -46.1554 C.2       10 UNK         0.5000 
     21 O          -0.0496  -22.0382  -47.2447 O.2       10 UNK        -0.5000 
     22 CA          1.4561  -20.8622  -45.7980 C.3       10 UNK         0.1400 
     23 CB          1.4095  -19.3356  -45.9654 C.3       10 UNK        -0.1800 
     24 N           1.8601  -21.2090  -44.4337 N.am      10 UNK        -0.5000 
     25 C           2.1992  -22.4516  -44.0525 C.2       9 UNK         0.5000 
     26 O           2.2578  -23.4075  -44.8240 O.2       9 UNK        -0.5000 
     27 CA          2.4766  -22.6855  -42.5558 C.3       9 UNK         0.1400 
     28 CB          3.9523  -22.4089  -42.2324 C.3       9 UNK        -0.1800 
     29 N           1.6340  -21.8752  -41.6790 N.am      9 UNK        -0.5000 
     30 C           0.2947  -21.9147  -41.6311 C.2       8 UNK         0.5000 
     31 O          -0.3891  -22.7038  -42.2829 O.2       8 UNK        -0.5000 
     32 CA         -0.3964  -20.8677  -40.7354 C.3       8 UNK         0.1400 
     33 CB         -0.7912  -21.4913  -39.3889 C.3       8 UNK        -0.1800 
     34 N           0.4215  -19.6737  -40.4932 N.am      8 UNK        -0.5000 
     35 C           0.8206  -18.8128  -41.4392 C.2       7 UNK         0.5000 
     36 O           0.5355  -18.9217  -42.6340 O.2       7 UNK        -0.5000 
     37 CA          1.7571  -17.6924  -40.9767 C.3       7 UNK         0.1400 
     38 CB          3.2224  -18.1623  -41.0145 C.3       7 UNK        -0.1800 
     39 N           1.5894  -16.5326  -41.8428 N.am      7 UNK        -0.5000 
     40 C           1.8099  -15.2651  -41.4835 C.2       6 UNK         0.5000 
     41 O           2.2173  -14.9418  -40.3666 O.2       6 UNK        -0.5000 
     42 CA          1.5091  -14.1572  -42.5119 C.3       6 UNK         0.1400 
     43 CB          2.7632  -13.8059  -43.3343 C.3       6 UNK        -0.1800 
     44 N           0.3363  -14.4004  -43.3648 N.am      6 UNK        -0.5000 
     45 C           0.1684  -15.3013  -44.3464 C.2       5 UNK         0.5000 
     46 O           1.0202  -16.1185  -44.6905 O.2       5 UNK        -0.5000 
     47 CA         -1.2033  -15.3017  -45.0371 C.3       5 UNK         0.1400 
     48 CB         -2.1552  -16.2002  -44.2174 C.3       5 UNK        -0.1800 
     49 N          -1.6969  -13.9246  -45.1761 N.am      5 UNK        -0.5000 
     50 C          -2.9187  -13.5220  -45.5570 C.2       4 UNK         0.5000 
     51 O          -3.8278  -14.2819  -45.8889 O.2       4 UNK        -0.5000 
     52 CA         -3.1954  -12.0045  -45.5539 C.3       4 UNK         0.1400 
     53 CB         -3.8876  -11.5938  -44.2445 C.3       4 UNK        -0.1800 
     54 N          -1.9900  -11.1926  -45.7215 N.am      4 UNK        -0.5000 
     55 C          -1.4066  -10.9371  -46.8993 C.2       3 UNK         0.5000 
     56 O          -1.8551  -11.3238  -47.9798 O.2       3 UNK        -0.5000 
     57 CA         -0.0921  -10.1233  -46.8817 C.3       3 UNK         0.1400 
     58 CB          0.2747   -9.5339  -45.4997 C.3       3 UNK        -0.1800 
     59 N           1.0277  -10.9065  -47.4153 N.am      3 UNK        -0.5000 
     60 C           1.4334  -12.1039  -46.9716 C.2       2 UNK         0.5000 
     61 O           0.9413  -12.6754  -45.9977 O.2       2 UNK        -0.5000 
     62 CA          2.5889  -12.7720  -47.7359 C.3       2 UNK         0.1400 
     63 CB          3.9123  -12.6270  -46.9703 C.3       2 UNK        -0.1800 
     64 N           2.3168  -14.1907  -47.9546 N.am      2 UNK        -0.5000 
     65 C           1.3931  -14.6680  -48.7967 C.2       1 UNK         0.5000 
     66 O           0.7371  -13.9474  -49.5512 O.2       1 UNK        -0.5000 
     67 C          -2.0824  -23.5629  -45.4745 C.2       11 UNK         0.5000 
     68 O          -2.6683  -24.1193  -46.4054 O.2       11 UNK        -0.5000 
     69 N          -1.2978  -24.1919  -44.5849 N.am      12 UNK        -0.5000 
     70 CA         -1.0292  -25.6292  -44.5357 C.3       12 UNK         0.1400 
     71 CB         -0.2007  -25.9445  -43.2817 C.3       12 UNK        -0.1800 
     72 C          -0.3286  -26.1717  -45.7936 C.2       12 UNK         0.5000 
     73 O          -0.6244  -27.2909  -46.2121 O.2       12 UNK        -0.5000 
     74 N           0.5394  -25.3598  -46.4120 N.am      13 UNK        -0.5000 
     75 CA          1.2302  -25.6421  -47.6739 C.3       13 UNK         0.1400 
     76 CB          2.4977  -24.7715  -47.7516 C.3       13 UNK        -0.1800 
     77 C           0.3279  -25.4656  -48.9173 C.2       13 UNK         0.5000 
     78 O           0.8033  -24.9979  -49.9527 O.2       13 UNK        -0.5000 
     79 N          -0.9570  -25.8307  -48.7979 N.am      14 UNK        -0.5000 
     80 CA         -2.0113  -25.7509  -49.8128 C.3       14 UNK         0.1400 
     81 CB         -1.7691  -26.8024  -50.9160 C.3       14 UNK        -0.1800 
     82 C          -2.1809  -24.3246  -50.3718 C.2       14 UNK         0.5000 
     83 O          -2.1731  -24.1371  -51.5895 O.2       14 UNK        -0.5000 
     84 N          -2.2799  -23.3423  -49.4625 N.am      15 UNK        -0.5000 
     85 CA         -2.3303  -21.9021  -49.7451 C.3       15 UNK         0.1400 
     86 CB         -3.6568  -21.5300  -50.4407 C.3       15 UNK        -0.1800 
     87 C          -1.0871  -21.4237  -50.5265 C.2       15 UNK         0.5000 
     88 O          -1.2180  -20.7616  -51.5559 O.2       15 UNK        -0.5000 
     89 N           0.0942  -21.8085  -50.0248 N.am      16 UNK        -0.5000 
     90 CA          1.4319  -21.5962  -50.5844 C.3       16 UNK         0.1400 
     91 CB          1.8492  -20.1228  -50.4238 C.3       16 UNK        -0.1800 
     92 C           1.5549  -22.1115  -52.0337 C.2       16 UNK         0.5000 
     93 O           1.9871  -21.3751  -52.9219 O.2       16 UNK        -0.5000 
     94 N           1.1421  -23.3712  -52.2330 N.am      17 UNK        -0.5000 
     95 CA          1.0342  -24.0835  -53.5089 C.3       17 UNK         0.1400 
     96 CB          2.4313  -24.3568  -54.1039 C.3       17 UNK        -0.1800 
     97 C           0.0756  -23.3777  -54.4916 C.2       17 UNK         0.5000 
     98 O           0.4318  -23.1391  -55.6474 O.2       17 UNK        -0.5000 
     99 N          -1.1275  -23.0593  -53.9932 N.am      18 UNK        -0.5000 
    100 CA        -2.2265  -22.3718  -54.6730 C.3       18 UNK         0.1400 
    101 CB        -2.8333  -23.2706  -55.7703 C.3       18 UNK        -0.1800 
    102 C         -1.8418  -20.9660  -55.1792 C.2       18 UNK         0.5000 
    103 O         -2.1104  -20.6241  -56.3330 O.2       18 UNK        -0.5000 
    104 N         -1.2357  -20.1616  -54.2946 N.am      19 UNK        -0.5000 
    105 CA        -0.9443  -18.7431  -54.5235 C.3       19 UNK         0.1400 
    106 CB         0.0236  -18.2395  -53.4423 C.3       19 UNK        -0.1800 
    107 C         -2.2228  -17.8819  -54.5415 C.2       19 UNK         0.5000 
    108 O         -2.2441  -16.8324  -55.1857 O.2       19 UNK        -0.5000 
    109 N         -3.2672  -18.3612  -53.8588 N.am      20 UNK        -0.5000 
    110 CA        -4.6327  -17.8628  -53.9100 C.3       20 UNK         0.1400 
    111 CB        -4.9127  -17.0049  -52.6663 C.3       20 UNK        -0.1800 
    112 C         -5.5675  -19.0793  -53.9645 C.2       20 UNK         0.5000 
    113 O         -5.2007  -20.1557  -53.4846 O.2       20 UNK        -0.5000 
    114 N         -6.7584  -18.8861  -54.5424 N.am      21 UNK        -0.5000 
    115 CA        -7.7929  -19.9183  -54.6579 C.3       21 UNK         0.1400 
    116 CB        -8.7049  -19.5721  -55.8458 C.3       21 UNK        -0.1800 
    117 C         -8.6273  -20.0859  -53.3720 C.2       21 UNK         0.5000 
    118 O         -9.2848  -21.1150  -53.2135 O.2       21 UNK        -0.5000 
    119 N         -8.6022  -19.0698  -52.4972 N.am      22 UNK        -0.5000 
    120 CA        -9.3455  -18.9822  -51.2255 C.3       22 UNK         0.1400 
    121 C        -10.8928  -18.8437  -51.3803 C.2       22 UNK         0.5000 
    122 N        -11.4151  -18.5094  -52.5542 N.am      22 UNK        -0.7600 
    123 O        -11.6359  -19.0068  -50.4161 O.2       22 UNK        -0.5000 
    124 C124       -8.9516  -20.0795  -50.1940 C.3       23 UNK        -0.0398 
    125 S125       -7.1636  -20.1475  -49.8311 S.3       23 UNK        -0.2404 
    126 C126       -6.9988  -18.7537  -48.6728 C.3       23 UNK        -0.0205 
    127 H127        4.8914  -18.7558  -48.7253 H         1 UNK         0.0600 
    128 H128        5.6180  -17.1884  -49.0972 H         1 UNK         0.0600 
    129 H129        4.5357  -17.9582  -50.2604 H         1 UNK         0.0600 
    130 H130        2.4883  -17.0991  -50.2626 H         1 UNK         0.3000 
    131 H131        1.0432  -16.5278  -47.8043 H         1 UNK         0.0600 
    132 H132       -0.0667  -16.1111  -50.6250 H         1 UNK         0.0800 
    133 H133        0.1605  -17.7052  -49.9976 H         1 UNK         0.0800 
    134 H134       -1.1416  -18.8642  -48.1349 H         1 UNK         0.0800 
    135 H135       -2.0300  -18.7705  -49.6410 H         1 UNK         0.0800 
    136 H136       -4.4834  -18.3745  -49.6518 H         1 UNK         0.1150 
    137 H137       -6.5900  -19.1978  -46.0174 H         1 UNK         0.1150 
    138 H138       -2.3196  -18.7673  -45.9840 H         1 UNK         0.1150 
    139 H139       -4.6708  -18.2379  -43.8585 H         1 UNK         0.0800 
    140 H140       -5.3606  -19.8310  -44.0336 H         1 UNK         0.0800 
    141 H141       -4.1354  -21.9263  -44.3480 H         1 UNK         0.0800 
    142 H142       -2.8490  -22.2775  -43.2331 H         1 UNK         0.0800 
    143 H143       -2.6405  -21.6322  -46.2131 H         1 UNK         0.0600 
    144 H144       -0.6342  -20.9713  -44.3361 H         1 UNK         0.3000 
    145 H145        2.2036  -21.2578  -46.4890 H         1 UNK         0.0600 
    146 H146        0.6484  -18.8792  -45.3314 H         1 UNK         0.0600 
    147 H147        2.3672  -18.8783  -45.7161 H         1 UNK         0.0600 
    148 H148        1.1800  -19.0629  -46.9959 H         1 UNK         0.0600 
    149 H149        1.7752  -20.4810  -43.7359 H         1 UNK         0.3000 
    150 H150        2.2687  -23.7351  -42.3394 H         1 UNK         0.0600 
    151 H151        4.6090  -23.0142  -42.8588 H         1 UNK         0.0600 
    152 H152        4.1814  -22.6515  -41.1946 H         1 UNK         0.0600 
    153 H153        4.2122  -21.3626  -42.3987 H         1 UNK         0.0600 
    154 H154        2.1066  -21.1998  -41.0981 H         1 UNK         0.3000 
    155 H155       -1.3078  -20.5519  -41.2447 H         1 UNK         0.0600 
    156 H156       -1.4236  -22.3681  -39.5356 H         1 UNK         0.0600 
    157 H157       -1.3539  -20.7861  -38.7771 H         1 UNK         0.0600 
    158 H158        0.0835  -21.8088  -38.8198 H         1 UNK         0.0600 
    159 H159        0.7097  -19.5183  -39.5377 H         1 UNK         0.3000 
    160 H160        1.4871  -17.4227  -39.9534 H         1 UNK         0.0600 
    161 H161        3.8973  -17.3819  -40.6628 H         1 UNK         0.0600 
    162 H162        3.5284  -18.4377  -42.0248 H         1 UNK         0.0600 
    163 H163        3.3746  -19.0323  -40.3748 H         1 UNK         0.0600 
    164 H164        1.2620  -16.7311  -42.7849 H         1 UNK         0.3000 
    165 H165        1.2562  -13.2705  -41.9286 H         1 UNK         0.0600 
    166 H166        3.0594  -14.6154  -44.0015 H         1 UNK         0.0600 
    167 H167        2.5965  -12.9138  -43.9363 H         1 UNK         0.0600 
    168 H168        3.6117  -13.5974  -42.6816 H         1 UNK         0.0600 
    169 H169       -0.4653  -13.8309  -43.1358 H         1 UNK         0.3000 
    170 H170       -1.0772  -15.7234  -46.0342 H         1 UNK         0.0600 
    171 H171       -2.4338  -15.7377  -43.2702 H         1 UNK         0.0600 
    172 H172       -3.0692  -16.4264  -44.7640 H         1 UNK         0.0600 
    173 H173       -1.6876  -17.1592  -43.9879 H         1 UNK         0.0600 
    174 H174       -0.9778  -13.2165  -45.0739 H         1 UNK         0.3000 
    175 H175       -3.8818  -11.7929  -46.3768 H         1 UNK         0.0600 
    176 H176       -3.2502  -11.7727  -43.3778 H         1 UNK         0.0600 
    177 H177       -4.1544  -10.5369  -44.2539 H         1 UNK         0.0600 
    178 H178       -4.8089  -12.1588  -44.0961 H         1 UNK         0.0600 
    179 H179       -1.5566  -10.8392  -44.8811 H         1 UNK         0.3000 
    180 H180       -0.2430   -9.2874  -47.5663 H         1 UNK         0.0600 
    181 H181        0.4654  -10.3069  -44.7544 H         1 UNK         0.0600 
    182 H182       -0.5210   -8.8911  -45.1211 H         1 UNK         0.0600 
    183 H183        1.1726   -8.9197  -45.5683 H         1 UNK         0.0600 
    184 H184        1.4688  -10.5243  -48.2399 H         1 UNK         0.3000 
    185 H185        2.6999  -12.2880  -48.7085 H         1 UNK         0.0600 
    186 H186        4.7446  -13.0358  -47.5435 H         1 UNK         0.0600 
    187 H187        4.1371  -11.5784  -46.7713 H         1 UNK         0.0600 
    188 H188        3.8818  -13.1454  -46.0120 H         1 UNK         0.0600 
    189 H189        2.8217  -14.8550  -47.3775 H         1 UNK         0.3000 
    190 H190       -0.8713  -23.6358  -43.8469 H         1 UNK         0.3000 
    191 H191       -1.9905  -26.1392  -44.4481 H         1 UNK         0.0600 
    192 H192        0.7692  -25.4472  -43.3080 H         1 UNK         0.0600 
    193 H193       -0.7165  -25.6244  -42.3762 H         1 UNK         0.0600 
    194 H194       -0.0188  -27.0162  -43.1916 H         1 UNK         0.0600 
    195 H195        0.7455  -24.4636  -45.9867 H         1 UNK         0.3000 
    196 H196        1.5483  -26.6863  -47.6661 H         1 UNK         0.0600 
    197 H197        3.1525  -24.9543  -46.8997 H         1 UNK         0.0600 
    198 H198        2.2524  -23.7089  -47.7639 H         1 UNK         0.0600 
    199 H199        3.0760  -24.9887  -48.6504 H         1 UNK         0.0600 
    200 H200       -1.2377  -26.2162  -47.9043 H         1 UNK         0.3000 
    201 H201       -2.9477  -26.0008  -49.3121 H         1 UNK         0.0600 
    202 H202       -2.5951  -26.8192  -51.6279 H         1 UNK         0.0600 
    203 H203       -1.6848  -27.8037  -50.4938 H         1 UNK         0.0600 
    204 H204       -0.8571  -26.5981  -51.4780 H         1 UNK         0.0600 
    205 H205       -2.2523  -23.5999  -48.4819 H         1 UNK         0.3000 
    206 H206       -2.3073  -21.3921  -48.7814 H         1 UNK         0.0600 
    207 H207       -4.5127  -21.8100  -49.8272 H         1 UNK         0.0600 
    208 H208       -3.7654  -22.0170  -51.4098 H         1 UNK         0.0600 
    209 H209       -3.7230  -20.4569  -50.6177 H         1 UNK         0.0600 
    210 H210        0.0735  -22.2883  -49.1291 H         1 UNK         0.3000 
    211 H211        2.1137  -22.1997  -49.9835 H         1 UNK         0.0600 
    212 H212        1.7577  -19.7980  -49.3875 H         1 UNK         0.0600 
    213 H213        2.8878  -19.9776  -50.7222 H         1 UNK         0.0600 
    214 H214        1.2368  -19.4675  -51.0404 H         1 UNK         0.0600 
    215 H215        0.8419  -23.9007  -51.4154 H         1 UNK         0.3000 
    216 H216        0.5806  -25.0488  -53.2792 H         1 UNK         0.0600 
    217 H217        2.3596  -24.9839  -54.9931 H         1 UNK         0.0600 
    218 H218        2.9379  -23.4359  -54.3940 H         1 UNK         0.0600 
    219 H219        3.0676  -24.8790  -53.3893 H         1 UNK         0.0600 
    220 H220       -1.3313  -23.3291  -53.0324 H         1 UNK         0.3000 
    221 H221       -2.9971  -22.2177  -53.9159 H         1 UNK         0.0600 
    222 H222       -2.1311  -23.4470  -56.5856 H         1 UNK         0.0600 
    223 H223       -3.1292  -24.2387  -55.3660 H         1 UNK         0.0600 
    224 H224       -3.7255  -22.8128  -56.1992 H         1 UNK         0.0600 
    225 H225       -1.0763  -20.5045  -53.3478 H         1 UNK         0.3000 
    226 H226       -0.4570  -18.6439  -55.4954 H         1 UNK         0.0600 
    227 H227        0.9452  -18.8213  -53.4375 H         1 UNK         0.0600 
    228 H228        0.2963  -17.1980  -53.6159 H         1 UNK         0.0600 
    229 H229       -0.4208  -18.3009  -52.4486 H         1 UNK         0.0600 
    230 H230       -3.1717  -19.2587  -53.4000 H         1 UNK         0.3000 
    231 H231       -4.7824  -17.2650  -54.8116 H         1 UNK         0.0600 
    232 H232       -5.9221  -16.5933  -52.6917 H         1 UNK         0.0600 
    233 H233       -4.2198  -16.1658  -52.6018 H         1 UNK         0.0600 
    234 H234       -4.8179  -17.5877  -51.7507 H         1 UNK         0.0600 
    235 H235       -6.9814  -17.9787  -54.9263 H         1 UNK         0.3000 
    236 H236       -7.3165  -20.8789  -54.8666 H         1 UNK         0.0600 
    237 H237       -8.1376  -19.5192  -56.7753 H         1 UNK         0.0600 
    238 H238       -9.4764  -20.3313  -55.9814 H         1 UNK         0.0600 
    239 H239       -9.2076  -18.6147  -55.7039 H         1 UNK         0.0600 
    240 H240       -8.0323  -18.2694  -52.7246 H         1 UNK         0.3000 
    241 H241       -9.0448  -18.0272  -50.7944 H         1 UNK         0.0600 
    242 H242      -10.8243  -18.3572  -53.3553 H         1 UNK         0.3800 
    243 H243      -12.4147  -18.4109  -52.6420 H         1 UNK         0.3800 
    244 H244       -9.4804  -19.9317  -49.2511 H         1 UNK         0.0800 
    245 H245       -9.2608  -21.0624  -50.5511 H         1 UNK         0.0800 
    246 H246       -7.0698  -17.8159  -49.2253 H         1 UNK         0.0800 
    247 H247       -7.8333  -18.7628  -47.9702 H         1 UNK         0.0800 
@<TRIPOS>BOND
     1    1    2 1    
     2    1  127 1    
     3    1  128 1    
     4    1  129 1    
     5    2    3 2    
     6    2    4 am   BACKBONE|DICT|INTERRES
     7    4    5 1    
     8    4  130 1    
     9    5    6 1    
    10    5   65 1    
    11    5  131 1    
    12    6    7 1    
    13    6  132 1    
    14    6  133 1    
    15    7    8 1    
    16    8    9 1    
    17    8  134 1    
    18    8  135 1    
    19    9   10 ar   
    20    9   14 ar   
    21   10   11 ar   
    22   10  136 1    
    23   11   12 ar   
    24   11  126 1    
    25   12   13 ar   
    26   12  137 1    
    27   13   14 ar   
    28   13   15 1    
    29   14  138 1    
    30   15   16 1    
    31   15  139 1    
    32   15  140 1    
    33   16   17 1    
    34   17   18 1    
    35   17  141 1    
    36   17  142 1    
    37   18   19 1    
    38   18   67 1    
    39   18  143 1    
    40   19   20 am   BACKBONE|DICT|INTERRES
    41   19  144 1    
    42   20   21 2    
    43   20   22 1    
    44   22   23 1    
    45   22   24 1    
    46   22  145 1    
    47   23  146 1    
    48   23  147 1    
    49   23  148 1    
    50   24   25 am   BACKBONE|DICT|INTERRES
    51   24  149 1    
    52   25   26 2    
    53   25   27 1    
    54   27   28 1    
    55   27   29 1    
    56   27  150 1    
    57   28  151 1    
    58   28  152 1    
    59   28  153 1    
    60   29   30 am   BACKBONE|DICT|INTERRES
    61   29  154 1    
    62   30   31 2    
    63   30   32 1    
    64   32   33 1    
    65   32   34 1    
    66   32  155 1    
    67   33  156 1    
    68   33  157 1    
    69   33  158 1    
    70   34   35 am   BACKBONE|DICT|INTERRES
    71   34  159 1    
    72   35   36 2    
    73   35   37 1    
    74   37   38 1    
    75   37   39 1    
    76   37  160 1    
    77   38  161 1    
    78   38  162 1    
    79   38  163 1    
    80   39   40 am   BACKBONE|DICT|INTERRES
    81   39  164 1    
    82   40   41 2    
    83   40   42 1    
    84   42   43 1    
    85   42   44 1    
    86   42  165 1    
    87   43  166 1    
    88   43  167 1    
    89   43  168 1    
    90   44   45 am   BACKBONE|DICT|INTERRES
    91   44  169 1    
    92   45   46 2    
    93   45   47 1    
    94   47   48 1    
    95   47   49 1    
    96   47  170 1    
    97   48  171 1    
    98   48  172 1    
    99   48  173 1    
   100   49   50 am   BACKBONE|DICT|INTERRES
   101   49  174 1    
   102   50   51 2    
   103   50   52 1    
   104   52   53 1    
   105   52   54 1    
   106   52  175 1    
   107   53  176 1    
   108   53  177 1    
   109   53  178 1    
   110   54   55 am   BACKBONE|DICT|INTERRES
   111   54  179 1    
   112   55   56 2    
   113   55   57 1    
   114   57   58 1    
   115   57   59 1    
   116   57  180 1    
   117   58  181 1    
   118   58  182 1    
   119   58  183 1    
   120   59   60 am   BACKBONE|DICT|INTERRES
   121   59  184 1    
   122   60   61 2    
   123   60   62 1    
   124   62   63 1    
   125   62   64 1    
   126   62  185 1    
   127   63  186 1    
   128   63  187 1    
   129   63  188 1    
   130   64   65 am   BACKBONE|DICT|INTERRES
   131   64  189 1    
   132   65   66 2    
   133   67   68 2    
   134   67   69 am   BACKBONE|DICT|INTERRES
   135   69   70 1    
   136   69  190 1    
   137   70   71 1    
   138   70   72 1    
   139   70  191 1    
   140   71  192 1    
   141   71  193 1    
   142   71  194 1    
   143   72   73 2    
   144   72   74 am   BACKBONE|DICT|INTERRES
   145   74   75 1    
   146   74  195 1    
   147   75   76 1    
   148   75   77 1    
   149   75  196 1    
   150   76  197 1    
   151   76  198 1    
   152   76  199 1    
   153   77   78 2    
   154   77   79 am   BACKBONE|DICT|INTERRES
   155   79   80 1    
   156   79  200 1    
   157   80   81 1    
   158   80   82 1    
   159   80  201 1    
   160   81  202 1    
   161   81  203 1    
   162   81  204 1    
   163   82   83 2    
   164   82   84 am   BACKBONE|DICT|INTERRES
   165   84   85 1    
   166   84  205 1    
   167   85   86 1    
   168   85   87 1    
   169   85  206 1    
   170   86  207 1    
   171   86  208 1    
   172   86  209 1    
   173   87   88 2    
   174   87   89 am   BACKBONE|DICT|INTERRES
   175   89   90 1    
   176   89  210 1    
   177   90   91 1    
   178   90   92 1    
   179   90  211 1    
   180   91  212 1    
   181   91  213 1    
   182   91  214 1    
   183   92   93 2    
   184   92   94 am   BACKBONE|DICT|INTERRES
   185   94   95 1    
   186   94  215 1    
   187   95   96 1    
   188   95   97 1    
   189   95  216 1    
   190   96  217 1    
   191   96  218 1    
   192   96  219 1    
   193   97   98 2    
   194   97   99 am   BACKBONE|DICT|INTERRES
   195   99  100 1    
   196   99  220 1    
   197  100  101 1    
   198  100  102 1    
   199  100  221 1    
   200  101  222 1    
   201  101  223 1    
   202  101  224 1    
   203  102  103 2    
   204  102  104 am   BACKBONE|DICT|INTERRES
   205  104  105 1    
   206  104  225 1    
   207  105  106 1    
   208  105  107 1    
   209  105  226 1    
   210  106  227 1    
   211  106  228 1    
   212  106  229 1    
   213  107  108 2    
   214  107  109 am   BACKBONE|DICT|INTERRES
   215  109  110 1    
   216  109  230 1    
   217  110  111 1    
   218  110  112 1    
   219  110  231 1    
   220  111  232 1    
   221  111  233 1    
   222  111  234 1    
   223  112  113 2    
   224  112  114 am   BACKBONE|DICT|INTERRES
   225  114  115 1    
   226  114  235 1    
   227  115  116 1    
   228  115  117 1    
   229  115  236 1    
   230  116  237 1    
   231  116  238 1    
   232  116  239 1    
   233  117  118 2    
   234  117  119 am   BACKBONE|DICT|INTERRES
   235  119  120 1    
   236  119  240 1    
   237  120  121 1    
   238  120  124 1    
   239  120  241 1    
   240  121  122 am   BACKBONE|DICT|INTERRES
   241  121  123 2    
   242  122  242 1    
   243  122  243 1    
   244  124  125 1    
   245  124  244 1    
   246  124  245 1    
   247  125  126 1    
   248  126  246 1    
   249  126  247 1    
@<TRIPOS>SUBSTRUCTURE
     1 UNK         1 GROUP             0       ****    0 ROOT    
