@<TRIPOS>MOLECULE
3R540
247   249    1
SMALL
USER_CHARGES


@<TRIPOS>ATOM
      1 CA         -0.2348   -8.7673  -48.7932 C.3       0 UNK        -0.1800 
      2 C          -0.4219   -9.7468  -47.6432 C.2       0 UNK         0.5000 
      3 O          -0.8814   -9.3501  -46.5724 O.2       0 UNK        -0.5000 
      4 N          -0.0694  -11.0212  -47.8649 N.am      1 UNK        -0.5000 
      5 CA         -0.1419  -12.1218  -46.8926 C.3       1 UNK         0.1400 
      6 C6         -1.6034  -12.4607  -46.4705 C.3       23 UNK        -0.0398 
      7 S7         -1.9280  -14.2558  -46.4815 S.3       23 UNK        -0.2404 
      8 C8         -2.5335  -14.4455  -48.1883 C.3       23 UNK        -0.0205 
      9 C9         -2.8152  -15.9000  -48.5231 C.ar      23 UNK        -0.0193 
     10 C10        -4.1149  -16.4069  -48.4362 C.ar      23 UNK        -0.1150 
     11 C11        -4.3730  -17.7493  -48.7281 C.ar      23 UNK        -0.0193 
     12 C12        -3.3191  -18.5851  -49.1057 C.ar      23 UNK        -0.1150 
     13 C13        -2.0191  -18.0839  -49.2204 C.ar      23 UNK        -0.0193 
     14 C14        -1.7745  -16.7383  -48.9311 C.ar      23 UNK        -0.1150 
     15 C15        -0.8892  -19.0036  -49.6645 C.3       23 UNK        -0.0205 
     16 S16         0.5348  -19.0209  -48.5225 S.3       23 UNK        -0.2404 
     17 C17        -0.2573  -19.4240  -46.9292 C.3       23 UNK        -0.0398 
     18 CA         -0.1426  -20.9051  -46.5096 C.3       11 UNK         0.1400 
     19 N          -0.5338  -21.0600  -45.1094 N.am      11 UNK        -0.5000 
     20 C          -0.4785  -22.1886  -44.3926 C.2       10 UNK         0.5000 
     21 O          -0.0456  -23.2589  -44.8171 O.2       10 UNK        -0.5000 
     22 CA         -1.0622  -22.1107  -42.9725 C.3       10 UNK         0.1400 
     23 CB         -0.0734  -21.4342  -42.0099 C.3       10 UNK        -0.1800 
     24 N          -2.3418  -21.3988  -42.9468 N.am      10 UNK        -0.5000 
     25 C          -3.4719  -21.8533  -43.5075 C.2       9 UNK         0.5000 
     26 O          -3.5593  -22.9294  -44.0966 O.2       9 UNK        -0.5000 
     27 CA         -4.7041  -20.9356  -43.4277 C.3       9 UNK         0.1400 
     28 CB         -5.3847  -21.0566  -42.0560 C.3       9 UNK        -0.1800 
     29 N          -4.3813  -19.5335  -43.6892 N.am      9 UNK        -0.5000 
     30 C          -3.9576  -19.0628  -44.8705 C.2       8 UNK         0.5000 
     31 O          -3.7968  -19.7626  -45.8696 O.2       8 UNK        -0.5000 
     32 CA         -3.6070  -17.5643  -44.9195 C.3       8 UNK         0.1400 
     33 CB         -4.8789  -16.7153  -45.0641 C.3       8 UNK        -0.1800 
     34 N          -2.8593  -17.1023  -43.7464 N.am      8 UNK        -0.5000 
     35 C          -1.6818  -17.5974  -43.3488 C.2       7 UNK         0.5000 
     36 O          -1.1144  -18.5442  -43.8971 O.2       7 UNK        -0.5000 
     37 CA         -1.0438  -16.9562  -42.1141 C.3       7 UNK         0.1400 
     38 CB         -1.4140  -17.7283  -40.8359 C.3       7 UNK        -0.1800 
     39 N           0.3975  -16.9655  -42.3136 N.am      7 UNK        -0.5000 
     40 C           1.2769  -16.1369  -41.7478 C.2       6 UNK         0.5000 
     41 O           0.9791  -15.3128  -40.8823 O.2       6 UNK        -0.5000 
     42 CA          2.7276  -16.2056  -42.2582 C.3       6 UNK         0.1400 
     43 CB          3.4975  -17.3889  -41.6418 C.3       6 UNK        -0.1800 
     44 N           2.8321  -16.1786  -43.7221 N.am      6 UNK        -0.5000 
     45 C           2.5093  -17.1204  -44.6213 C.2       5 UNK         0.5000 
     46 O           2.0726  -18.2328  -44.3293 O.2       5 UNK        -0.5000 
     47 CA          2.7077  -16.7435  -46.0995 C.3       5 UNK         0.1400 
     48 CB          1.5056  -15.9322  -46.6141 C.3       5 UNK        -0.1800 
     49 N           3.9290  -15.9568  -46.2709 N.am      5 UNK        -0.5000 
     50 C           5.1444  -16.4730  -46.4994 C.2       4 UNK         0.5000 
     51 O           5.3518  -17.6662  -46.7224 O.2       4 UNK        -0.5000 
     52 CA          6.3365  -15.4936  -46.4534 C.3       4 UNK         0.1400 
     53 CB          6.5731  -14.8665  -47.8358 C.3       4 UNK        -0.1800 
     54 N           6.1610  -14.4252  -45.4668 N.am      4 UNK        -0.5000 
     55 C           6.1336  -14.6082  -44.1387 C.2       3 UNK         0.5000 
     56 O           6.3726  -15.6871  -43.5965 O.2       3 UNK        -0.5000 
     57 CA          5.7492  -13.3963  -43.2610 C.3       3 UNK         0.1400 
     58 CB          7.0063  -12.7726  -42.6355 C.3       3 UNK        -0.1800 
     59 N           4.9818  -12.3373  -43.9323 N.am      3 UNK        -0.5000 
     60 C           3.8206  -12.4863  -44.5854 C.2       2 UNK         0.5000 
     61 O           3.2890  -13.5839  -44.7617 O.2       2 UNK        -0.5000 
     62 CA          3.1765  -11.2024  -45.1538 C.3       2 UNK         0.1400 
     63 CB          4.1993  -10.3333  -45.9098 C.3       2 UNK        -0.1800 
     64 N           2.0638  -11.4819  -46.0626 N.am      2 UNK        -0.5000 
     65 C           0.8402  -11.9058  -45.7139 C.2       1 UNK         0.5000 
     66 O           0.4865  -12.0880  -44.5474 O.2       1 UNK        -0.5000 
     67 C          -0.9570  -21.8295  -47.4372 C.2       11 UNK         0.5000 
     68 O          -0.3793  -22.4780  -48.3103 O.2       11 UNK        -0.5000 
     69 N          -2.2775  -21.8959  -47.2158 N.am      12 UNK        -0.5000 
     70 CA         -3.1828  -22.7938  -47.9248 C.3       12 UNK         0.1400 
     71 CB         -4.6380  -22.4248  -47.5982 C.3       12 UNK        -0.1800 
     72 C          -2.8997  -24.2760  -47.6214 C.2       12 UNK         0.5000 
     73 O          -2.7572  -25.0656  -48.5553 O.2       12 UNK        -0.5000 
     74 N          -2.8121  -24.6215  -46.3288 N.am      13 UNK        -0.5000 
     75 CA         -2.6010  -25.9874  -45.8444 C.3       13 UNK         0.1400 
     76 CB         -2.7744  -26.0241  -44.3185 C.3       13 UNK        -0.1800 
     77 C          -1.2408  -26.5880  -46.2399 C.2       13 UNK         0.5000 
     78 O          -1.1721  -27.7856  -46.5202 O.2       13 UNK        -0.5000 
     79 N          -0.1941  -25.7563  -46.2647 N.am      14 UNK        -0.5000 
     80 CA          1.1670  -26.1405  -46.6136 C.3       14 UNK         0.1400 
     81 CB          1.9826  -26.2994  -45.3164 C.3       14 UNK        -0.1800 
     82 C           1.7653  -25.0883  -47.5677 C.2       14 UNK         0.5000 
     83 O           2.5357  -24.2396  -47.1196 O.2       14 UNK        -0.5000 
     84 N           1.4368  -25.0938  -48.8667 N.am      15 UNK        -0.5000 
     85 CA          0.5148  -25.9753  -49.5904 C.3       15 UNK         0.1400 
     86 CB          1.2344  -27.2840  -49.9830 C.3       15 UNK        -0.1800 
     87 C          -0.0348  -25.2381  -50.8306 C.2       15 UNK         0.5000 
     88 O          -0.3035  -25.8680  -51.8546 O.2       15 UNK        -0.5000 
     89 N          -0.1397  -23.9056  -50.7489 N.am      16 UNK        -0.5000 
     90 CA         -0.3434  -23.0056  -51.8844 C.3       16 UNK         0.1400 
     91 CB          0.5873  -21.7920  -51.7129 C.3       16 UNK        -0.1800 
     92 C          -1.8143  -22.5977  -52.0939 C.2       16 UNK         0.5000 
     93 O          -2.0693  -21.5679  -52.7199 O.2       16 UNK        -0.5000 
     94 N          -2.7662  -23.4103  -51.6097 N.am      17 UNK        -0.5000 
     95 CA         -4.2109  -23.1857  -51.7501 C.3       17 UNK         0.1400 
     96 CB         -4.9862  -24.3144  -51.0555 C.3       17 UNK        -0.1800 
     97 C          -4.6871  -23.0638  -53.2084 C.2       17 UNK         0.5000 
     98 O          -5.5592  -22.2429  -53.4921 O.2       17 UNK        -0.5000 
     99 N          -4.0991  -23.8676  -54.1037 N.am      18 UNK        -0.5000 
    100 CA        -4.3973  -23.8585  -55.5362 C.3       18 UNK         0.1400 
    101 CB        -3.8608  -25.1505  -56.1706 C.3       18 UNK        -0.1800 
    102 C         -3.8232  -22.6245  -56.2564 C.2       18 UNK         0.5000 
    103 O         -4.4432  -22.1305  -57.1980 O.2       18 UNK        -0.5000 
    104 N         -2.6581  -22.1465  -55.7981 N.am      19 UNK        -0.5000 
    105 CA        -1.9703  -20.9756  -56.3427 C.3       19 UNK         0.1400 
    106 CB        -0.4908  -21.0147  -55.9293 C.3       19 UNK        -0.1800 
    107 C         -2.6314  -19.6632  -55.8905 C.2       19 UNK         0.5000 
    108 O         -2.8022  -18.7531  -56.7022 O.2       19 UNK        -0.5000 
    109 N         -3.0099  -19.6017  -54.6074 N.am      20 UNK        -0.5000 
    110 CA        -3.6988  -18.4657  -53.9943 C.3       20 UNK         0.1400 
    111 CB        -3.5195  -18.5579  -52.4737 C.3       20 UNK        -0.1800 
    112 C         -5.1962  -18.3906  -54.3523 C.2       20 UNK         0.5000 
    113 O         -5.8074  -17.3403  -54.1532 O.2       20 UNK        -0.5000 
    114 N         -5.7542  -19.5033  -54.8535 N.am      21 UNK        -0.5000 
    115 CA        -7.1724  -19.7425  -55.1445 C.3       21 UNK         0.1400 
    116 CB        -7.6953  -18.7895  -56.2396 C.3       21 UNK        -0.1800 
    117 C         -8.0446  -19.7532  -53.8696 C.2       21 UNK         0.5000 
    118 O         -9.2155  -19.3705  -53.9115 O.2       21 UNK        -0.5000 
    119 N         -7.4508  -20.2144  -52.7633 N.am      22 UNK        -0.5000 
    120 CA        -8.1057  -20.4360  -51.4660 C.3       22 UNK         0.1400 
    121 C         -8.7114  -21.8628  -51.3311 C.2       22 UNK         0.5000 
    122 N         -8.3840  -22.8099  -52.2034 N.am      22 UNK        -0.7600 
    123 O         -9.5018  -22.1112  -50.4251 O.2       22 UNK        -0.5000 
    124 C124       -7.1512  -20.1363  -50.2813 C.3       23 UNK        -0.0398 
    125 S125       -6.5608  -18.4103  -50.2766 S.3       23 UNK        -0.2404 
    126 C126       -5.7860  -18.3020  -48.6335 C.3       23 UNK        -0.0205 
    127 H127       -1.1904   -8.3166  -49.0613 H         1 UNK         0.0600 
    128 H128        0.1718   -9.2543  -49.6799 H         1 UNK         0.0600 
    129 H129        0.4487   -7.9706  -48.4995 H         1 UNK         0.0600 
    130 H130        0.2948  -11.2721  -48.7737 H         1 UNK         0.3000 
    131 H131        0.2597  -12.9787  -47.4361 H         1 UNK         0.0600 
    132 H132       -2.3164  -11.9920  -47.1501 H         1 UNK         0.0800 
    133 H133       -1.8564  -12.0562  -45.4895 H         1 UNK         0.0800 
    134 H134       -3.4364  -13.8476  -48.3222 H         1 UNK         0.0800 
    135 H135       -1.7931  -14.0472  -48.8838 H         1 UNK         0.0800 
    136 H136       -4.9247  -15.7578  -48.1348 H         1 UNK         0.1150 
    137 H137       -3.5189  -19.6240  -49.3269 H         1 UNK         0.1150 
    138 H138       -0.7699  -16.3472  -49.0094 H         1 UNK         0.1150 
    139 H139       -1.2588  -20.0223  -49.7855 H         1 UNK         0.0800 
    140 H140       -0.5426  -18.6862  -50.6484 H         1 UNK         0.0800 
    141 H141        0.2433  -18.8089  -46.1831 H         1 UNK         0.0800 
    142 H142       -1.2969  -19.0973  -46.9125 H         1 UNK         0.0800 
    143 H143        0.9051  -21.2046  -46.5821 H         1 UNK         0.0600 
    144 H144       -0.8715  -20.2166  -44.6502 H         1 UNK         0.3000 
    145 H145       -1.2343  -23.1310  -42.6232 H         1 UNK         0.0600 
    146 H146       -0.4667  -21.4063  -40.9937 H         1 UNK         0.0600 
    147 H147        0.8706  -21.9795  -41.9783 H         1 UNK         0.0600 
    148 H148        0.1526  -20.4109  -42.3122 H         1 UNK         0.0600 
    149 H149       -2.3428  -20.4793  -42.5326 H         1 UNK         0.3000 
    150 H150       -5.4132  -21.2660  -44.1898 H         1 UNK         0.0600 
    151 H151       -5.6488  -22.0932  -41.8423 H         1 UNK         0.0600 
    152 H152       -6.3056  -20.4742  -42.0205 H         1 UNK         0.0600 
    153 H153       -4.7365  -20.7100  -41.2503 H         1 UNK         0.0600 
    154 H154       -4.4750  -18.8891  -42.9184 H         1 UNK         0.3000 
    155 H155       -2.9811  -17.4026  -45.7998 H         1 UNK         0.0600 
    156 H156       -4.6334  -15.6729  -45.2683 H         1 UNK         0.0600 
    157 H157       -5.4919  -16.7474  -44.1628 H         1 UNK         0.0600 
    158 H158       -5.4967  -17.0697  -45.8882 H         1 UNK         0.0600 
    159 H159       -3.2611  -16.3277  -43.2386 H         1 UNK         0.3000 
    160 H160       -1.3897  -15.9234  -42.0341 H         1 UNK         0.0600 
    161 H161       -1.0619  -18.7594  -40.8720 H         1 UNK         0.0600 
    162 H162       -2.4948  -17.7532  -40.6924 H         1 UNK         0.0600 
    163 H163       -0.9809  -17.2598  -39.9520 H         1 UNK         0.0600 
    164 H164        0.7250  -17.6041  -43.0362 H         1 UNK         0.3000 
    165 H165        3.2186  -15.2922  -41.9203 H         1 UNK         0.0600 
    166 H166        3.0442  -18.3490  -41.8892 H         1 UNK         0.0600 
    167 H167        4.5317  -17.4063  -41.9861 H         1 UNK         0.0600 
    168 H168        3.5170  -17.3119  -40.5542 H         1 UNK         0.0600 
    169 H169        3.0956  -15.2711  -44.0995 H         1 UNK         0.3000 
    170 H170        2.7721  -17.6653  -46.6815 H         1 UNK         0.0600 
    171 H171        0.5732  -16.4833  -46.4890 H         1 UNK         0.0600 
    172 H172        1.3935  -14.9886  -46.0803 H         1 UNK         0.0600 
    173 H173        1.6079  -15.7073  -47.6756 H         1 UNK         0.0600 
    174 H174        3.8571  -14.9735  -46.0338 H         1 UNK         0.3000 
    175 H175        7.2260  -16.0653  -46.1804 H         1 UNK         0.0600 
    176 H176        5.7235  -14.2615  -48.1548 H         1 UNK         0.0600 
    177 H177        7.4580  -14.2298  -47.8340 H         1 UNK         0.0600 
    178 H178        6.7298  -15.6370  -48.5918 H         1 UNK         0.0600 
    179 H179        5.9675  -13.5019  -45.8245 H         1 UNK         0.3000 
    180 H180        5.1247  -13.7794  -42.4521 H         1 UNK         0.0600 
    181 H181        7.6555  -12.3329  -43.3937 H         1 UNK         0.0600 
    182 H182        7.5900  -13.5210  -42.0976 H         1 UNK         0.0600 
    183 H183        6.7468  -11.9920  -41.9201 H         1 UNK         0.0600 
    184 H184        5.3617  -11.4056  -43.8477 H         1 UNK         0.3000 
    185 H185        2.7917  -10.6289  -44.3083 H         1 UNK         0.0600 
    186 H186        4.6736  -10.8849  -46.7227 H         1 UNK         0.0600 
    187 H187        3.7231   -9.4517  -46.3399 H         1 UNK         0.0600 
    188 H188        4.9885   -9.9716  -45.2502 H         1 UNK         0.0600 
    189 H189        2.2579  -11.3633  -47.0455 H         1 UNK         0.3000 
    190 H190       -2.6959  -21.2876  -46.5183 H         1 UNK         0.3000 
    191 H191       -3.0301  -22.6366  -48.9928 H         1 UNK         0.0600 
    192 H192       -5.3413  -23.1027  -48.0815 H         1 UNK         0.0600 
    193 H193       -4.8693  -21.4184  -47.9432 H         1 UNK         0.0600 
    194 H194       -4.8334  -22.4617  -46.5264 H         1 UNK         0.0600 
    195 H195       -2.9602  -23.9118  -45.6155 H         1 UNK         0.3000 
    196 H196       -3.3762  -26.6161  -46.2872 H         1 UNK         0.0600 
    197 H197       -2.6299  -27.0332  -43.9307 H         1 UNK         0.0600 
    198 H198       -3.7756  -25.7056  -44.0278 H         1 UNK         0.0600 
    199 H199       -2.0564  -25.3728  -43.8185 H         1 UNK         0.0600 
    200 H200       -0.3182  -24.7862  -45.9844 H         1 UNK         0.3000 
    201 H201        1.1783  -27.1053  -47.1173 H         1 UNK         0.0600 
    202 H202        1.5766  -27.0960  -44.6929 H         1 UNK         0.0600 
    203 H203        1.9836  -25.3824  -44.7254 H         1 UNK         0.0600 
    204 H204        3.0201  -26.5540  -45.5354 H         1 UNK         0.0600 
    205 H205        1.8403  -24.3708  -49.4449 H         1 UNK         0.3000 
    206 H206       -0.3445  -26.2134  -48.9655 H         1 UNK         0.0600 
    207 H207        1.6670  -27.8015  -49.1293 H         1 UNK         0.0600 
    208 H208        0.5424  -27.9812  -50.4571 H         1 UNK         0.0600 
    209 H209        2.0423  -27.0938  -50.6906 H         1 UNK         0.0600 
    210 H210       -0.0422  -23.4559  -49.8389 H         1 UNK         0.3000 
    211 H211       -0.0426  -23.5072  -52.8063 H         1 UNK         0.0600 
    212 H212        0.4154  -21.2867  -50.7644 H         1 UNK         0.0600 
    213 H213        0.4558  -21.0592  -52.5095 H         1 UNK         0.0600 
    214 H214        1.6327  -22.0999  -51.7332 H         1 UNK         0.0600 
    215 H215       -2.4777  -24.2366  -51.1040 H         1 UNK         0.3000 
    216 H216       -4.4476  -22.2448  -51.2497 H         1 UNK         0.0600 
    217 H217       -6.0625  -24.1823  -51.1714 H         1 UNK         0.0600 
    218 H218       -4.7868  -24.3402  -49.9880 H         1 UNK         0.0600 
    219 H219       -4.7295  -25.2918  -51.4657 H         1 UNK         0.0600 
    220 H220       -3.3990  -24.5203  -53.7829 H         1 UNK         0.3000 
    221 H221       -5.4821  -23.8423  -55.6631 H         1 UNK         0.0600 
    222 H222       -2.7790  -25.2357  -56.0604 H         1 UNK         0.0600 
    223 H223       -4.3153  -26.0309  -55.7158 H         1 UNK         0.0600 
    224 H224       -4.0861  -25.1843  -57.2374 H         1 UNK         0.0600 
    225 H225       -2.2435  -22.5797  -54.9868 H         1 UNK         0.3000 
    226 H226       -2.0174  -21.0182  -57.4331 H         1 UNK         0.0600 
    227 H227       -0.0036  -21.9195  -56.2929 H         1 UNK         0.0600 
    228 H228        0.0517  -20.1643  -56.3442 H         1 UNK         0.0600 
    229 H229       -0.3716  -20.9817  -54.8462 H         1 UNK         0.0600 
    230 H230       -2.7786  -20.3763  -53.9893 H         1 UNK         0.3000 
    231 H231       -3.2283  -17.5426  -54.3390 H         1 UNK         0.0600 
    232 H232       -3.9702  -17.7007  -51.9716 H         1 UNK         0.0600 
    233 H233       -2.4641  -18.5733  -52.2048 H         1 UNK         0.0600 
    234 H234       -3.9818  -19.4585  -52.0670 H         1 UNK         0.0600 
    235 H235       -5.1567  -20.3135  -54.9435 H         1 UNK         0.3000 
    236 H236       -7.2229  -20.7555  -55.5464 H         1 UNK         0.0600 
    237 H237       -7.0474  -18.8036  -57.1160 H         1 UNK         0.0600 
    238 H238       -8.6919  -19.0852  -56.5689 H         1 UNK         0.0600 
    239 H239       -7.7627  -17.7602  -55.8869 H         1 UNK         0.0600 
    240 H240       -6.5115  -20.5818  -52.8578 H         1 UNK         0.3000 
    241 H241       -8.9482  -19.7468  -51.3832 H         1 UNK         0.0600 
    242 H242       -7.7080  -22.6224  -52.9303 H         1 UNK         0.3800 
    243 H243       -8.7929  -23.7268  -52.1177 H         1 UNK         0.3800 
    244 H244       -7.6579  -20.3208  -49.3321 H         1 UNK         0.0800 
    245 H245       -6.2861  -20.8007  -50.3059 H         1 UNK         0.0800 
    246 H246       -5.7591  -19.2778  -48.1488 H         1 UNK         0.0800 
    247 H247       -6.4062  -17.6673  -47.9999 H         1 UNK         0.0800 
@<TRIPOS>BOND
     1    1    2 1    
     2    1  127 1    
     3    1  128 1    
     4    1  129 1    
     5    2    3 2    
     6    2    4 am   BACKBONE|DICT|INTERRES
     7    4    5 1    
     8    4  130 1    
     9    5    6 1    
    10    5   65 1    
    11    5  131 1    
    12    6    7 1    
    13    6  132 1    
    14    6  133 1    
    15    7    8 1    
    16    8    9 1    
    17    8  134 1    
    18    8  135 1    
    19    9   10 ar   
    20    9   14 ar   
    21   10   11 ar   
    22   10  136 1    
    23   11   12 ar   
    24   11  126 1    
    25   12   13 ar   
    26   12  137 1    
    27   13   14 ar   
    28   13   15 1    
    29   14  138 1    
    30   15   16 1    
    31   15  139 1    
    32   15  140 1    
    33   16   17 1    
    34   17   18 1    
    35   17  141 1    
    36   17  142 1    
    37   18   19 1    
    38   18   67 1    
    39   18  143 1    
    40   19   20 am   BACKBONE|DICT|INTERRES
    41   19  144 1    
    42   20   21 2    
    43   20   22 1    
    44   22   23 1    
    45   22   24 1    
    46   22  145 1    
    47   23  146 1    
    48   23  147 1    
    49   23  148 1    
    50   24   25 am   BACKBONE|DICT|INTERRES
    51   24  149 1    
    52   25   26 2    
    53   25   27 1    
    54   27   28 1    
    55   27   29 1    
    56   27  150 1    
    57   28  151 1    
    58   28  152 1    
    59   28  153 1    
    60   29   30 am   BACKBONE|DICT|INTERRES
    61   29  154 1    
    62   30   31 2    
    63   30   32 1    
    64   32   33 1    
    65   32   34 1    
    66   32  155 1    
    67   33  156 1    
    68   33  157 1    
    69   33  158 1    
    70   34   35 am   BACKBONE|DICT|INTERRES
    71   34  159 1    
    72   35   36 2    
    73   35   37 1    
    74   37   38 1    
    75   37   39 1    
    76   37  160 1    
    77   38  161 1    
    78   38  162 1    
    79   38  163 1    
    80   39   40 am   BACKBONE|DICT|INTERRES
    81   39  164 1    
    82   40   41 2    
    83   40   42 1    
    84   42   43 1    
    85   42   44 1    
    86   42  165 1    
    87   43  166 1    
    88   43  167 1    
    89   43  168 1    
    90   44   45 am   BACKBONE|DICT|INTERRES
    91   44  169 1    
    92   45   46 2    
    93   45   47 1    
    94   47   48 1    
    95   47   49 1    
    96   47  170 1    
    97   48  171 1    
    98   48  172 1    
    99   48  173 1    
   100   49   50 am   BACKBONE|DICT|INTERRES
   101   49  174 1    
   102   50   51 2    
   103   50   52 1    
   104   52   53 1    
   105   52   54 1    
   106   52  175 1    
   107   53  176 1    
   108   53  177 1    
   109   53  178 1    
   110   54   55 am   BACKBONE|DICT|INTERRES
   111   54  179 1    
   112   55   56 2    
   113   55   57 1    
   114   57   58 1    
   115   57   59 1    
   116   57  180 1    
   117   58  181 1    
   118   58  182 1    
   119   58  183 1    
   120   59   60 am   BACKBONE|DICT|INTERRES
   121   59  184 1    
   122   60   61 2    
   123   60   62 1    
   124   62   63 1    
   125   62   64 1    
   126   62  185 1    
   127   63  186 1    
   128   63  187 1    
   129   63  188 1    
   130   64   65 am   BACKBONE|DICT|INTERRES
   131   64  189 1    
   132   65   66 2    
   133   67   68 2    
   134   67   69 am   BACKBONE|DICT|INTERRES
   135   69   70 1    
   136   69  190 1    
   137   70   71 1    
   138   70   72 1    
   139   70  191 1    
   140   71  192 1    
   141   71  193 1    
   142   71  194 1    
   143   72   73 2    
   144   72   74 am   BACKBONE|DICT|INTERRES
   145   74   75 1    
   146   74  195 1    
   147   75   76 1    
   148   75   77 1    
   149   75  196 1    
   150   76  197 1    
   151   76  198 1    
   152   76  199 1    
   153   77   78 2    
   154   77   79 am   BACKBONE|DICT|INTERRES
   155   79   80 1    
   156   79  200 1    
   157   80   81 1    
   158   80   82 1    
   159   80  201 1    
   160   81  202 1    
   161   81  203 1    
   162   81  204 1    
   163   82   83 2    
   164   82   84 am   BACKBONE|DICT|INTERRES
   165   84   85 1    
   166   84  205 1    
   167   85   86 1    
   168   85   87 1    
   169   85  206 1    
   170   86  207 1    
   171   86  208 1    
   172   86  209 1    
   173   87   88 2    
   174   87   89 am   BACKBONE|DICT|INTERRES
   175   89   90 1    
   176   89  210 1    
   177   90   91 1    
   178   90   92 1    
   179   90  211 1    
   180   91  212 1    
   181   91  213 1    
   182   91  214 1    
   183   92   93 2    
   184   92   94 am   BACKBONE|DICT|INTERRES
   185   94   95 1    
   186   94  215 1    
   187   95   96 1    
   188   95   97 1    
   189   95  216 1    
   190   96  217 1    
   191   96  218 1    
   192   96  219 1    
   193   97   98 2    
   194   97   99 am   BACKBONE|DICT|INTERRES
   195   99  100 1    
   196   99  220 1    
   197  100  101 1    
   198  100  102 1    
   199  100  221 1    
   200  101  222 1    
   201  101  223 1    
   202  101  224 1    
   203  102  103 2    
   204  102  104 am   BACKBONE|DICT|INTERRES
   205  104  105 1    
   206  104  225 1    
   207  105  106 1    
   208  105  107 1    
   209  105  226 1    
   210  106  227 1    
   211  106  228 1    
   212  106  229 1    
   213  107  108 2    
   214  107  109 am   BACKBONE|DICT|INTERRES
   215  109  110 1    
   216  109  230 1    
   217  110  111 1    
   218  110  112 1    
   219  110  231 1    
   220  111  232 1    
   221  111  233 1    
   222  111  234 1    
   223  112  113 2    
   224  112  114 am   BACKBONE|DICT|INTERRES
   225  114  115 1    
   226  114  235 1    
   227  115  116 1    
   228  115  117 1    
   229  115  236 1    
   230  116  237 1    
   231  116  238 1    
   232  116  239 1    
   233  117  118 2    
   234  117  119 am   BACKBONE|DICT|INTERRES
   235  119  120 1    
   236  119  240 1    
   237  120  121 1    
   238  120  124 1    
   239  120  241 1    
   240  121  122 am   BACKBONE|DICT|INTERRES
   241  121  123 2    
   242  122  242 1    
   243  122  243 1    
   244  124  125 1    
   245  124  244 1    
   246  124  245 1    
   247  125  126 1    
   248  126  246 1    
   249  126  247 1    
@<TRIPOS>SUBSTRUCTURE
     1 UNK         1 GROUP             0       ****    0 ROOT    
