@<TRIPOS>MOLECULE
3R540
247   249    1
SMALL
USER_CHARGES


@<TRIPOS>ATOM
      1 CA          3.8805  -16.7092  -46.2414 C.3       0 UNK        -0.1800 
      2 C           3.3390  -15.3104  -45.9858 C.2       0 UNK         0.5000 
      3 O           3.4967  -14.7853  -44.8850 O.2       0 UNK        -0.5000 
      4 N           2.7218  -14.7006  -47.0068 N.am      1 UNK        -0.5000 
      5 CA          2.0466  -13.3919  -46.9709 C.3       1 UNK         0.1400 
      6 C6          1.4038  -13.0272  -48.3348 C.3       23 UNK        -0.0398 
      7 S7          0.3264  -14.3431  -49.0010 S.3       23 UNK        -0.2404 
      8 C8          1.3962  -15.0176  -50.3157 C.3       23 UNK        -0.0205 
      9 C9          0.9359  -16.3892  -50.7880 C.ar      23 UNK        -0.0193 
     10 C10         0.6051  -16.6103  -52.1296 C.ar      23 UNK        -0.1150 
     11 C11         0.2237  -17.8839  -52.5674 C.ar      23 UNK        -0.0193 
     12 C12         0.1696  -18.9381  -51.6514 C.ar      23 UNK        -0.1150 
     13 C13         0.4749  -18.7218  -50.3053 C.ar      23 UNK        -0.0193 
     14 C14         0.8690  -17.4513  -49.8824 C.ar      23 UNK        -0.1150 
     15 C15         0.3218  -19.8373  -49.2904 C.3       23 UNK        -0.0205 
     16 S16         1.9216  -20.5224  -48.7469 S.3       23 UNK        -0.2404 
     17 C17         1.6608  -20.6074  -46.9371 C.3       23 UNK        -0.0398 
     18 CA          0.9935  -21.8993  -46.3879 C.3       11 UNK         0.1400 
     19 N           0.7061  -21.7711  -44.9595 N.am      11 UNK        -0.5000 
     20 C           0.2569  -22.7478  -44.1593 C.2       10 UNK         0.5000 
     21 O           0.1409  -23.9240  -44.5050 O.2       10 UNK        -0.5000 
     22 CA         -0.1884  -22.3205  -42.7483 C.3       10 UNK         0.1400 
     23 CB          1.0178  -22.2077  -41.8042 C.3       10 UNK        -0.1800 
     24 N          -0.9320  -21.0573  -42.7515 N.am      10 UNK        -0.5000 
     25 C          -2.1101  -20.8722  -43.3662 C.2       9 UNK         0.5000 
     26 O          -2.7167  -21.7626  -43.9631 O.2       9 UNK        -0.5000 
     27 CA         -2.6903  -19.4458  -43.3462 C.3       9 UNK         0.1400 
     28 CB         -3.3584  -19.1450  -41.9964 C.3       9 UNK        -0.1800 
     29 N          -1.6892  -18.4196  -43.6425 N.am      9 UNK        -0.5000 
     30 C          -1.0491  -18.2964  -44.8142 C.2       8 UNK         0.5000 
     31 O          -1.2592  -19.0183  -45.7858 O.2       8 UNK        -0.5000 
     32 CA          0.0516  -17.2255  -44.9051 C.3       8 UNK         0.1400 
     33 CB         -0.5573  -15.8331  -45.1166 C.3       8 UNK        -0.1800 
     34 N           0.9150  -17.2153  -43.7257 N.am      8 UNK        -0.5000 
     35 C           1.6669  -18.2477  -43.3182 C.2       7 UNK         0.5000 
     36 O           1.7646  -19.3093  -43.9325 O.2       7 UNK        -0.5000 
     37 CA          2.3854  -18.0868  -41.9692 C.3       7 UNK         0.1400 
     38 CB          3.6876  -17.2882  -42.1271 C.3       7 UNK        -0.1800 
     39 N           1.5246  -17.4473  -40.9741 N.am      7 UNK        -0.5000 
     40 C           0.4334  -18.0175  -40.4424 C.2       6 UNK         0.5000 
     41 O           0.0678  -19.1648  -40.6978 O.2       6 UNK        -0.5000 
     42 CA         -0.4131  -17.1407  -39.5015 C.3       6 UNK         0.1400 
     43 CB          0.1705  -17.1500  -38.0809 C.3       6 UNK        -0.1800 
     44 N          -0.5202  -15.7591  -39.9734 N.am      6 UNK        -0.5000 
     45 C          -1.1759  -15.3857  -41.0821 C.2       5 UNK         0.5000 
     46 O          -1.8097  -16.1645  -41.7928 O.2       5 UNK        -0.5000 
     47 CA         -1.0590  -13.9036  -41.4910 C.3       5 UNK         0.1400 
     48 CB         -2.1527  -13.0670  -40.8112 C.3       5 UNK        -0.1800 
     49 N           0.2560  -13.3301  -41.1852 N.am      5 UNK        -0.5000 
     50 C           1.4028  -13.7481  -41.7362 C.2       4 UNK         0.5000 
     51 O           1.4619  -14.6346  -42.5886 O.2       4 UNK        -0.5000 
     52 CA          2.6937  -13.1431  -41.1742 C.3       4 UNK         0.1400 
     53 CB          3.0385  -13.8320  -39.8355 C.3       4 UNK        -0.1800 
     54 N           3.7831  -13.3171  -42.1347 N.am      4 UNK        -0.5000 
     55 C           4.9991  -12.7671  -42.0205 C.2       3 UNK         0.5000 
     56 O           5.3178  -11.9906  -41.1187 O.2       3 UNK        -0.5000 
     57 CA          6.0355  -13.1323  -43.0926 C.3       3 UNK         0.1400 
     58 CB          6.3867  -14.6297  -43.0589 C.3       3 UNK        -0.1800 
     59 N           5.5676  -12.7595  -44.4244 N.am      3 UNK        -0.5000 
     60 C           5.7868  -11.5659  -44.9940 C.2       2 UNK         0.5000 
     61 O           6.3992  -10.6511  -44.4411 O.2       2 UNK        -0.5000 
     62 CA          5.2698  -11.3499  -46.4304 C.3       2 UNK         0.1400 
     63 CB          6.4318  -11.4263  -47.4335 C.3       2 UNK        -0.1800 
     64 N           4.2476  -12.3162  -46.8290 N.am      2 UNK        -0.5000 
     65 C           2.9529  -12.2360  -46.4958 C.2       1 UNK         0.5000 
     66 O           2.4704  -11.3113  -45.8410 O.2       1 UNK        -0.5000 
     67 C          -0.2803  -22.3076  -47.1580 C.2       11 UNK         0.5000 
     68 O          -0.2594  -23.3125  -47.8666 O.2       11 UNK        -0.5000 
     69 N          -1.3683  -21.5401  -46.9931 N.am      12 UNK        -0.5000 
     70 CA         -2.6366  -21.7101  -47.7041 C.3       12 UNK         0.1400 
     71 CB         -3.6067  -20.5822  -47.3252 C.3       12 UNK        -0.1800 
     72 C          -3.2958  -23.0785  -47.4872 C.2       12 UNK         0.5000 
     73 O          -3.8472  -23.6314  -48.4385 O.2       12 UNK        -0.5000 
     74 N          -3.1868  -23.6122  -46.2642 N.am      13 UNK        -0.5000 
     75 CA         -3.6601  -24.9442  -45.8894 C.3       13 UNK         0.1400 
     76 CB         -3.5071  -25.1188  -44.3708 C.3       13 UNK        -0.1800 
     77 C          -2.9469  -26.0877  -46.6394 C.2       13 UNK         0.5000 
     78 O          -3.5690  -27.1206  -46.8905 O.2       13 UNK        -0.5000 
     79 N          -1.6690  -25.8863  -46.9871 N.am      14 UNK        -0.5000 
     80 CA         -0.8583  -26.8398  -47.7420 C.3       14 UNK         0.1400 
     81 CB          0.6033  -26.7353  -47.2775 C.3       14 UNK        -0.1800 
     82 C          -0.9647  -26.6011  -49.2581 C.2       14 UNK         0.5000 
     83 O          -1.1057  -27.5601  -50.0177 O.2       14 UNK        -0.5000 
     84 N          -0.8801  -25.3300  -49.6711 N.am      15 UNK        -0.5000 
     85 CA         -0.8387  -24.9011  -51.0694 C.3       15 UNK         0.1400 
     86 CB         -0.2687  -23.4743  -51.1289 C.3       15 UNK        -0.1800 
     87 C          -2.2021  -24.9421  -51.7809 C.2       15 UNK         0.5000 
     88 O          -2.2245  -24.9847  -53.0103 O.2       15 UNK        -0.5000 
     89 N          -3.2985  -24.8879  -51.0089 N.am      16 UNK        -0.5000 
     90 CA         -4.6845  -24.7013  -51.4551 C.3       16 UNK         0.1400 
     91 CB         -5.1588  -25.8673  -52.3473 C.3       16 UNK        -0.1800 
     92 C          -4.8883  -23.3125  -52.0976 C.2       16 UNK         0.5000 
     93 O          -5.5715  -23.1812  -53.1139 O.2       16 UNK        -0.5000 
     94 N          -4.2775  -22.2867  -51.4852 N.am      17 UNK        -0.5000 
     95 CA         -4.2632  -20.8989  -51.9638 C.3       17 UNK         0.1400 
     96 CB         -3.3038  -20.0731  -51.0973 C.3       17 UNK        -0.1800 
     97 C          -5.6505  -20.2325  -52.0153 C.2       17 UNK         0.5000 
     98 O          -5.8276  -19.2709  -52.7633 O.2       17 UNK        -0.5000 
     99 N          -6.6081  -20.7626  -51.2426 N.am      18 UNK        -0.5000 
    100 CA        -8.0131  -20.3639  -51.2030 C.3       18 UNK         0.1400 
    101 CB        -8.6638  -20.9945  -49.9592 C.3       18 UNK        -0.1800 
    102 C         -8.7554  -20.7311  -52.5063 C.2       18 UNK         0.5000 
    103 O         -9.5169  -21.6986  -52.5394 O.2       18 UNK        -0.5000 
    104 N         -8.4864  -19.9550  -53.5629 N.am      19 UNK        -0.5000 
    105 CA        -9.0869  -19.9496  -54.9032 C.3       19 UNK         0.1400 
    106 CB       -10.6057  -19.6984  -54.8238 C.3       19 UNK        -0.1800 
    107 C         -8.7751  -21.1667  -55.7987 C.2       19 UNK         0.5000 
    108 O         -8.8852  -21.0361  -57.0186 O.2       19 UNK        -0.5000 
    109 N         -8.4010  -22.3149  -55.2187 N.am      20 UNK        -0.5000 
    110 CA        -8.0606  -23.5328  -55.9576 C.3       20 UNK         0.1400 
    111 CB        -8.0896  -24.7452  -55.0153 C.3       20 UNK        -0.1800 
    112 C         -6.7128  -23.4116  -56.6926 C.2       20 UNK         0.5000 
    113 O         -6.6359  -23.7581  -57.8726 O.2       20 UNK        -0.5000 
    114 N         -5.6913  -22.9010  -55.9925 N.am      21 UNK        -0.5000 
    115 CA        -4.3871  -22.5513  -56.5498 C.3       21 UNK         0.1400 
    116 CB        -3.2793  -22.9333  -55.5495 C.3       21 UNK        -0.1800 
    117 C         -4.3808  -21.0674  -56.9709 C.2       21 UNK         0.5000 
    118 O         -5.1006  -20.7078  -57.9039 O.2       21 UNK        -0.5000 
    119 N         -3.5535  -20.2380  -56.3199 N.am      22 UNK        -0.5000 
    120 CA        -3.3336  -18.8264  -56.6797 C.3       22 UNK         0.1400 
    121 C         -4.5266  -17.8587  -56.4236 C.2       22 UNK         0.5000 
    122 N         -5.4560  -18.1614  -55.5271 N.am      22 UNK        -0.7600 
    123 O         -4.6151  -16.8148  -57.0646 O.2       22 UNK        -0.5000 
    124 C124       -2.0063  -18.2795  -56.0938 C.3       23 UNK        -0.0398 
    125 S125       -1.9199  -18.3027  -54.2691 S.3       23 UNK        -0.2404 
    126 C126       -0.1245  -18.1268  -54.0284 C.3       23 UNK        -0.0205 
    127 H127        4.9618  -16.7216  -46.1060 H         1 UNK         0.0600 
    128 H128        3.4420  -17.4163  -45.5388 H         1 UNK         0.0600 
    129 H129        3.6574  -17.0539  -47.2515 H         1 UNK         0.0600 
    130 H130        2.6272  -15.1978  -47.8791 H         1 UNK         0.3000 
    131 H131        1.2440  -13.4703  -46.2376 H         1 UNK         0.0600 
    132 H132        0.7943  -12.1277  -48.2308 H         1 UNK         0.0800 
    133 H133        2.1708  -12.7831  -49.0723 H         1 UNK         0.0800 
    134 H134        1.4221  -14.3095  -51.1455 H         1 UNK         0.0800 
    135 H135        2.4213  -15.1066  -49.9547 H         1 UNK         0.0800 
    136 H136        0.6528  -15.7934  -52.8360 H         1 UNK         0.1150 
    137 H137       -0.1338  -19.9201  -51.9862 H         1 UNK         0.1150 
    138 H138        1.1102  -17.2868  -48.8415 H         1 UNK         0.1150 
    139 H139       -0.2435  -19.4451  -48.4443 H         1 UNK         0.0800 
    140 H140       -0.2787  -20.6466  -49.7042 H         1 UNK         0.0800 
    141 H141        1.1003  -19.7262  -46.6294 H         1 UNK         0.0800 
    142 H142        2.6381  -20.4924  -46.4664 H         1 UNK         0.0800 
    143 H143        1.7099  -22.7152  -46.5033 H         1 UNK         0.0600 
    144 H144        0.8314  -20.8442  -44.5611 H         1 UNK         0.3000 
    145 H145       -0.8523  -23.0963  -42.3616 H         1 UNK         0.0600 
    146 H146        0.7010  -21.9783  -40.7867 H         1 UNK         0.0600 
    147 H147        1.5751  -23.1445  -41.7687 H         1 UNK         0.0600 
    148 H148        1.7078  -21.4261  -42.1230 H         1 UNK         0.0600 
    149 H149       -0.5182  -20.2838  -42.2399 H         1 UNK         0.3000 
    150 H150       -3.4587  -19.3906  -44.1196 H         1 UNK         0.0600 
    151 H151       -4.1224  -19.8880  -41.7645 H         1 UNK         0.0600 
    152 H152       -3.8457  -18.1699  -42.0076 H         1 UNK         0.0600 
    153 H153       -2.6376  -19.1481  -41.1787 H         1 UNK         0.0600 
    154 H154       -1.4996  -17.7432  -42.9089 H         1 UNK         0.3000 
    155 H155        0.6803  -17.4536  -45.7678 H         1 UNK         0.0600 
    156 H156       -1.0372  -15.7634  -46.0935 H         1 UNK         0.0600 
    157 H157        0.2076  -15.0611  -45.0688 H         1 UNK         0.0600 
    158 H158       -1.3088  -15.5979  -44.3637 H         1 UNK         0.0600 
    159 H159        0.9570  -16.3463  -43.1991 H         1 UNK         0.3000 
    160 H160        2.6425  -19.0841  -41.6062 H         1 UNK         0.0600 
    161 H161        4.2247  -17.2143  -41.1816 H         1 UNK         0.0600 
    162 H162        3.5004  -16.2771  -42.4857 H         1 UNK         0.0600 
    163 H163        4.3542  -17.7684  -42.8444 H         1 UNK         0.0600 
    164 H164        1.7243  -16.4842  -40.7538 H         1 UNK         0.3000 
    165 H165       -1.4178  -17.5671  -39.4616 H         1 UNK         0.0600 
    166 H166       -0.4635  -16.5928  -37.3910 H         1 UNK         0.0600 
    167 H167        0.2484  -18.1686  -37.6984 H         1 UNK         0.0600 
    168 H168        1.1683  -16.7103  -38.0502 H         1 UNK         0.0600 
    169 H169       -0.0351  -15.0538  -39.4397 H         1 UNK         0.3000 
    170 H170       -1.2073  -13.8460  -42.5712 H         1 UNK         0.0600 
    171 H171       -3.1437  -13.4616  -41.0398 H         1 UNK         0.0600 
    172 H172       -2.0429  -13.0634  -39.7260 H         1 UNK         0.0600 
    173 H173       -2.1291  -12.0328  -41.1552 H         1 UNK         0.0600 
    174 H174        0.2804  -12.6039  -40.4837 H         1 UNK         0.3000 
    175 H175        2.5332  -12.0754  -41.0127 H         1 UNK         0.0600 
    176 H176        3.8931  -13.3637  -39.3483 H         1 UNK         0.0600 
    177 H177        2.2077  -13.7735  -39.1314 H         1 UNK         0.0600 
    178 H178        3.2757  -14.8869  -39.9776 H         1 UNK         0.0600 
    179 H179        3.5615  -13.9102  -42.9315 H         1 UNK         0.3000 
    180 H180        6.9532  -12.5857  -42.8639 H         1 UNK         0.0600 
    181 H181        5.5383  -15.2591  -43.3227 H         1 UNK         0.0600 
    182 H182        6.7192  -14.9296  -42.0644 H         1 UNK         0.0600 
    183 H183        7.1950  -14.8567  -43.7539 H         1 UNK         0.0600 
    184 H184        4.9711  -13.4323  -44.8932 H         1 UNK         0.3000 
    185 H185        4.8459  -10.3445  -46.4793 H         1 UNK         0.0600 
    186 H186        6.0922  -11.2155  -48.4478 H         1 UNK         0.0600 
    187 H187        7.2051  -10.6953  -47.1934 H         1 UNK         0.0600 
    188 H188        6.9001  -12.4114  -47.4330 H         1 UNK         0.0600 
    189 H189        4.5601  -13.1169  -47.3587 H         1 UNK         0.3000 
    190 H190       -1.3029  -20.7143  -46.4004 H         1 UNK         0.3000 
    191 H191       -2.4168  -21.6278  -48.7687 H         1 UNK         0.0600 
    192 H192       -3.2025  -19.6066  -47.5954 H         1 UNK         0.0600 
    193 H193       -3.8137  -20.5746  -46.2552 H         1 UNK         0.0600 
    194 H194       -4.5609  -20.6926  -47.8422 H         1 UNK         0.0600 
    195 H195       -2.7620  -23.0540  -45.5296 H         1 UNK         0.3000 
    196 H196       -4.7222  -25.0011  -46.1358 H         1 UNK         0.0600 
    197 H197       -2.4645  -25.0355  -44.0611 H         1 UNK         0.0600 
    198 H198       -3.8700  -26.0958  -44.0495 H         1 UNK         0.0600 
    199 H199       -4.0775  -24.3648  -43.8281 H         1 UNK         0.0600 
    200 H200       -1.2390  -24.9952  -46.7721 H         1 UNK         0.3000 
    201 H201       -1.1994  -27.8568  -47.5368 H         1 UNK         0.0600 
    202 H202        1.0121  -25.7376  -47.4421 H         1 UNK         0.0600 
    203 H203        1.2356  -27.4428  -47.8152 H         1 UNK         0.0600 
    204 H204        0.6939  -26.9596  -46.2145 H         1 UNK         0.0600 
    205 H205       -0.7242  -24.6019  -48.9750 H         1 UNK         0.3000 
    206 H206       -0.1613  -25.5631  -51.6129 H         1 UNK         0.0600 
    207 H207        0.7180  -23.4204  -50.6680 H         1 UNK         0.0600 
    208 H208       -0.1657  -23.1337  -52.1600 H         1 UNK         0.0600 
    209 H209       -0.9175  -22.7664  -50.6132 H         1 UNK         0.0600 
    210 H210       -3.1657  -24.8197  -50.0059 H         1 UNK         0.3000 
    211 H211       -5.2971  -24.7133  -50.5527 H         1 UNK         0.0600 
    212 H212       -4.7010  -25.8391  -53.3366 H         1 UNK         0.0600 
    213 H213       -6.2390  -25.8300  -52.4875 H         1 UNK         0.0600 
    214 H214       -4.9252  -26.8310  -51.8951 H         1 UNK         0.0600 
    215 H215       -3.7625  -22.4869  -50.6405 H         1 UNK         0.3000 
    216 H216       -3.8727  -20.9005  -52.9816 H         1 UNK         0.0600 
    217 H217       -2.3160  -20.5295  -51.0583 H         1 UNK         0.0600 
    218 H218       -3.1794  -19.0682  -51.5029 H         1 UNK         0.0600 
    219 H219       -3.6737  -19.9659  -50.0789 H         1 UNK         0.0600 
    220 H220       -6.3617  -21.5684  -50.6882 H         1 UNK         0.3000 
    221 H221       -8.0606  -19.2788  -51.0891 H         1 UNK         0.0600 
    222 H222       -8.6120  -22.0838  -49.9835 H         1 UNK         0.0600 
    223 H223       -8.1758  -20.6565  -49.0449 H         1 UNK         0.0600 
    224 H224       -9.7161  -20.7168  -49.8861 H         1 UNK         0.0600 
    225 H225       -7.7392  -19.2809  -53.4305 H         1 UNK         0.3000 
    226 H226       -8.6436  -19.0904  -55.4091 H         1 UNK         0.0600 
    227 H227      -11.1316  -20.5293  -54.3529 H         1 UNK         0.0600 
    228 H228      -10.8276  -18.7944  -54.2566 H         1 UNK         0.0600 
    229 H229      -11.0317  -19.5685  -55.8195 H         1 UNK         0.0600 
    230 H230       -8.3854  -22.3595  -54.2075 H         1 UNK         0.3000 
    231 H231       -8.8310  -23.6931  -56.7151 H         1 UNK         0.0600 
    232 H232       -9.0823  -24.8863  -54.5878 H         1 UNK         0.0600 
    233 H233       -7.3866  -24.6354  -54.1925 H         1 UNK         0.0600 
    234 H234       -7.8308  -25.6608  -55.5484 H         1 UNK         0.0600 
    235 H235       -5.8245  -22.7185  -55.0022 H         1 UNK         0.3000 
    236 H236       -4.2070  -23.1318  -57.4567 H         1 UNK         0.0600 
    237 H237       -3.3127  -24.0006  -55.3304 H         1 UNK         0.0600 
    238 H238       -2.2891  -22.7224  -55.9550 H         1 UNK         0.0600 
    239 H239       -3.3727  -22.4058  -54.6026 H         1 UNK         0.0600 
    240 H240       -2.9961  -20.5929  -55.5576 H         1 UNK         0.3000 
    241 H241       -3.2019  -18.8162  -57.7638 H         1 UNK         0.0600 
    242 H242       -5.3526  -18.9535  -54.9105 H         1 UNK         0.3800 
    243 H243       -6.2091  -17.5110  -55.3751 H         1 UNK         0.3800 
    244 H244       -1.1759  -18.8685  -56.4857 H         1 UNK         0.0800 
    245 H245       -1.8291  -17.2585  -56.4368 H         1 UNK         0.0800 
    246 H246        0.3787  -19.0290  -54.3794 H         1 UNK         0.0800 
    247 H247        0.2440  -17.3062  -54.6460 H         1 UNK         0.0800 
@<TRIPOS>BOND
     1    1    2 1    
     2    1  127 1    
     3    1  128 1    
     4    1  129 1    
     5    2    3 2    
     6    2    4 am   BACKBONE|DICT|INTERRES
     7    4    5 1    
     8    4  130 1    
     9    5    6 1    
    10    5   65 1    
    11    5  131 1    
    12    6    7 1    
    13    6  132 1    
    14    6  133 1    
    15    7    8 1    
    16    8    9 1    
    17    8  134 1    
    18    8  135 1    
    19    9   10 ar   
    20    9   14 ar   
    21   10   11 ar   
    22   10  136 1    
    23   11   12 ar   
    24   11  126 1    
    25   12   13 ar   
    26   12  137 1    
    27   13   14 ar   
    28   13   15 1    
    29   14  138 1    
    30   15   16 1    
    31   15  139 1    
    32   15  140 1    
    33   16   17 1    
    34   17   18 1    
    35   17  141 1    
    36   17  142 1    
    37   18   19 1    
    38   18   67 1    
    39   18  143 1    
    40   19   20 am   BACKBONE|DICT|INTERRES
    41   19  144 1    
    42   20   21 2    
    43   20   22 1    
    44   22   23 1    
    45   22   24 1    
    46   22  145 1    
    47   23  146 1    
    48   23  147 1    
    49   23  148 1    
    50   24   25 am   BACKBONE|DICT|INTERRES
    51   24  149 1    
    52   25   26 2    
    53   25   27 1    
    54   27   28 1    
    55   27   29 1    
    56   27  150 1    
    57   28  151 1    
    58   28  152 1    
    59   28  153 1    
    60   29   30 am   BACKBONE|DICT|INTERRES
    61   29  154 1    
    62   30   31 2    
    63   30   32 1    
    64   32   33 1    
    65   32   34 1    
    66   32  155 1    
    67   33  156 1    
    68   33  157 1    
    69   33  158 1    
    70   34   35 am   BACKBONE|DICT|INTERRES
    71   34  159 1    
    72   35   36 2    
    73   35   37 1    
    74   37   38 1    
    75   37   39 1    
    76   37  160 1    
    77   38  161 1    
    78   38  162 1    
    79   38  163 1    
    80   39   40 am   BACKBONE|DICT|INTERRES
    81   39  164 1    
    82   40   41 2    
    83   40   42 1    
    84   42   43 1    
    85   42   44 1    
    86   42  165 1    
    87   43  166 1    
    88   43  167 1    
    89   43  168 1    
    90   44   45 am   BACKBONE|DICT|INTERRES
    91   44  169 1    
    92   45   46 2    
    93   45   47 1    
    94   47   48 1    
    95   47   49 1    
    96   47  170 1    
    97   48  171 1    
    98   48  172 1    
    99   48  173 1    
   100   49   50 am   BACKBONE|DICT|INTERRES
   101   49  174 1    
   102   50   51 2    
   103   50   52 1    
   104   52   53 1    
   105   52   54 1    
   106   52  175 1    
   107   53  176 1    
   108   53  177 1    
   109   53  178 1    
   110   54   55 am   BACKBONE|DICT|INTERRES
   111   54  179 1    
   112   55   56 2    
   113   55   57 1    
   114   57   58 1    
   115   57   59 1    
   116   57  180 1    
   117   58  181 1    
   118   58  182 1    
   119   58  183 1    
   120   59   60 am   BACKBONE|DICT|INTERRES
   121   59  184 1    
   122   60   61 2    
   123   60   62 1    
   124   62   63 1    
   125   62   64 1    
   126   62  185 1    
   127   63  186 1    
   128   63  187 1    
   129   63  188 1    
   130   64   65 am   BACKBONE|DICT|INTERRES
   131   64  189 1    
   132   65   66 2    
   133   67   68 2    
   134   67   69 am   BACKBONE|DICT|INTERRES
   135   69   70 1    
   136   69  190 1    
   137   70   71 1    
   138   70   72 1    
   139   70  191 1    
   140   71  192 1    
   141   71  193 1    
   142   71  194 1    
   143   72   73 2    
   144   72   74 am   BACKBONE|DICT|INTERRES
   145   74   75 1    
   146   74  195 1    
   147   75   76 1    
   148   75   77 1    
   149   75  196 1    
   150   76  197 1    
   151   76  198 1    
   152   76  199 1    
   153   77   78 2    
   154   77   79 am   BACKBONE|DICT|INTERRES
   155   79   80 1    
   156   79  200 1    
   157   80   81 1    
   158   80   82 1    
   159   80  201 1    
   160   81  202 1    
   161   81  203 1    
   162   81  204 1    
   163   82   83 2    
   164   82   84 am   BACKBONE|DICT|INTERRES
   165   84   85 1    
   166   84  205 1    
   167   85   86 1    
   168   85   87 1    
   169   85  206 1    
   170   86  207 1    
   171   86  208 1    
   172   86  209 1    
   173   87   88 2    
   174   87   89 am   BACKBONE|DICT|INTERRES
   175   89   90 1    
   176   89  210 1    
   177   90   91 1    
   178   90   92 1    
   179   90  211 1    
   180   91  212 1    
   181   91  213 1    
   182   91  214 1    
   183   92   93 2    
   184   92   94 am   BACKBONE|DICT|INTERRES
   185   94   95 1    
   186   94  215 1    
   187   95   96 1    
   188   95   97 1    
   189   95  216 1    
   190   96  217 1    
   191   96  218 1    
   192   96  219 1    
   193   97   98 2    
   194   97   99 am   BACKBONE|DICT|INTERRES
   195   99  100 1    
   196   99  220 1    
   197  100  101 1    
   198  100  102 1    
   199  100  221 1    
   200  101  222 1    
   201  101  223 1    
   202  101  224 1    
   203  102  103 2    
   204  102  104 am   BACKBONE|DICT|INTERRES
   205  104  105 1    
   206  104  225 1    
   207  105  106 1    
   208  105  107 1    
   209  105  226 1    
   210  106  227 1    
   211  106  228 1    
   212  106  229 1    
   213  107  108 2    
   214  107  109 am   BACKBONE|DICT|INTERRES
   215  109  110 1    
   216  109  230 1    
   217  110  111 1    
   218  110  112 1    
   219  110  231 1    
   220  111  232 1    
   221  111  233 1    
   222  111  234 1    
   223  112  113 2    
   224  112  114 am   BACKBONE|DICT|INTERRES
   225  114  115 1    
   226  114  235 1    
   227  115  116 1    
   228  115  117 1    
   229  115  236 1    
   230  116  237 1    
   231  116  238 1    
   232  116  239 1    
   233  117  118 2    
   234  117  119 am   BACKBONE|DICT|INTERRES
   235  119  120 1    
   236  119  240 1    
   237  120  121 1    
   238  120  124 1    
   239  120  241 1    
   240  121  122 am   BACKBONE|DICT|INTERRES
   241  121  123 2    
   242  122  242 1    
   243  122  243 1    
   244  124  125 1    
   245  124  244 1    
   246  124  245 1    
   247  125  126 1    
   248  126  246 1    
   249  126  247 1    
@<TRIPOS>SUBSTRUCTURE
     1 UNK         1 GROUP             0       ****    0 ROOT    
