@<TRIPOS>MOLECULE
3R540
247   249    1
SMALL
USER_CHARGES


@<TRIPOS>ATOM
      1 CA          9.1463  -14.3887  -46.5064 C.3       0 UNK        -0.1800 
      2 C           7.7852  -14.3708  -45.8252 C.2       0 UNK         0.5000 
      3 O           7.6311  -14.9482  -44.7491 O.2       0 UNK        -0.5000 
      4 N           6.7997  -13.7112  -46.4477 N.am      1 UNK        -0.5000 
      5 CA          5.4210  -13.5971  -45.9521 C.3       1 UNK         0.1400 
      6 C6          4.4462  -13.1066  -47.0516 C.3       23 UNK        -0.0398 
      7 S7          4.3935  -14.2257  -48.4890 S.3       23 UNK        -0.2404 
      8 C8          2.8448  -15.1114  -48.1510 C.3       23 UNK        -0.0205 
      9 C9          2.6643  -16.2868  -49.0934 C.ar      23 UNK        -0.0193 
     10 C10         1.8066  -16.1927  -50.1926 C.ar      23 UNK        -0.1150 
     11 C11         1.6194  -17.2882  -51.0407 C.ar      23 UNK        -0.0193 
     12 C12         2.3051  -18.4801  -50.7882 C.ar      23 UNK        -0.1150 
     13 C13         3.1725  -18.5806  -49.6957 C.ar      23 UNK        -0.0193 
     14 C14         3.3450  -17.4820  -48.8509 C.ar      23 UNK        -0.1150 
     15 C15         3.9275  -19.8724  -49.4229 C.3       23 UNK        -0.0205 
     16 S16         3.2161  -20.7869  -48.0205 S.3       23 UNK        -0.2404 
     17 C17         1.5677  -21.1848  -48.6840 C.3       23 UNK        -0.0398 
     18 CA          0.8434  -22.2504  -47.8343 C.3       11 UNK         0.1400 
     19 N           0.4665  -21.7590  -46.5049 N.am      11 UNK        -0.5000 
     20 C          -0.0226  -22.5344  -45.5266 C.2       10 UNK         0.5000 
     21 O          -0.1609  -23.7539  -45.6253 O.2       10 UNK        -0.5000 
     22 CA         -0.4907  -21.8257  -44.2440 C.3       10 UNK         0.1400 
     23 CB          0.7031  -21.4612  -43.3491 C.3       10 UNK        -0.1800 
     24 N          -1.2891  -20.6319  -44.5252 N.am      10 UNK        -0.5000 
     25 C          -2.4709  -20.6441  -45.1591 C.2       9 UNK         0.5000 
     26 O          -3.0369  -21.6735  -45.5248 O.2       9 UNK        -0.5000 
     27 CA         -3.1107  -19.2808  -45.4796 C.3       9 UNK         0.1400 
     28 CB         -3.8706  -18.7354  -44.2622 C.3       9 UNK        -0.1800 
     29 N          -2.1401  -18.2884  -45.9418 N.am      9 UNK        -0.5000 
     30 C          -1.3989  -18.4038  -47.0535 C.2       8 UNK         0.5000 
     31 O          -1.4715  -19.3551  -47.8299 O.2       8 UNK        -0.5000 
     32 CA         -0.3649  -17.2955  -47.3114 C.3       8 UNK         0.1400 
     33 CB         -1.0291  -16.0555  -47.9291 C.3       8 UNK        -0.1800 
     34 N           0.3516  -16.9201  -46.0918 N.am      8 UNK        -0.5000 
     35 C           1.1835  -17.7370  -45.4292 C.2       7 UNK         0.5000 
     36 O           1.4619  -18.8773  -45.7982 O.2       7 UNK        -0.5000 
     37 CA          1.7459  -17.2111  -44.0963 C.3       7 UNK         0.1400 
     38 CB          2.9171  -16.2430  -44.3238 C.3       7 UNK        -0.1800 
     39 N           0.7183  -16.5529  -43.2897 N.am      7 UNK        -0.5000 
     40 C          -0.3205  -17.1897  -42.7295 C.2       6 UNK         0.5000 
     41 O          -0.4949  -18.4051  -42.8010 O.2       6 UNK        -0.5000 
     42 CA         -1.3619  -16.3214  -41.9998 C.3       6 UNK         0.1400 
     43 CB         -0.9652  -16.1304  -40.5285 C.3       6 UNK        -0.1800 
     44 N          -1.5589  -15.0101  -42.6184 N.am      6 UNK        -0.5000 
     45 C          -1.9947  -14.7980  -43.8693 C.2       5 UNK         0.5000 
     46 O          -2.3059  -15.7011  -44.6450 O.2       5 UNK        -0.5000 
     47 CA         -2.0560  -13.3330  -44.3431 C.3       5 UNK         0.1400 
     48 CB         -3.4781  -12.7760  -44.1845 C.3       5 UNK        -0.1800 
     49 N          -1.1146  -12.4697  -43.6232 N.am      5 UNK        -0.5000 
     50 C           0.2154  -12.5226  -43.7685 C.2       4 UNK         0.5000 
     51 O           0.7870  -13.2599  -44.5753 O.2       4 UNK        -0.5000 
     52 CA          1.0402  -11.6609  -42.8025 C.3       4 UNK         0.1400 
     53 CB          1.7272  -12.5478  -41.7513 C.3       4 UNK        -0.1800 
     54 N           2.0536  -10.9093  -43.5349 N.am      4 UNK        -0.5000 
     55 C           1.8685   -9.6781  -44.0327 C.2       3 UNK         0.5000 
     56 O           0.8071   -9.0624  -43.9166 O.2       3 UNK        -0.5000 
     57 CA          3.0412   -9.0194  -44.7983 C.3       3 UNK         0.1400 
     58 CB          3.1392   -7.5023  -44.5327 C.3       3 UNK        -0.1800 
     59 N           4.3409   -9.6702  -44.5947 N.am      3 UNK        -0.5000 
     60 C           5.0361   -9.7979  -43.4529 C.2       2 UNK         0.5000 
     61 O           4.7076   -9.2763  -42.3863 O.2       2 UNK        -0.5000 
     62 CA          6.2969  -10.6926  -43.5229 C.3       2 UNK         0.1400 
     63 CB          6.6345  -11.3424  -42.1650 C.3       2 UNK        -0.1800 
     64 N           6.2339  -11.7182  -44.5773 N.am      2 UNK        -0.5000 
     65 C           5.3045  -12.6792  -44.7180 C.2       1 UNK         0.5000 
     66 O           4.3526  -12.8246  -43.9521 O.2       1 UNK        -0.5000 
     67 C          -0.3675  -22.8172  -48.5996 C.2       11 UNK         0.5000 
     68 O          -0.2583  -23.8986  -49.1747 O.2       11 UNK        -0.5000 
     69 N          -1.5029  -22.1065  -48.5649 N.am      12 UNK        -0.5000 
     70 CA         -2.7652  -22.5193  -49.1794 C.3       12 UNK         0.1400 
     71 CB         -3.7839  -21.3786  -49.0515 C.3       12 UNK        -0.1800 
     72 C          -3.3249  -23.8265  -48.5888 C.2       12 UNK         0.5000 
     73 O          -3.8181  -24.6676  -49.3382 O.2       12 UNK        -0.5000 
     74 N          -3.2099  -23.9928  -47.2648 N.am      13 UNK        -0.5000 
     75 CA         -3.5651  -25.2211  -46.5571 C.3       13 UNK         0.1400 
     76 CB         -3.5750  -24.9599  -45.0434 C.3       13 UNK        -0.1800 
     77 C          -2.6298  -26.3929  -46.9092 C.2       13 UNK         0.5000 
     78 O          -3.1143  -27.4981  -47.1529 O.2       13 UNK        -0.5000 
     79 N          -1.3154  -26.1297  -46.9474 N.am      14 UNK        -0.5000 
     80 CA         -0.2776  -27.1136  -47.2634 C.3       14 UNK         0.1400 
     81 CB          1.1035  -26.5262  -46.9347 C.3       14 UNK        -0.1800 
     82 C          -0.3263  -27.6038  -48.7224 C.2       14 UNK         0.5000 
     83 O          -0.2008  -28.8051  -48.9637 O.2       14 UNK        -0.5000 
     84 N          -0.5158  -26.6721  -49.6659 N.am      15 UNK        -0.5000 
     85 CA         -0.6196  -26.9486  -51.1011 C.3       15 UNK         0.1400 
     86 CB         -0.3556  -25.6490  -51.8777 C.3       15 UNK        -0.1800 
     87 C          -1.9787  -27.5469  -51.5140 C.2       15 UNK         0.5000 
     88 O          -2.0703  -28.1264  -52.5974 O.2       15 UNK        -0.5000 
     89 N          -2.9928  -27.3850  -50.6518 N.am      16 UNK        -0.5000 
     90 CA         -4.4123  -27.6927  -50.8442 C.3       16 UNK         0.1400 
     91 CB         -4.6306  -29.1752  -51.2167 C.3       16 UNK        -0.1800 
     92 C          -5.0995  -26.7222  -51.8290 C.2       16 UNK         0.5000 
     93 O          -4.4531  -25.8388  -52.3977 O.2       16 UNK        -0.5000 
     94 N          -6.4240  -26.8854  -51.9742 N.am      17 UNK        -0.5000 
     95 CA         -7.3426  -25.9974  -52.7000 C.3       17 UNK         0.1400 
     96 CB         -7.0423  -25.9804  -54.2139 C.3       17 UNK        -0.1800 
     97 C          -7.3865  -24.5885  -52.0724 C.2       17 UNK         0.5000 
     98 O          -7.3371  -23.5799  -52.7790 O.2       17 UNK        -0.5000 
     99 N          -7.4867  -24.5473  -50.7357 N.am      18 UNK        -0.5000 
    100 CA        -7.4477  -23.3336  -49.9137 C.3       18 UNK         0.1400 
    101 CB        -7.3715  -23.7338  -48.4324 C.3       18 UNK        -0.1800 
    102 C         -8.6035  -22.3416  -50.1598 C.2       18 UNK         0.5000 
    103 O         -8.4855  -21.1771  -49.7806 O.2       18 UNK        -0.5000 
    104 N         -9.6818  -22.8012  -50.8101 N.am      19 UNK        -0.5000 
    105 CA       -10.7712  -21.9611  -51.3099 C.3       19 UNK         0.1400 
    106 CB       -11.9473  -22.8580  -51.7254 C.3       19 UNK        -0.1800 
    107 C        -10.3370  -21.0585  -52.4840 C.2       19 UNK         0.5000 
    108 O        -10.8642  -19.9538  -52.6204 O.2       19 UNK        -0.5000 
    109 N         -9.3837  -21.5352  -53.2976 N.am      20 UNK        -0.5000 
    110 CA        -8.7473  -20.7710  -54.3701 C.3       20 UNK         0.1400 
    111 CB        -8.4053  -21.7111  -55.5375 C.3       20 UNK        -0.1800 
    112 C         -7.4867  -20.0572  -53.8528 C.2       20 UNK         0.5000 
    113 O         -7.2826  -18.8864  -54.1746 O.2       20 UNK        -0.5000 
    114 N         -6.6924  -20.7698  -53.0384 N.am      21 UNK        -0.5000 
    115 CA        -5.4497  -20.3291  -52.3992 C.3       21 UNK         0.1400 
    116 CB        -5.7392  -19.2380  -51.3416 C.3       21 UNK        -0.1800 
    117 C         -4.3611  -19.9464  -53.4273 C.2       21 UNK         0.5000 
    118 O         -4.1844  -20.6665  -54.4125 O.2       21 UNK        -0.5000 
    119 N         -3.6294  -18.8562  -53.1645 N.am      22 UNK        -0.5000 
    120 CA        -2.5729  -18.2959  -54.0205 C.3       22 UNK         0.1400 
    121 C         -3.0909  -17.8849  -55.4284 C.2       22 UNK         0.5000 
    122 N         -2.3851  -18.2499  -56.4902 N.am      22 UNK        -0.7600 
    123 O         -4.0983  -17.1939  -55.5608 O.2       22 UNK        -0.5000 
    124 C124       -1.8888  -17.0841  -53.3381 C.3       23 UNK        -0.0398 
    125 S125       -1.0375  -17.5192  -51.7810 S.3       23 UNK        -0.2404 
    126 C126        0.6898  -17.1730  -52.2375 C.3       23 UNK        -0.0205 
    127 H127        9.8959  -13.9337  -45.8590 H         1 UNK         0.0600 
    128 H128        9.1350  -13.8427  -47.4501 H         1 UNK         0.0600 
    129 H129        9.4493  -15.4154  -46.7117 H         1 UNK         0.0600 
    130 H130        6.9797  -13.2826  -47.3448 H         1 UNK         0.3000 
    131 H131        5.0982  -14.5912  -45.6359 H         1 UNK         0.0600 
    132 H132        3.4354  -12.9960  -46.6520 H         1 UNK         0.0800 
    133 H133        4.7373  -12.1171  -47.4084 H         1 UNK         0.0800 
    134 H134        2.8495  -15.4757  -47.1246 H         1 UNK         0.0800 
    135 H135        2.0059  -14.4187  -48.2313 H         1 UNK         0.0800 
    136 H136        1.2765  -15.2703  -50.3842 H         1 UNK         0.1150 
    137 H137        2.1636  -19.3284  -51.4430 H         1 UNK         0.1150 
    138 H138        4.0066  -17.5598  -47.9994 H         1 UNK         0.1150 
    139 H139        3.9387  -20.5108  -50.3076 H         1 UNK         0.0800 
    140 H140        4.9702  -19.6409  -49.2009 H         1 UNK         0.0800 
    141 H141        1.6990  -21.5353  -49.7098 H         1 UNK         0.0800 
    142 H142        0.9766  -20.2691  -48.7414 H         1 UNK         0.0800 
    143 H143        1.5339  -23.0835  -47.6852 H         1 UNK         0.0600 
    144 H144        0.5851  -20.7657  -46.3367 H         1 UNK         0.3000 
    145 H145       -1.1233  -22.5248  -43.6931 H         1 UNK         0.0600 
    146 H146        0.3692  -21.0461  -42.3981 H         1 UNK         0.0600 
    147 H147        1.3066  -22.3417  -43.1255 H         1 UNK         0.0600 
    148 H148        1.3552  -20.7274  -43.8230 H         1 UNK         0.0600 
    149 H149       -0.9135  -19.7466  -44.1997 H         1 UNK         0.3000 
    150 H150       -3.8310  -19.4325  -46.2855 H         1 UNK         0.0600 
    151 H151       -4.6491  -19.4309  -43.9464 H         1 UNK         0.0600 
    152 H152       -4.3545  -17.7854  -44.4903 H         1 UNK         0.0600 
    153 H153       -3.2076  -18.5791  -43.4121 H         1 UNK         0.0600 
    154 H154       -2.0510  -17.4429  -45.3847 H         1 UNK         0.3000 
    155 H155        0.3629  -17.6854  -48.0256 H         1 UNK         0.0600 
    156 H156       -0.2967  -15.2787  -48.1446 H         1 UNK         0.0600 
    157 H157       -1.7860  -15.6278  -47.2717 H         1 UNK         0.0600 
    158 H158       -1.5183  -16.3088  -48.8704 H         1 UNK         0.0600 
    159 H159        0.1370  -16.0171  -45.6947 H         1 UNK         0.3000 
    160 H160        2.1219  -18.0698  -43.5359 H         1 UNK         0.0600 
    161 H161        3.3986  -15.9806  -43.3816 H         1 UNK         0.0600 
    162 H162        2.5911  -15.3154  -44.7945 H         1 UNK         0.0600 
    163 H163        3.6784  -16.6918  -44.9634 H         1 UNK         0.0600 
    164 H164        0.7738  -15.5477  -43.2121 H         1 UNK         0.3000 
    165 H165       -2.3165  -16.8494  -42.0302 H         1 UNK         0.0600 
    166 H166       -1.7343  -15.5871  -39.9793 H         1 UNK         0.0600 
    167 H167       -0.8325  -17.0928  -40.0323 H         1 UNK         0.0600 
    168 H168       -0.0290  -15.5791  -40.4312 H         1 UNK         0.0600 
    169 H169       -1.3380  -14.2061  -42.0508 H         1 UNK         0.3000 
    170 H170       -1.7980  -13.3184  -45.4043 H         1 UNK         0.0600 
    171 H171       -4.1989  -13.3864  -44.7304 H         1 UNK         0.0600 
    172 H172       -3.7899  -12.7558  -43.1395 H         1 UNK         0.0600 
    173 H173       -3.5504  -11.7615  -44.5771 H         1 UNK         0.0600 
    174 H174       -1.5128  -11.8308  -42.9497 H         1 UNK         0.3000 
    175 H175        0.3789  -10.9700  -42.2750 H         1 UNK         0.0600 
    176 H176        2.3694  -13.3001  -42.2109 H         1 UNK         0.0600 
    177 H177        2.3424  -11.9529  -41.0760 H         1 UNK         0.0600 
    178 H178        0.9911  -13.0743  -41.1428 H         1 UNK         0.0600 
    179 H179        2.9257  -11.3981  -43.7089 H         1 UNK         0.3000 
    180 H180        2.8084   -9.1487  -45.8561 H         1 UNK         0.0600 
    181 H181        3.9652   -7.0571  -45.0872 H         1 UNK         0.0600 
    182 H182        3.2880   -7.2839  -43.4750 H         1 UNK         0.0600 
    183 H183        2.2288   -6.9896  -44.8451 H         1 UNK         0.0600 
    184 H184        4.7174  -10.1354  -45.4076 H         1 UNK         0.3000 
    185 H185        7.1223  -10.0301  -43.7871 H         1 UNK         0.0600 
    186 H186        7.5254  -11.9663  -42.2375 H         1 UNK         0.0600 
    187 H187        6.8314  -10.5856  -41.4049 H         1 UNK         0.0600 
    188 H188        5.8174  -11.9664  -41.8013 H         1 UNK         0.0600 
    189 H189        6.9718  -11.6809  -45.2668 H         1 UNK         0.3000 
    190 H190       -1.4990  -21.1960  -48.1101 H         1 UNK         0.3000 
    191 H191       -2.5761  -22.6909  -50.2411 H         1 UNK         0.0600 
    192 H192       -4.7231  -21.6325  -49.5377 H         1 UNK         0.0600 
    193 H193       -3.4097  -20.4669  -49.5165 H         1 UNK         0.0600 
    194 H194       -4.0089  -21.1542  -48.0095 H         1 UNK         0.0600 
    195 H195       -2.8581  -23.2240  -46.7013 H         1 UNK         0.3000 
    196 H196       -4.5771  -25.5019  -46.8561 H         1 UNK         0.0600 
    197 H197       -2.5978  -24.6383  -44.6822 H         1 UNK         0.0600 
    198 H198       -4.2969  -24.1854  -44.7835 H         1 UNK         0.0600 
    199 H199       -3.8501  -25.8602  -44.4928 H         1 UNK         0.0600 
    200 H200       -0.9947  -25.1997  -46.6941 H         1 UNK         0.3000 
    201 H201       -0.4350  -27.9810  -46.6190 H         1 UNK         0.0600 
    202 H202        1.3082  -25.6282  -47.5183 H         1 UNK         0.0600 
    203 H203        1.8957  -27.2451  -47.1474 H         1 UNK         0.0600 
    204 H204        1.1782  -26.2627  -45.8796 H         1 UNK         0.0600 
    205 H205       -0.5578  -25.6920  -49.3912 H         1 UNK         0.3000 
    206 H206        0.1545  -27.6696  -51.3719 H         1 UNK         0.0600 
    207 H207        0.6206  -25.2314  -51.6306 H         1 UNK         0.0600 
    208 H208       -0.3721  -25.8252  -52.9539 H         1 UNK         0.0600 
    209 H209       -1.1104  -24.8926  -51.6575 H         1 UNK         0.0600 
    210 H210       -2.7955  -26.8384  -49.8245 H         1 UNK         0.3000 
    211 H211       -4.8737  -27.5224  -49.8702 H         1 UNK         0.0600 
    212 H212       -5.6793  -29.4565  -51.1187 H         1 UNK         0.0600 
    213 H213       -4.0608  -29.8343  -50.5614 H         1 UNK         0.0600 
    214 H214       -4.3354  -29.3861  -52.2448 H         1 UNK         0.0600 
    215 H215       -6.8654  -27.6454  -51.4757 H         1 UNK         0.3000 
    216 H216       -8.3413  -26.4174  -52.5729 H         1 UNK         0.0600 
    217 H217       -7.8124  -25.4302  -54.7558 H         1 UNK         0.0600 
    218 H218       -6.0879  -25.5033  -54.4374 H         1 UNK         0.0600 
    219 H219       -7.0165  -26.9906  -54.6223 H         1 UNK         0.0600 
    220 H220       -7.5249  -25.4220  -50.2337 H         1 UNK         0.3000 
    221 H221       -6.5279  -22.8091  -50.1717 H         1 UNK         0.0600 
    222 H222       -6.5011  -24.3604  -48.2371 H         1 UNK         0.0600 
    223 H223       -8.2599  -24.2830  -48.1185 H         1 UNK         0.0600 
    224 H224       -7.2842  -22.8544  -47.7929 H         1 UNK         0.0600 
    225 H225       -9.7068  -23.7780  -51.0614 H         1 UNK         0.3000 
    226 H226      -11.1055  -21.3129  -50.4970 H         1 UNK         0.0600 
    227 H227      -11.6688  -23.5424  -52.5278 H         1 UNK         0.0600 
    228 H228      -12.3062  -23.4526  -50.8851 H         1 UNK         0.0600 
    229 H229      -12.7871  -22.2597  -52.0810 H         1 UNK         0.0600 
    230 H230       -8.9615  -22.4313  -53.0835 H         1 UNK         0.3000 
    231 H231       -9.4378  -20.0121  -54.7444 H         1 UNK         0.0600 
    232 H232       -7.7070  -22.4941  -55.2401 H         1 UNK         0.0600 
    233 H233       -7.9467  -21.1589  -56.3587 H         1 UNK         0.0600 
    234 H234       -9.3010  -22.1932  -55.9292 H         1 UNK         0.0600 
    235 H235       -6.9207  -21.7518  -52.9074 H         1 UNK         0.3000 
    236 H236       -5.0630  -21.2033  -51.8750 H         1 UNK         0.0600 
    237 H237       -4.8513  -18.9978  -50.7568 H         1 UNK         0.0600 
    238 H238       -6.0971  -18.3134  -51.7955 H         1 UNK         0.0600 
    239 H239       -6.4985  -19.5721  -50.6354 H         1 UNK         0.0600 
    240 H240       -3.8438  -18.3237  -52.3350 H         1 UNK         0.3000 
    241 H241       -1.8226  -19.0782  -54.1515 H         1 UNK         0.0600 
    242 H242       -2.7021  -17.9740  -57.4069 H         1 UNK         0.3800 
    243 H243       -1.5523  -18.8124  -56.4055 H         1 UNK         0.3800 
    244 H244       -2.6236  -16.3077  -53.1178 H         1 UNK         0.0800 
    245 H245       -1.1696  -16.6250  -54.0189 H         1 UNK         0.0800 
    246 H246        1.0002  -17.8594  -53.0269 H         1 UNK         0.0800 
    247 H247        0.7630  -16.1676  -52.6553 H         1 UNK         0.0800 
@<TRIPOS>BOND
     1    1    2 1    
     2    1  127 1    
     3    1  128 1    
     4    1  129 1    
     5    2    3 2    
     6    2    4 am   BACKBONE|DICT|INTERRES
     7    4    5 1    
     8    4  130 1    
     9    5    6 1    
    10    5   65 1    
    11    5  131 1    
    12    6    7 1    
    13    6  132 1    
    14    6  133 1    
    15    7    8 1    
    16    8    9 1    
    17    8  134 1    
    18    8  135 1    
    19    9   10 ar   
    20    9   14 ar   
    21   10   11 ar   
    22   10  136 1    
    23   11   12 ar   
    24   11  126 1    
    25   12   13 ar   
    26   12  137 1    
    27   13   14 ar   
    28   13   15 1    
    29   14  138 1    
    30   15   16 1    
    31   15  139 1    
    32   15  140 1    
    33   16   17 1    
    34   17   18 1    
    35   17  141 1    
    36   17  142 1    
    37   18   19 1    
    38   18   67 1    
    39   18  143 1    
    40   19   20 am   BACKBONE|DICT|INTERRES
    41   19  144 1    
    42   20   21 2    
    43   20   22 1    
    44   22   23 1    
    45   22   24 1    
    46   22  145 1    
    47   23  146 1    
    48   23  147 1    
    49   23  148 1    
    50   24   25 am   BACKBONE|DICT|INTERRES
    51   24  149 1    
    52   25   26 2    
    53   25   27 1    
    54   27   28 1    
    55   27   29 1    
    56   27  150 1    
    57   28  151 1    
    58   28  152 1    
    59   28  153 1    
    60   29   30 am   BACKBONE|DICT|INTERRES
    61   29  154 1    
    62   30   31 2    
    63   30   32 1    
    64   32   33 1    
    65   32   34 1    
    66   32  155 1    
    67   33  156 1    
    68   33  157 1    
    69   33  158 1    
    70   34   35 am   BACKBONE|DICT|INTERRES
    71   34  159 1    
    72   35   36 2    
    73   35   37 1    
    74   37   38 1    
    75   37   39 1    
    76   37  160 1    
    77   38  161 1    
    78   38  162 1    
    79   38  163 1    
    80   39   40 am   BACKBONE|DICT|INTERRES
    81   39  164 1    
    82   40   41 2    
    83   40   42 1    
    84   42   43 1    
    85   42   44 1    
    86   42  165 1    
    87   43  166 1    
    88   43  167 1    
    89   43  168 1    
    90   44   45 am   BACKBONE|DICT|INTERRES
    91   44  169 1    
    92   45   46 2    
    93   45   47 1    
    94   47   48 1    
    95   47   49 1    
    96   47  170 1    
    97   48  171 1    
    98   48  172 1    
    99   48  173 1    
   100   49   50 am   BACKBONE|DICT|INTERRES
   101   49  174 1    
   102   50   51 2    
   103   50   52 1    
   104   52   53 1    
   105   52   54 1    
   106   52  175 1    
   107   53  176 1    
   108   53  177 1    
   109   53  178 1    
   110   54   55 am   BACKBONE|DICT|INTERRES
   111   54  179 1    
   112   55   56 2    
   113   55   57 1    
   114   57   58 1    
   115   57   59 1    
   116   57  180 1    
   117   58  181 1    
   118   58  182 1    
   119   58  183 1    
   120   59   60 am   BACKBONE|DICT|INTERRES
   121   59  184 1    
   122   60   61 2    
   123   60   62 1    
   124   62   63 1    
   125   62   64 1    
   126   62  185 1    
   127   63  186 1    
   128   63  187 1    
   129   63  188 1    
   130   64   65 am   BACKBONE|DICT|INTERRES
   131   64  189 1    
   132   65   66 2    
   133   67   68 2    
   134   67   69 am   BACKBONE|DICT|INTERRES
   135   69   70 1    
   136   69  190 1    
   137   70   71 1    
   138   70   72 1    
   139   70  191 1    
   140   71  192 1    
   141   71  193 1    
   142   71  194 1    
   143   72   73 2    
   144   72   74 am   BACKBONE|DICT|INTERRES
   145   74   75 1    
   146   74  195 1    
   147   75   76 1    
   148   75   77 1    
   149   75  196 1    
   150   76  197 1    
   151   76  198 1    
   152   76  199 1    
   153   77   78 2    
   154   77   79 am   BACKBONE|DICT|INTERRES
   155   79   80 1    
   156   79  200 1    
   157   80   81 1    
   158   80   82 1    
   159   80  201 1    
   160   81  202 1    
   161   81  203 1    
   162   81  204 1    
   163   82   83 2    
   164   82   84 am   BACKBONE|DICT|INTERRES
   165   84   85 1    
   166   84  205 1    
   167   85   86 1    
   168   85   87 1    
   169   85  206 1    
   170   86  207 1    
   171   86  208 1    
   172   86  209 1    
   173   87   88 2    
   174   87   89 am   BACKBONE|DICT|INTERRES
   175   89   90 1    
   176   89  210 1    
   177   90   91 1    
   178   90   92 1    
   179   90  211 1    
   180   91  212 1    
   181   91  213 1    
   182   91  214 1    
   183   92   93 2    
   184   92   94 am   BACKBONE|DICT|INTERRES
   185   94   95 1    
   186   94  215 1    
   187   95   96 1    
   188   95   97 1    
   189   95  216 1    
   190   96  217 1    
   191   96  218 1    
   192   96  219 1    
   193   97   98 2    
   194   97   99 am   BACKBONE|DICT|INTERRES
   195   99  100 1    
   196   99  220 1    
   197  100  101 1    
   198  100  102 1    
   199  100  221 1    
   200  101  222 1    
   201  101  223 1    
   202  101  224 1    
   203  102  103 2    
   204  102  104 am   BACKBONE|DICT|INTERRES
   205  104  105 1    
   206  104  225 1    
   207  105  106 1    
   208  105  107 1    
   209  105  226 1    
   210  106  227 1    
   211  106  228 1    
   212  106  229 1    
   213  107  108 2    
   214  107  109 am   BACKBONE|DICT|INTERRES
   215  109  110 1    
   216  109  230 1    
   217  110  111 1    
   218  110  112 1    
   219  110  231 1    
   220  111  232 1    
   221  111  233 1    
   222  111  234 1    
   223  112  113 2    
   224  112  114 am   BACKBONE|DICT|INTERRES
   225  114  115 1    
   226  114  235 1    
   227  115  116 1    
   228  115  117 1    
   229  115  236 1    
   230  116  237 1    
   231  116  238 1    
   232  116  239 1    
   233  117  118 2    
   234  117  119 am   BACKBONE|DICT|INTERRES
   235  119  120 1    
   236  119  240 1    
   237  120  121 1    
   238  120  124 1    
   239  120  241 1    
   240  121  122 am   BACKBONE|DICT|INTERRES
   241  121  123 2    
   242  122  242 1    
   243  122  243 1    
   244  124  125 1    
   245  124  244 1    
   246  124  245 1    
   247  125  126 1    
   248  126  246 1    
   249  126  247 1    
@<TRIPOS>SUBSTRUCTURE
     1 UNK         1 GROUP             0       ****    0 ROOT    
