@<TRIPOS>MOLECULE
3R540
247   249    1
SMALL
USER_CHARGES


@<TRIPOS>ATOM
      1 CA          3.1909   -9.4856  -47.7451 C.3       0 UNK        -0.1800 
      2 C           2.5709  -10.8628  -47.5659 C.2       0 UNK         0.5000 
      3 O           1.6805  -11.0262  -46.7340 O.2       0 UNK        -0.5000 
      4 N           3.0203  -11.8473  -48.3561 N.am      1 UNK        -0.5000 
      5 CA          2.5874  -13.2535  -48.3326 C.3       1 UNK         0.1400 
      6 C6          3.3977  -14.0741  -49.3689 C.3       23 UNK        -0.0398 
      7 S7          3.1537  -15.8810  -49.2743 S.3       23 UNK        -0.2404 
      8 C8          2.7202  -16.2511  -51.0112 C.3       23 UNK        -0.0205 
      9 C9          2.3234  -17.7013  -51.2890 C.ar      23 UNK        -0.0193 
     10 C10         1.5127  -17.9765  -52.3948 C.ar      23 UNK        -0.1150 
     11 C11         1.1166  -19.2853  -52.6879 C.ar      23 UNK        -0.0193 
     12 C12         1.5379  -20.3319  -51.8630 C.ar      23 UNK        -0.1150 
     13 C13         2.3713  -20.0796  -50.7702 C.ar      23 UNK        -0.0193 
     14 C14         2.7655  -18.7667  -50.4951 C.ar      23 UNK        -0.1150 
     15 C15         2.8853  -21.2224  -49.9062 C.3       23 UNK        -0.0205 
     16 S16         2.3122  -21.0892  -48.1841 S.3       23 UNK        -0.2404 
     17 C17         0.6215  -21.7736  -48.2774 C.3       23 UNK        -0.0398 
     18 CA          0.4239  -22.9192  -47.2609 C.3       11 UNK         0.1400 
     19 N           0.6037  -22.4613  -45.8813 N.am      11 UNK        -0.5000 
     20 C           0.9434  -23.2647  -44.8669 C.2       10 UNK         0.5000 
     21 O           1.1068  -24.4789  -44.9863 O.2       10 UNK        -0.5000 
     22 CA          1.0880  -22.6067  -43.4845 C.3       10 UNK         0.1400 
     23 CB          2.4197  -21.8481  -43.3794 C.3       10 UNK        -0.1800 
     24 N          -0.0255  -21.7074  -43.1766 N.am      10 UNK        -0.5000 
     25 C          -1.2935  -22.1125  -43.0152 C.2       9 UNK         0.5000 
     26 O          -1.6429  -23.2925  -43.0760 O.2       9 UNK        -0.5000 
     27 CA         -2.3545  -21.0245  -42.7641 C.3       9 UNK         0.1400 
     28 CB         -2.3786  -20.6284  -41.2802 C.3       9 UNK        -0.1800 
     29 N          -2.1696  -19.8273  -43.5858 N.am      9 UNK        -0.5000 
     30 C          -2.2578  -19.7951  -44.9232 C.2       8 UNK         0.5000 
     31 O          -2.5059  -20.7758  -45.6215 O.2       8 UNK        -0.5000 
     32 CA         -1.9461  -18.4562  -45.6121 C.3       8 UNK         0.1400 
     33 CB         -3.1106  -17.4647  -45.4832 C.3       8 UNK        -0.1800 
     34 N          -0.7074  -17.8503  -45.1279 N.am      8 UNK        -0.5000 
     35 C           0.4944  -18.4434  -45.1886 C.2       7 UNK         0.5000 
     36 O           0.6891  -19.5483  -45.6936 O.2       7 UNK        -0.5000 
     37 CA          1.6579  -17.7078  -44.5078 C.3       7 UNK         0.1400 
     38 CB          2.1969  -16.5852  -45.4075 C.3       7 UNK        -0.1800 
     39 N           1.2589  -17.1694  -43.2058 N.am      7 UNK        -0.5000 
     40 C           0.9706  -17.9284  -42.1370 C.2       6 UNK         0.5000 
     41 O           1.0549  -19.1559  -42.1268 O.2       6 UNK        -0.5000 
     42 CA          0.4595  -17.1989  -40.8817 C.3       6 UNK         0.1400 
     43 CB          1.6312  -16.6226  -40.0726 C.3       6 UNK        -0.1800 
     44 N          -0.4845  -16.1283  -41.2006 N.am      6 UNK        -0.5000 
     45 C          -1.6943  -16.3179  -41.7471 C.2       5 UNK         0.5000 
     46 O          -2.1667  -17.4262  -41.9948 O.2       5 UNK        -0.5000 
     47 CA         -2.4895  -15.0535  -42.1224 C.3       5 UNK         0.1400 
     48 CB         -3.3714  -14.6022  -40.9490 C.3       5 UNK        -0.1800 
     49 N          -1.6341  -13.9411  -42.5433 N.am      5 UNK        -0.5000 
     50 C          -0.8358  -13.9593  -43.6187 C.2       4 UNK         0.5000 
     51 O          -0.7379  -14.9241  -44.3800 O.2       4 UNK        -0.5000 
     52 CA          0.0230  -12.7033  -43.8505 C.3       4 UNK         0.1400 
     53 CB          1.5052  -13.0694  -44.0317 C.3       4 UNK        -0.1800 
     54 N          -0.4201  -11.9338  -45.0087 N.am      4 UNK        -0.5000 
     55 C          -1.5971  -11.3061  -45.1294 C.2       3 UNK         0.5000 
     56 O          -2.4673  -11.3068  -44.2578 O.2       3 UNK        -0.5000 
     57 CA         -1.8366  -10.5234  -46.4314 C.3       3 UNK         0.1400 
     58 CB         -1.3040   -9.0878  -46.2979 C.3       3 UNK        -0.1800 
     59 N          -1.1967  -11.1614  -47.5823 N.am      3 UNK        -0.5000 
     60 C          -1.8134  -12.0000  -48.4256 C.2       2 UNK         0.5000 
     61 O          -2.9962  -12.3244  -48.3199 O.2       2 UNK        -0.5000 
     62 CA         -0.9881  -12.5484  -49.6084 C.3       2 UNK         0.1400 
     63 CB         -1.2462  -11.7053  -50.8673 C.3       2 UNK        -0.1800 
     64 N           0.4541  -12.5815  -49.3601 N.am      2 UNK        -0.5000 
     65 C           1.0591  -13.4234  -48.5105 C.2       1 UNK         0.5000 
     66 O           0.4579  -14.2695  -47.8513 O.2       1 UNK        -0.5000 
     67 C          -0.9146  -23.6667  -47.4582 C.2       11 UNK         0.5000 
     68 O          -1.0162  -24.4830  -48.3747 O.2       11 UNK        -0.5000 
     69 N          -1.9064  -23.4421  -46.5808 N.am      12 UNK        -0.5000 
     70 CA         -3.1568  -24.2076  -46.5346 C.3       12 UNK         0.1400 
     71 CB         -4.1588  -23.5543  -45.5700 C.3       12 UNK        -0.1800 
     72 C          -2.9365  -25.6825  -46.1520 C.2       12 UNK         0.5000 
     73 O          -3.6474  -26.5459  -46.6646 O.2       12 UNK        -0.5000 
     74 N          -1.9217  -25.9614  -45.3184 N.am      13 UNK        -0.5000 
     75 CA         -1.4877  -27.3214  -44.9779 C.3       13 UNK         0.1400 
     76 CB         -0.5459  -27.2752  -43.7646 C.3       13 UNK        -0.1800 
     77 C          -0.8236  -28.0526  -46.1655 C.2       13 UNK         0.5000 
     78 O          -0.8434  -29.2829  -46.2065 O.2       13 UNK        -0.5000 
     79 N          -0.2901  -27.2849  -47.1270 N.am      14 UNK        -0.5000 
     80 CA          0.2132  -27.7621  -48.4178 C.3       14 UNK         0.1400 
     81 CB          1.4054  -26.8852  -48.8397 C.3       14 UNK        -0.1800 
     82 C          -0.8840  -27.7795  -49.5080 C.2       14 UNK         0.5000 
     83 O          -0.5810  -28.1051  -50.6570 O.2       14 UNK        -0.5000 
     84 N          -2.1284  -27.4357  -49.1353 N.am      15 UNK        -0.5000 
     85 CA         -3.3392  -27.3825  -49.9611 C.3       15 UNK         0.1400 
     86 CB         -3.7115  -28.7874  -50.4831 C.3       15 UNK        -0.1800 
     87 C          -3.2927  -26.3136  -51.0740 C.2       15 UNK         0.5000 
     88 O          -3.9080  -26.5027  -52.1259 O.2       15 UNK        -0.5000 
     89 N          -2.5888  -25.2011  -50.8253 N.am      16 UNK        -0.5000 
     90 CA         -2.4487  -24.0880  -51.7621 C.3       16 UNK         0.1400 
     91 CB         -1.3007  -24.3746  -52.7510 C.3       16 UNK        -0.1800 
     92 C          -2.2582  -22.7823  -50.9773 C.2       16 UNK         0.5000 
     93 O          -1.2172  -22.1403  -51.1073 O.2       16 UNK        -0.5000 
     94 N          -3.2500  -22.4487  -50.1357 N.am      17 UNK        -0.5000 
     95 CA         -3.2800  -21.2835  -49.2425 C.3       17 UNK         0.1400 
     96 CB         -4.6654  -21.1911  -48.5850 C.3       17 UNK        -0.1800 
     97 C          -2.9413  -19.9608  -49.9541 C.2       17 UNK         0.5000 
     98 O          -3.5333  -19.6749  -50.9968 O.2       17 UNK        -0.5000 
     99 N          -2.0018  -19.2006  -49.3718 N.am      18 UNK        -0.5000 
    100 CA        -1.4043  -17.9853  -49.9283 C.3       18 UNK         0.1400 
    101 CB        -0.4094  -17.3909  -48.9204 C.3       18 UNK        -0.1800 
    102 C         -2.4519  -16.9424  -50.3552 C.2       18 UNK         0.5000 
    103 O         -3.2079  -16.4533  -49.5142 O.2       18 UNK        -0.5000 
    104 N         -2.5149  -16.6926  -51.6692 N.am      19 UNK        -0.5000 
    105 CA        -3.4749  -15.8831  -52.4299 C.3       19 UNK         0.1400 
    106 CB        -3.4402  -14.4094  -51.9883 C.3       19 UNK        -0.1800 
    107 C         -4.9179  -16.4315  -52.4513 C.2       19 UNK         0.5000 
    108 O         -5.6004  -16.2817  -53.4653 O.2       19 UNK        -0.5000 
    109 N         -5.3597  -17.0527  -51.3531 N.am      20 UNK        -0.5000 
    110 CA        -6.7034  -17.5884  -51.1545 C.3       20 UNK         0.1400 
    111 CB        -6.8883  -17.9141  -49.6644 C.3       20 UNK        -0.1800 
    112 C         -7.0321  -18.8183  -52.0217 C.2       20 UNK         0.5000 
    113 O         -8.1864  -18.9653  -52.4271 O.2       20 UNK        -0.5000 
    114 N         -6.0416  -19.6831  -52.2794 N.am      21 UNK        -0.5000 
    115 CA        -6.2273  -20.9581  -52.9758 C.3       21 UNK         0.1400 
    116 CB        -6.6232  -22.0529  -51.9655 C.3       21 UNK        -0.1800 
    117 C         -5.0049  -21.3470  -53.8269 C.2       21 UNK         0.5000 
    118 O         -4.7582  -22.5378  -54.0280 O.2       21 UNK        -0.5000 
    119 N         -4.2689  -20.3510  -54.3370 N.am      22 UNK        -0.5000 
    120 CA        -3.1288  -20.5569  -55.2521 C.3       22 UNK         0.1400 
    121 C         -3.5262  -20.9843  -56.6978 C.2       22 UNK         0.5000 
    122 N         -4.7873  -20.8876  -57.1041 N.am      22 UNK        -0.7600 
    123 O         -2.6716  -21.4180  -57.4658 O.2       22 UNK        -0.5000 
    124 C124       -2.1863  -19.3287  -55.2959 C.3       23 UNK        -0.0398 
    125 S125       -1.4442  -18.9654  -53.6734 S.3       23 UNK        -0.2404 
    126 C126        0.2545  -19.5641  -53.9095 C.3       23 UNK        -0.0205 
    127 H127        3.9375   -9.4764  -48.5404 H         1 UNK         0.0600 
    128 H128        3.6733   -9.1702  -46.8194 H         1 UNK         0.0600 
    129 H129        2.4181   -8.7569  -47.9935 H         1 UNK         0.0600 
    130 H130        3.7492  -11.6312  -49.0213 H         1 UNK         0.3000 
    131 H131        2.8319  -13.6357  -47.3391 H         1 UNK         0.0600 
    132 H132        3.1804  -13.7220  -50.3788 H         1 UNK         0.0800 
    133 H133        4.4637  -13.8965  -49.2193 H         1 UNK         0.0800 
    134 H134        1.8976  -15.5953  -51.3018 H         1 UNK         0.0800 
    135 H135        3.5673  -15.9961  -51.6493 H         1 UNK         0.0800 
    136 H136        1.1826  -17.1684  -53.0327 H         1 UNK         0.1150 
    137 H137        1.2301  -21.3449  -52.0821 H         1 UNK         0.1150 
    138 H138        3.4167  -18.5858  -49.6523 H         1 UNK         0.1150 
    139 H139        2.6023  -22.1924  -50.3184 H         1 UNK         0.0800 
    140 H140        3.9759  -21.1969  -49.9113 H         1 UNK         0.0800 
    141 H141        0.4513  -22.1364  -49.2893 H         1 UNK         0.0800 
    142 H142       -0.0916  -20.9680  -48.1028 H         1 UNK         0.0800 
    143 H143        1.2025  -23.6578  -47.4671 H         1 UNK         0.0600 
    144 H144        0.5311  -21.4585  -45.7222 H         1 UNK         0.3000 
    145 H145        1.0934  -23.4031  -42.7372 H         1 UNK         0.0600 
    146 H146        2.5751  -21.4641  -42.3711 H         1 UNK         0.0600 
    147 H147        3.2616  -22.5016  -43.6113 H         1 UNK         0.0600 
    148 H148        2.4590  -21.0041  -44.0689 H         1 UNK         0.0600 
    149 H149        0.2008  -20.7240  -43.0632 H         1 UNK         0.3000 
    150 H150       -3.3277  -21.4503  -43.0170 H         1 UNK         0.0600 
    151 H151       -2.5260  -21.5016  -40.6433 H         1 UNK         0.0600 
    152 H152       -3.1918  -19.9327  -41.0718 H         1 UNK         0.0600 
    153 H153       -1.4456  -20.1518  -40.9766 H         1 UNK         0.0600 
    154 H154       -1.9893  -18.9604  -43.0852 H         1 UNK         0.3000 
    155 H155       -1.8088  -18.6687  -46.6713 H         1 UNK         0.0600 
    156 H156       -3.3192  -17.2177  -44.4430 H         1 UNK         0.0600 
    157 H157       -2.8973  -16.5360  -46.0138 H         1 UNK         0.0600 
    158 H158       -4.0234  -17.8812  -45.9112 H         1 UNK         0.0600 
    159 H159       -0.7720  -16.9193  -44.7277 H         1 UNK         0.3000 
    160 H160        2.4636  -18.4270  -44.3453 H         1 UNK         0.0600 
    161 H161        3.0101  -16.0425  -44.9258 H         1 UNK         0.0600 
    162 H162        1.4194  -15.8682  -45.6714 H         1 UNK         0.0600 
    163 H163        2.5849  -16.9941  -46.3413 H         1 UNK         0.0600 
    164 H164        1.1022  -16.1741  -43.1550 H         1 UNK         0.3000 
    165 H165       -0.0583  -17.9315  -40.2587 H         1 UNK         0.0600 
    166 H166        1.2843  -16.1730  -39.1420 H         1 UNK         0.0600 
    167 H167        2.3438  -17.4052  -39.8081 H         1 UNK         0.0600 
    168 H168        2.1738  -15.8600  -40.6328 H         1 UNK         0.0600 
    169 H169       -0.1804  -15.1823  -41.0250 H         1 UNK         0.3000 
    170 H170       -3.1409  -15.3077  -42.9608 H         1 UNK         0.0600 
    171 H171       -2.7743  -14.3075  -40.0850 H         1 UNK         0.0600 
    172 H172       -3.9982  -13.7554  -41.2297 H         1 UNK         0.0600 
    173 H173       -4.0368  -15.4057  -40.6298 H         1 UNK         0.0600 
    174 H174       -1.6828  -13.1001  -41.9861 H         1 UNK         0.3000 
    175 H175       -0.0544  -12.0595  -42.9720 H         1 UNK         0.0600 
    176 H176        2.1287  -12.1755  -44.0581 H         1 UNK         0.0600 
    177 H177        1.6721  -13.6138  -44.9614 H         1 UNK         0.0600 
    178 H178        1.8634  -13.6927  -43.2115 H         1 UNK         0.0600 
    179 H179        0.2583  -11.8290  -45.7570 H         1 UNK         0.3000 
    180 H180       -2.9156  -10.4642  -46.5899 H         1 UNK         0.0600 
    181 H181       -0.2262   -9.0695  -46.1312 H         1 UNK         0.0600 
    182 H182       -1.7747   -8.5736  -45.4588 H         1 UNK         0.0600 
    183 H183       -1.5141   -8.5052  -47.1949 H         1 UNK         0.0600 
    184 H184       -0.2052  -10.9939  -47.6953 H         1 UNK         0.3000 
    185 H185       -1.3262  -13.5695  -49.7996 H         1 UNK         0.0600 
    186 H186       -0.9007  -10.6785  -50.7411 H         1 UNK         0.0600 
    187 H187       -0.7395  -12.1260  -51.7361 H         1 UNK         0.0600 
    188 H188       -2.3111  -11.6646  -51.1004 H         1 UNK         0.0600 
    189 H189        1.0157  -11.8979  -49.8464 H         1 UNK         0.3000 
    190 H190       -1.8048  -22.6992  -45.8979 H         1 UNK         0.3000 
    191 H191       -3.5925  -24.1910  -47.5359 H         1 UNK         0.0600 
    192 H192       -4.3886  -22.5300  -45.8592 H         1 UNK         0.0600 
    193 H193       -5.1019  -24.1023  -45.5612 H         1 UNK         0.0600 
    194 H194       -3.7851  -23.5372  -44.5470 H         1 UNK         0.0600 
    195 H195       -1.3805  -25.1985  -44.9320 H         1 UNK         0.3000 
    196 H196       -2.3731  -27.8940  -44.6931 H         1 UNK         0.0600 
    197 H197       -0.3094  -28.2827  -43.4196 H         1 UNK         0.0600 
    198 H198       -1.0010  -26.7427  -42.9283 H         1 UNK         0.0600 
    199 H199        0.3982  -26.7857  -44.0025 H         1 UNK         0.0600 
    200 H200       -0.3334  -26.2813  -47.0167 H         1 UNK         0.3000 
    201 H201        0.5748  -28.7869  -48.3089 H         1 UNK         0.0600 
    202 H202        2.1733  -26.8639  -48.0655 H         1 UNK         0.0600 
    203 H203        1.1045  -25.8573  -49.0423 H         1 UNK         0.0600 
    204 H204        1.8723  -27.2714  -49.7471 H         1 UNK         0.0600 
    205 H205       -2.2737  -27.1815  -48.1659 H         1 UNK         0.3000 
    206 H206       -4.1410  -27.0678  -49.2917 H         1 UNK         0.0600 
    207 H207       -3.7482  -29.5127  -49.6698 H         1 UNK         0.0600 
    208 H208       -4.6952  -28.7819  -50.9551 H         1 UNK         0.0600 
    209 H209       -2.9971  -29.1488  -51.2238 H         1 UNK         0.0600 
    210 H210       -2.0949  -25.1003  -49.9413 H         1 UNK         0.3000 
    211 H211       -3.3719  -23.9744  -52.3326 H         1 UNK         0.0600 
    212 H212       -0.3527  -24.5203  -52.2312 H         1 UNK         0.0600 
    213 H213       -1.1730  -23.5473  -53.4509 H         1 UNK         0.0600 
    214 H214       -1.5004  -25.2698  -53.3404 H         1 UNK         0.0600 
    215 H215       -4.0590  -23.0499  -50.1046 H         1 UNK         0.3000 
    216 H216       -2.5432  -21.4575  -48.4588 H         1 UNK         0.0600 
    217 H217       -4.6784  -20.4177  -47.8157 H         1 UNK         0.0600 
    218 H218       -4.9461  -22.1290  -48.1083 H         1 UNK         0.0600 
    219 H219       -5.4412  -20.9459  -49.3106 H         1 UNK         0.0600 
    220 H220       -1.6004  -19.5184  -48.5044 H         1 UNK         0.3000 
    221 H221       -0.8365  -18.2966  -50.8048 H         1 UNK         0.0600 
    222 H222       -0.9070  -17.0012  -48.0323 H         1 UNK         0.0600 
    223 H223        0.3315  -18.1255  -48.6030 H         1 UNK         0.0600 
    224 H224        0.1339  -16.5597  -49.3695 H         1 UNK         0.0600 
    225 H225       -1.9000  -17.2422  -52.2575 H         1 UNK         0.3000 
    226 H226       -3.1246  -15.9193  -53.4629 H         1 UNK         0.0600 
    227 H227       -2.4357  -14.0017  -52.0927 H         1 UNK         0.0600 
    228 H228       -4.1024  -13.8014  -52.6056 H         1 UNK         0.0600 
    229 H229       -3.7529  -14.2812  -50.9515 H         1 UNK         0.0600 
    230 H230       -4.7237  -17.1022  -50.5638 H         1 UNK         0.3000 
    231 H231       -7.4162  -16.8045  -51.4191 H         1 UNK         0.0600 
    232 H232       -6.1508  -18.6383  -49.3184 H         1 UNK         0.0600 
    233 H233       -7.8778  -18.3311  -49.4718 H         1 UNK         0.0600 
    234 H234       -6.7880  -17.0185  -49.0507 H         1 UNK         0.0600 
    235 H235       -5.1137  -19.5196  -51.8871 H         1 UNK         0.3000 
    236 H236       -7.0456  -20.8559  -53.6916 H         1 UNK         0.0600 
    237 H237       -7.5006  -21.7637  -51.3868 H         1 UNK         0.0600 
    238 H238       -6.8671  -22.9874  -52.4723 H         1 UNK         0.0600 
    239 H239       -5.8140  -22.2607  -51.2677 H         1 UNK         0.0600 
    240 H240       -4.5192  -19.3958  -54.1256 H         1 UNK         0.3000 
    241 H241       -2.5442  -21.3905  -54.8559 H         1 UNK         0.0600 
    242 H242       -5.5010  -20.5303  -56.4897 H         1 UNK         0.3800 
    243 H243       -5.0298  -21.1721  -58.0406 H         1 UNK         0.3800 
    244 H244       -1.3843  -19.4776  -56.0213 H         1 UNK         0.0800 
    245 H245       -2.7322  -18.4445  -55.6295 H         1 UNK         0.0800 
    246 H246        0.6980  -19.0763  -54.7790 H         1 UNK         0.0800 
    247 H247        0.2288  -20.6331  -54.1278 H         1 UNK         0.0800 
@<TRIPOS>BOND
     1    1    2 1    
     2    1  127 1    
     3    1  128 1    
     4    1  129 1    
     5    2    3 2    
     6    2    4 am   BACKBONE|DICT|INTERRES
     7    4    5 1    
     8    4  130 1    
     9    5    6 1    
    10    5   65 1    
    11    5  131 1    
    12    6    7 1    
    13    6  132 1    
    14    6  133 1    
    15    7    8 1    
    16    8    9 1    
    17    8  134 1    
    18    8  135 1    
    19    9   10 ar   
    20    9   14 ar   
    21   10   11 ar   
    22   10  136 1    
    23   11   12 ar   
    24   11  126 1    
    25   12   13 ar   
    26   12  137 1    
    27   13   14 ar   
    28   13   15 1    
    29   14  138 1    
    30   15   16 1    
    31   15  139 1    
    32   15  140 1    
    33   16   17 1    
    34   17   18 1    
    35   17  141 1    
    36   17  142 1    
    37   18   19 1    
    38   18   67 1    
    39   18  143 1    
    40   19   20 am   BACKBONE|DICT|INTERRES
    41   19  144 1    
    42   20   21 2    
    43   20   22 1    
    44   22   23 1    
    45   22   24 1    
    46   22  145 1    
    47   23  146 1    
    48   23  147 1    
    49   23  148 1    
    50   24   25 am   BACKBONE|DICT|INTERRES
    51   24  149 1    
    52   25   26 2    
    53   25   27 1    
    54   27   28 1    
    55   27   29 1    
    56   27  150 1    
    57   28  151 1    
    58   28  152 1    
    59   28  153 1    
    60   29   30 am   BACKBONE|DICT|INTERRES
    61   29  154 1    
    62   30   31 2    
    63   30   32 1    
    64   32   33 1    
    65   32   34 1    
    66   32  155 1    
    67   33  156 1    
    68   33  157 1    
    69   33  158 1    
    70   34   35 am   BACKBONE|DICT|INTERRES
    71   34  159 1    
    72   35   36 2    
    73   35   37 1    
    74   37   38 1    
    75   37   39 1    
    76   37  160 1    
    77   38  161 1    
    78   38  162 1    
    79   38  163 1    
    80   39   40 am   BACKBONE|DICT|INTERRES
    81   39  164 1    
    82   40   41 2    
    83   40   42 1    
    84   42   43 1    
    85   42   44 1    
    86   42  165 1    
    87   43  166 1    
    88   43  167 1    
    89   43  168 1    
    90   44   45 am   BACKBONE|DICT|INTERRES
    91   44  169 1    
    92   45   46 2    
    93   45   47 1    
    94   47   48 1    
    95   47   49 1    
    96   47  170 1    
    97   48  171 1    
    98   48  172 1    
    99   48  173 1    
   100   49   50 am   BACKBONE|DICT|INTERRES
   101   49  174 1    
   102   50   51 2    
   103   50   52 1    
   104   52   53 1    
   105   52   54 1    
   106   52  175 1    
   107   53  176 1    
   108   53  177 1    
   109   53  178 1    
   110   54   55 am   BACKBONE|DICT|INTERRES
   111   54  179 1    
   112   55   56 2    
   113   55   57 1    
   114   57   58 1    
   115   57   59 1    
   116   57  180 1    
   117   58  181 1    
   118   58  182 1    
   119   58  183 1    
   120   59   60 am   BACKBONE|DICT|INTERRES
   121   59  184 1    
   122   60   61 2    
   123   60   62 1    
   124   62   63 1    
   125   62   64 1    
   126   62  185 1    
   127   63  186 1    
   128   63  187 1    
   129   63  188 1    
   130   64   65 am   BACKBONE|DICT|INTERRES
   131   64  189 1    
   132   65   66 2    
   133   67   68 2    
   134   67   69 am   BACKBONE|DICT|INTERRES
   135   69   70 1    
   136   69  190 1    
   137   70   71 1    
   138   70   72 1    
   139   70  191 1    
   140   71  192 1    
   141   71  193 1    
   142   71  194 1    
   143   72   73 2    
   144   72   74 am   BACKBONE|DICT|INTERRES
   145   74   75 1    
   146   74  195 1    
   147   75   76 1    
   148   75   77 1    
   149   75  196 1    
   150   76  197 1    
   151   76  198 1    
   152   76  199 1    
   153   77   78 2    
   154   77   79 am   BACKBONE|DICT|INTERRES
   155   79   80 1    
   156   79  200 1    
   157   80   81 1    
   158   80   82 1    
   159   80  201 1    
   160   81  202 1    
   161   81  203 1    
   162   81  204 1    
   163   82   83 2    
   164   82   84 am   BACKBONE|DICT|INTERRES
   165   84   85 1    
   166   84  205 1    
   167   85   86 1    
   168   85   87 1    
   169   85  206 1    
   170   86  207 1    
   171   86  208 1    
   172   86  209 1    
   173   87   88 2    
   174   87   89 am   BACKBONE|DICT|INTERRES
   175   89   90 1    
   176   89  210 1    
   177   90   91 1    
   178   90   92 1    
   179   90  211 1    
   180   91  212 1    
   181   91  213 1    
   182   91  214 1    
   183   92   93 2    
   184   92   94 am   BACKBONE|DICT|INTERRES
   185   94   95 1    
   186   94  215 1    
   187   95   96 1    
   188   95   97 1    
   189   95  216 1    
   190   96  217 1    
   191   96  218 1    
   192   96  219 1    
   193   97   98 2    
   194   97   99 am   BACKBONE|DICT|INTERRES
   195   99  100 1    
   196   99  220 1    
   197  100  101 1    
   198  100  102 1    
   199  100  221 1    
   200  101  222 1    
   201  101  223 1    
   202  101  224 1    
   203  102  103 2    
   204  102  104 am   BACKBONE|DICT|INTERRES
   205  104  105 1    
   206  104  225 1    
   207  105  106 1    
   208  105  107 1    
   209  105  226 1    
   210  106  227 1    
   211  106  228 1    
   212  106  229 1    
   213  107  108 2    
   214  107  109 am   BACKBONE|DICT|INTERRES
   215  109  110 1    
   216  109  230 1    
   217  110  111 1    
   218  110  112 1    
   219  110  231 1    
   220  111  232 1    
   221  111  233 1    
   222  111  234 1    
   223  112  113 2    
   224  112  114 am   BACKBONE|DICT|INTERRES
   225  114  115 1    
   226  114  235 1    
   227  115  116 1    
   228  115  117 1    
   229  115  236 1    
   230  116  237 1    
   231  116  238 1    
   232  116  239 1    
   233  117  118 2    
   234  117  119 am   BACKBONE|DICT|INTERRES
   235  119  120 1    
   236  119  240 1    
   237  120  121 1    
   238  120  124 1    
   239  120  241 1    
   240  121  122 am   BACKBONE|DICT|INTERRES
   241  121  123 2    
   242  122  242 1    
   243  122  243 1    
   244  124  125 1    
   245  124  244 1    
   246  124  245 1    
   247  125  126 1    
   248  126  246 1    
   249  126  247 1    
@<TRIPOS>SUBSTRUCTURE
     1 UNK         1 GROUP             0       ****    0 ROOT    
