@<TRIPOS>MOLECULE
3R540
247   249    1
SMALL
USER_CHARGES


@<TRIPOS>ATOM
      1 CA          4.2614  -10.4025  -48.3755 C.3       0 UNK        -0.1800 
      2 C           3.3912  -11.1272  -47.3601 C.2       0 UNK         0.5000 
      3 O           3.6788  -11.0786  -46.1650 O.2       0 UNK        -0.5000 
      4 N           2.3184  -11.7801  -47.8262 N.am      1 UNK        -0.5000 
      5 CA          1.3800  -12.5973  -47.0390 C.3       1 UNK         0.1400 
      6 C6          0.3191  -13.2673  -47.9470 C.3       23 UNK        -0.0398 
      7 S7          1.0602  -14.4037  -49.1682 S.3       23 UNK        -0.2404 
      8 C8         -0.1315  -15.7762  -49.1240 C.3       23 UNK        -0.0205 
      9 C9          0.2679  -16.8916  -50.0753 C.ar      23 UNK        -0.0193 
     10 C10        -0.1932  -16.8908  -51.3957 C.ar      23 UNK        -0.1150 
     11 C11         0.1518  -17.9284  -52.2667 C.ar      23 UNK        -0.0193 
     12 C12         0.9625  -18.9700  -51.8086 C.ar      23 UNK        -0.1150 
     13 C13         1.4343  -18.9779  -50.4935 C.ar      23 UNK        -0.0193 
     14 C14         1.0865  -17.9345  -49.6309 C.ar      23 UNK        -0.1150 
     15 C15         2.3232  -20.1144  -50.0155 C.3       23 UNK        -0.0205 
     16 S16         1.3415  -21.5391  -49.4557 S.3       23 UNK        -0.2404 
     17 C17         0.8339  -20.9840  -47.7944 C.3       23 UNK        -0.0398 
     18 CA          0.2047  -22.1309  -46.9681 C.3       11 UNK         0.1400 
     19 N           0.3988  -21.9519  -45.5263 N.am      11 UNK        -0.5000 
     20 C           0.1311  -22.8804  -44.5965 C.2       10 UNK         0.5000 
     21 O          -0.3150  -23.9979  -44.8577 O.2       10 UNK        -0.5000 
     22 CA          0.3599  -22.4771  -43.1283 C.3       10 UNK         0.1400 
     23 CB          1.8524  -22.5178  -42.7666 C.3       10 UNK        -0.1800 
     24 N          -0.1863  -21.1521  -42.8355 N.am      10 UNK        -0.5000 
     25 C          -1.4973  -20.8727  -42.8096 C.2       9 UNK         0.5000 
     26 O          -2.3780  -21.7233  -42.9372 O.2       9 UNK        -0.5000 
     27 CA         -1.8963  -19.3947  -42.6427 C.3       9 UNK         0.1400 
     28 CB         -1.9554  -19.0156  -41.1556 C.3       9 UNK        -0.1800 
     29 N          -1.0057  -18.4718  -43.3493 N.am      9 UNK        -0.5000 
     30 C          -0.8425  -18.4348  -44.6799 C.2       8 UNK         0.5000 
     31 O          -1.4450  -19.1657  -45.4643 O.2       8 UNK        -0.5000 
     32 CA          0.2169  -17.4600  -45.2239 C.3       8 UNK         0.1400 
     33 CB         -0.3107  -16.0186  -45.2327 C.3       8 UNK        -0.1800 
     34 N           1.4691  -17.5192  -44.4718 N.am      8 UNK        -0.5000 
     35 C           2.2390  -18.6104  -44.3583 C.2       7 UNK         0.5000 
     36 O           2.0006  -19.6774  -44.9209 O.2       7 UNK        -0.5000 
     37 CA          3.4457  -18.5110  -43.4131 C.3       7 UNK         0.1400 
     38 CB          4.6360  -17.8402  -44.1132 C.3       7 UNK        -0.1800 
     39 N           3.1086  -17.7846  -42.1893 N.am      7 UNK        -0.5000 
     40 C           2.3001  -18.2619  -41.2319 C.2       6 UNK         0.5000 
     41 O           1.7914  -19.3828  -41.2623 O.2       6 UNK        -0.5000 
     42 CA          1.9755  -17.3092  -40.0668 C.3       6 UNK         0.1400 
     43 CB          3.0944  -17.3355  -39.0150 C.3       6 UNK        -0.1800 
     44 N           1.7591  -15.9317  -40.5134 N.am      6 UNK        -0.5000 
     45 C           0.7213  -15.5382  -41.2649 C.2       5 UNK         0.5000 
     46 O          -0.1795  -16.2921  -41.6303 O.2       5 UNK        -0.5000 
     47 CA          0.7079  -14.0681  -41.7204 C.3       5 UNK         0.1400 
     48 CB          0.0257  -13.1778  -40.6719 C.3       5 UNK        -0.1800 
     49 N           2.0367  -13.5308  -42.0166 N.am      5 UNK        -0.5000 
     50 C           2.8629  -13.9860  -42.9670 C.2       4 UNK         0.5000 
     51 O           2.6278  -14.9857  -43.6482 O.2       4 UNK        -0.5000 
     52 CA          4.1562  -13.1764  -43.1888 C.3       4 UNK         0.1400 
     53 CB          4.9999  -13.7120  -44.3591 C.3       4 UNK        -0.1800 
     54 N           3.8594  -11.7673  -43.4388 N.am      4 UNK        -0.5000 
     55 C           3.6223  -10.8361  -42.5065 C.2       3 UNK         0.5000 
     56 O           3.6212  -11.0681  -41.2970 O.2       3 UNK        -0.5000 
     57 CA          3.2815   -9.4291  -43.0184 C.3       3 UNK         0.1400 
     58 CB          4.5277   -8.7325  -43.5883 C.3       3 UNK        -0.1800 
     59 N           2.2489   -9.5022  -44.0501 N.am      3 UNK        -0.5000 
     60 C           0.9323   -9.4222  -43.8140 C.2       2 UNK         0.5000 
     61 O           0.4474   -9.2113  -42.7017 O.2       2 UNK        -0.5000 
     62 CA         -0.0071   -9.6079  -45.0223 C.3       2 UNK         0.1400 
     63 CB         -0.3304   -8.2508  -45.6657 C.3       2 UNK        -0.1800 
     64 N           0.5432  -10.5007  -46.0432 N.am      2 UNK        -0.5000 
     65 C           0.6801  -11.8263  -45.8969 C.2       1 UNK         0.5000 
     66 O           0.2860  -12.4425  -44.9076 O.2       1 UNK        -0.5000 
     67 C          -1.2747  -22.3540  -47.3428 C.2       11 UNK         0.5000 
     68 O          -1.5514  -23.1656  -48.2234 O.2       11 UNK        -0.5000 
     69 N          -2.1987  -21.6960  -46.6271 N.am      12 UNK        -0.5000 
     70 CA         -3.6514  -21.8234  -46.7827 C.3       12 UNK         0.1400 
     71 CB         -4.3518  -20.8102  -45.8648 C.3       12 UNK        -0.1800 
     72 C          -4.2138  -23.2435  -46.5549 C.2       12 UNK         0.5000 
     73 O          -5.3321  -23.5186  -46.9891 O.2       12 UNK        -0.5000 
     74 N          -3.4472  -24.1183  -45.8893 N.am      13 UNK        -0.5000 
     75 CA         -3.7763  -25.5326  -45.7158 C.3       13 UNK         0.1400 
     76 CB         -3.1871  -26.0151  -44.3811 C.3       13 UNK        -0.1800 
     77 C          -3.2662  -26.4111  -46.8772 C.2       13 UNK         0.5000 
     78 O          -3.7359  -27.5410  -47.0166 O.2       13 UNK        -0.5000 
     79 N          -2.3109  -25.9054  -47.6696 N.am      14 UNK        -0.5000 
     80 CA         -1.6604  -26.6245  -48.7663 C.3       14 UNK         0.1400 
     81 CB         -0.1421  -26.4003  -48.6773 C.3       14 UNK        -0.1800 
     82 C          -2.1886  -26.1720  -50.1372 C.2       14 UNK         0.5000 
     83 O          -2.4022  -27.0116  -51.0124 O.2       14 UNK        -0.5000 
     84 N          -2.4009  -24.8624  -50.2963 N.am      15 UNK        -0.5000 
     85 CA         -2.9503  -24.2183  -51.4827 C.3       15 UNK         0.1400 
     86 CB         -1.8334  -23.9528  -52.5123 C.3       15 UNK        -0.1800 
     87 C          -3.7050  -22.9518  -51.0454 C.2       15 UNK         0.5000 
     88 O          -4.2023  -22.9090  -49.9205 O.2       15 UNK        -0.5000 
     89 N          -3.8190  -21.9613  -51.9392 N.am      16 UNK        -0.5000 
     90 CA         -4.4883  -20.6677  -51.7677 C.3       16 UNK         0.1400 
     91 CB         -3.7643  -19.8012  -50.7128 C.3       16 UNK        -0.1800 
     92 C          -5.9942  -20.8385  -51.4958 C.2       16 UNK         0.5000 
     93 O          -6.7792  -20.8825  -52.4422 O.2       16 UNK        -0.5000 
     94 N          -6.3690  -20.9785  -50.2190 N.am      17 UNK        -0.5000 
     95 CA         -7.7186  -21.3431  -49.7918 C.3       17 UNK         0.1400 
     96 CB         -7.8681  -21.0506  -48.2914 C.3       17 UNK        -0.1800 
     97 C          -8.0475  -22.8184  -50.0962 C.2       17 UNK         0.5000 
     98 O          -9.2008  -23.1306  -50.3941 O.2       17 UNK        -0.5000 
     99 N          -7.0340  -23.6941  -50.0307 N.am      18 UNK        -0.5000 
    100 CA        -7.1597  -25.1278  -50.2964 C.3       18 UNK         0.1400 
    101 CB        -6.0870  -25.8813  -49.4954 C.3       18 UNK        -0.1800 
    102 C         -7.0710  -25.4823  -51.7942 C.2       18 UNK         0.5000 
    103 O         -7.5165  -26.5656  -52.1747 O.2       18 UNK        -0.5000 
    104 N         -6.5127  -24.5859  -52.6190 N.am      19 UNK        -0.5000 
    105 CA        -6.3824  -24.7474  -54.0648 C.3       19 UNK         0.1400 
    106 CB        -5.2296  -25.7071  -54.4195 C.3       19 UNK        -0.1800 
    107 C         -6.1633  -23.3642  -54.6846 C.2       19 UNK         0.5000 
    108 O         -5.0965  -22.7755  -54.4907 O.2       19 UNK        -0.5000 
    109 N         -7.1703  -22.8774  -55.4216 N.am      20 UNK        -0.5000 
    110 CA        -7.2403  -21.5334  -56.0101 C.3       20 UNK         0.1400 
    111 CB        -8.6242  -21.3489  -56.6523 C.3       20 UNK        -0.1800 
    112 C         -6.1273  -21.1958  -57.0239 C.2       20 UNK         0.5000 
    113 O         -5.9037  -20.0170  -57.3023 O.2       20 UNK        -0.5000 
    114 N         -5.4347  -22.2219  -57.5384 N.am      21 UNK        -0.5000 
    115 CA        -4.2326  -22.0990  -58.3660 C.3       21 UNK         0.1400 
    116 CB        -3.8661  -23.4861  -58.9157 C.3       21 UNK        -0.1800 
    117 C         -3.0323  -21.4828  -57.6150 C.2       21 UNK         0.5000 
    118 O         -2.1460  -20.9206  -58.2590 O.2       21 UNK        -0.5000 
    119 N         -3.0332  -21.5827  -56.2770 N.am      22 UNK        -0.5000 
    120 CA        -2.0411  -20.9925  -55.3636 C.3       22 UNK         0.1400 
    121 C         -0.6274  -21.6525  -55.4065 C.2       22 UNK         0.5000 
    122 N         -0.4776  -22.8468  -55.9667 N.am      22 UNK        -0.7600 
    123 O          0.3441  -21.0980  -54.9027 O.2       22 UNK        -0.5000 
    124 C124       -2.0157  -19.4350  -55.4429 C.3       23 UNK        -0.0398 
    125 S125       -2.0162  -18.6594  -53.7920 S.3       23 UNK        -0.2404 
    126 C126       -0.3517  -17.9354  -53.7005 C.3       23 UNK        -0.0205 
    127 H127        3.8825  -10.5184  -49.3911 H         1 UNK         0.0600 
    128 H128        5.2776  -10.7953  -48.3438 H         1 UNK         0.0600 
    129 H129        4.2988   -9.3381  -48.1443 H         1 UNK         0.0600 
    130 H130        2.1481  -11.7825  -48.8221 H         1 UNK         0.3000 
    131 H131        1.9674  -13.3849  -46.5616 H         1 UNK         0.0600 
    132 H132       -0.4026  -13.8214  -47.3443 H         1 UNK         0.0800 
    133 H133       -0.2572  -12.5130  -48.4858 H         1 UNK         0.0800 
    134 H134       -1.1246  -15.4038  -49.3806 H         1 UNK         0.0800 
    135 H135       -0.2008  -16.1676  -48.1097 H         1 UNK         0.0800 
    136 H136       -0.8264  -16.0870  -51.7443 H         1 UNK         0.1150 
    137 H137        1.2224  -19.7798  -52.4767 H         1 UNK         0.1150 
    138 H138        1.4496  -17.9357  -48.6128 H         1 UNK         0.1150 
    139 H139        2.9719  -20.4363  -50.8316 H         1 UNK         0.0800 
    140 H140        2.9869  -19.7776  -49.2176 H         1 UNK         0.0800 
    141 H141        0.1635  -20.1258  -47.8708 H         1 UNK         0.0800 
    142 H142        1.7348  -20.6222  -47.2994 H         1 UNK         0.0800 
    143 H143        0.7334  -23.0538  -47.2181 H         1 UNK         0.0600 
    144 H144        0.8040  -21.0665  -45.2310 H         1 UNK         0.3000 
    145 H145       -0.1571  -23.2044  -42.4987 H         1 UNK         0.0600 
    146 H146        2.0076  -22.2872  -41.7124 H         1 UNK         0.0600 
    147 H147        2.2699  -23.5088  -42.9484 H         1 UNK         0.0600 
    148 H148        2.4331  -21.8052  -43.3518 H         1 UNK         0.0600 
    149 H149        0.4787  -20.4064  -42.6678 H         1 UNK         0.3000 
    150 H150       -2.8967  -19.2754  -43.0637 H         1 UNK         0.0600 
    151 H151       -2.6194  -19.6846  -40.6067 H         1 UNK         0.0600 
    152 H152       -2.3335  -18.0019  -41.0226 H         1 UNK         0.0600 
    153 H153       -0.9720  -19.0700  -40.6876 H         1 UNK         0.0600 
    154 H154       -0.5068  -17.7977  -42.7749 H         1 UNK         0.3000 
    155 H155        0.4382  -17.7495  -46.2529 H         1 UNK         0.0600 
    156 H156       -0.5782  -15.6789  -44.2330 H         1 UNK         0.0600 
    157 H157        0.4372  -15.3307  -45.6261 H         1 UNK         0.0600 
    158 H158       -1.2021  -15.9314  -45.8545 H         1 UNK         0.0600 
    159 H159        1.7713  -16.6622  -44.0160 H         1 UNK         0.3000 
    160 H160        3.7431  -19.5250  -43.1369 H         1 UNK         0.0600 
    161 H161        4.9593  -18.4283  -44.9729 H         1 UNK         0.0600 
    162 H162        4.3810  -16.8462  -44.4789 H         1 UNK         0.0600 
    163 H163        5.4904  -17.7461  -43.4429 H         1 UNK         0.0600 
    164 H164        3.4358  -16.8325  -42.1207 H         1 UNK         0.3000 
    165 H165        1.0560  -17.6625  -39.5951 H         1 UNK         0.0600 
    166 H166        2.8371  -16.7229  -38.1507 H         1 UNK         0.0600 
    167 H167        3.2651  -18.3504  -38.6532 H         1 UNK         0.0600 
    168 H168        4.0384  -16.9676  -39.4188 H         1 UNK         0.0600 
    169 H169        2.4562  -15.2481  -40.2574 H         1 UNK         0.3000 
    170 H170        0.1223  -14.0156  -42.6397 H         1 UNK         0.0600 
    171 H171       -0.9782  -13.5396  -40.4459 H         1 UNK         0.0600 
    172 H172        0.5863  -13.1542  -39.7367 H         1 UNK         0.0600 
    173 H173       -0.0721  -12.1529  -41.0313 H         1 UNK         0.0600 
    174 H174        2.3189  -12.6989  -41.5111 H         1 UNK         0.3000 
    175 H175        4.7554  -13.2601  -42.2799 H         1 UNK         0.0600 
    176 H176        4.4346  -13.7234  -45.2921 H         1 UNK         0.0600 
    177 H177        5.8891  -13.1012  -44.5160 H         1 UNK         0.0600 
    178 H178        5.3393  -14.7286  -44.1626 H         1 UNK         0.0600 
    179 H179        3.8039  -11.4970  -44.4193 H         1 UNK         0.3000 
    180 H180        2.9245   -8.8368  -42.1731 H         1 UNK         0.0600 
    181 H181        4.9368   -9.2655  -44.4474 H         1 UNK         0.0600 
    182 H182        5.3153   -8.6673  -42.8366 H         1 UNK         0.0600 
    183 H183        4.2969   -7.7158  -43.9063 H         1 UNK         0.0600 
    184 H184        2.5626   -9.7496  -44.9807 H         1 UNK         0.3000 
    185 H185       -0.9395  -10.0411  -44.6535 H         1 UNK         0.0600 
    186 H186       -1.0502   -8.3602  -46.4772 H         1 UNK         0.0600 
    187 H187       -0.7664   -7.5671  -44.9361 H         1 UNK         0.0600 
    188 H188        0.5631   -7.7733  -46.0700 H         1 UNK         0.0600 
    189 H189        0.8893  -10.0716  -46.8890 H         1 UNK         0.3000 
    190 H190       -1.8814  -20.9960  -45.9625 H         1 UNK         0.3000 
    191 H191       -3.8870  -21.5496  -47.8092 H         1 UNK         0.0600 
    192 H192       -4.1306  -21.0000  -44.8150 H         1 UNK         0.0600 
    193 H193       -5.4349  -20.8551  -45.9840 H         1 UNK         0.0600 
    194 H194       -4.0448  -19.7900  -46.0950 H         1 UNK         0.0600 
    195 H195       -2.5432  -23.8171  -45.5478 H         1 UNK         0.3000 
    196 H196       -4.8607  -25.6517  -45.6648 H         1 UNK         0.0600 
    197 H197       -3.4690  -27.0496  -44.1814 H         1 UNK         0.0600 
    198 H198       -3.5500  -25.4126  -43.5481 H         1 UNK         0.0600 
    199 H199       -2.0978  -25.9673  -44.3804 H         1 UNK         0.0600 
    200 H200       -2.0308  -24.9388  -47.5439 H         1 UNK         0.3000 
    201 H201       -1.8440  -27.6971  -48.6768 H         1 UNK         0.0600 
    202 H202        0.2531  -26.7606  -47.7274 H         1 UNK         0.0600 
    203 H203        0.1184  -25.3450  -48.7680 H         1 UNK         0.0600 
    204 H204        0.3787  -26.9364  -49.4715 H         1 UNK         0.0600 
    205 H205       -2.2231  -24.2298  -49.5163 H         1 UNK         0.3000 
    206 H206       -3.6915  -24.8850  -51.9236 H         1 UNK         0.0600 
    207 H207       -1.2682  -24.8601  -52.7256 H         1 UNK         0.0600 
    208 H208       -2.2439  -23.6101  -53.4620 H         1 UNK         0.0600 
    209 H209       -1.1291  -23.1993  -52.1564 H         1 UNK         0.0600 
    210 H210       -3.4943  -22.1427  -52.8779 H         1 UNK         0.3000 
    211 H211       -4.4085  -20.1532  -52.7261 H         1 UNK         0.0600 
    212 H212       -3.7492  -20.2612  -49.7264 H         1 UNK         0.0600 
    213 H213       -4.2432  -18.8265  -50.6148 H         1 UNK         0.0600 
    214 H214       -2.7278  -19.6235  -50.9999 H         1 UNK         0.0600 
    215 H215       -5.6460  -21.0039  -49.5144 H         1 UNK         0.3000 
    216 H216       -8.4342  -20.7209  -50.3335 H         1 UNK         0.0600 
    217 H217       -8.8778  -21.2797  -47.9486 H         1 UNK         0.0600 
    218 H218       -7.6809  -19.9992  -48.0728 H         1 UNK         0.0600 
    219 H219       -7.1770  -21.6462  -47.6947 H         1 UNK         0.0600 
    220 H220       -6.1102  -23.3614  -49.7673 H         1 UNK         0.3000 
    221 H221       -8.1347  -25.4692  -49.9423 H         1 UNK         0.0600 
    222 H222       -5.0836  -25.5534  -49.7596 H         1 UNK         0.0600 
    223 H223       -6.2148  -25.7259  -48.4242 H         1 UNK         0.0600 
    224 H224       -6.1395  -26.9558  -49.6750 H         1 UNK         0.0600 
    225 H225       -6.2308  -23.6874  -52.2523 H         1 UNK         0.3000 
    226 H226       -7.3125  -25.1658  -54.4557 H         1 UNK         0.0600 
    227 H227       -5.3664  -26.6867  -53.9617 H         1 UNK         0.0600 
    228 H228       -5.1754  -25.8607  -55.4977 H         1 UNK         0.0600 
    229 H229       -4.2615  -25.3220  -54.1011 H         1 UNK         0.0600 
    230 H230       -7.9999  -23.4425  -55.5315 H         1 UNK         0.3000 
    231 H231       -7.1470  -20.8164  -55.1921 H         1 UNK         0.0600 
    232 H232       -8.7320  -20.3479  -57.0725 H         1 UNK         0.0600 
    233 H233       -9.4203  -21.4769  -55.9186 H         1 UNK         0.0600 
    234 H234       -8.7906  -22.0634  -57.4594 H         1 UNK         0.0600 
    235 H235       -5.6995  -23.1549  -57.2606 H         1 UNK         0.3000 
    236 H236       -4.4661  -21.4441  -59.2079 H         1 UNK         0.0600 
    237 H237       -4.6775  -23.9002  -59.5146 H         1 UNK         0.0600 
    238 H238       -2.9856  -23.4322  -59.5574 H         1 UNK         0.0600 
    239 H239       -3.6458  -24.1918  -58.1137 H         1 UNK         0.0600 
    240 H240       -3.8068  -22.0620  -55.8267 H         1 UNK         0.3000 
    241 H241       -2.4208  -21.2659  -54.3801 H         1 UNK         0.0600 
    242 H242        0.4356  -23.2725  -55.9844 H         1 UNK         0.3800 
    243 H243       -1.2607  -23.3199  -56.3868 H         1 UNK         0.3800 
    244 H244       -1.1830  -19.0737  -56.0486 H         1 UNK         0.0800 
    245 H245       -2.9125  -19.0655  -55.9426 H         1 UNK         0.0800 
    246 H246        0.3418  -18.4950  -54.3292 H         1 UNK         0.0800 
    247 H247       -0.3761  -16.9200  -54.0987 H         1 UNK         0.0800 
@<TRIPOS>BOND
     1    1    2 1    
     2    1  127 1    
     3    1  128 1    
     4    1  129 1    
     5    2    3 2    
     6    2    4 am   BACKBONE|DICT|INTERRES
     7    4    5 1    
     8    4  130 1    
     9    5    6 1    
    10    5   65 1    
    11    5  131 1    
    12    6    7 1    
    13    6  132 1    
    14    6  133 1    
    15    7    8 1    
    16    8    9 1    
    17    8  134 1    
    18    8  135 1    
    19    9   10 ar   
    20    9   14 ar   
    21   10   11 ar   
    22   10  136 1    
    23   11   12 ar   
    24   11  126 1    
    25   12   13 ar   
    26   12  137 1    
    27   13   14 ar   
    28   13   15 1    
    29   14  138 1    
    30   15   16 1    
    31   15  139 1    
    32   15  140 1    
    33   16   17 1    
    34   17   18 1    
    35   17  141 1    
    36   17  142 1    
    37   18   19 1    
    38   18   67 1    
    39   18  143 1    
    40   19   20 am   BACKBONE|DICT|INTERRES
    41   19  144 1    
    42   20   21 2    
    43   20   22 1    
    44   22   23 1    
    45   22   24 1    
    46   22  145 1    
    47   23  146 1    
    48   23  147 1    
    49   23  148 1    
    50   24   25 am   BACKBONE|DICT|INTERRES
    51   24  149 1    
    52   25   26 2    
    53   25   27 1    
    54   27   28 1    
    55   27   29 1    
    56   27  150 1    
    57   28  151 1    
    58   28  152 1    
    59   28  153 1    
    60   29   30 am   BACKBONE|DICT|INTERRES
    61   29  154 1    
    62   30   31 2    
    63   30   32 1    
    64   32   33 1    
    65   32   34 1    
    66   32  155 1    
    67   33  156 1    
    68   33  157 1    
    69   33  158 1    
    70   34   35 am   BACKBONE|DICT|INTERRES
    71   34  159 1    
    72   35   36 2    
    73   35   37 1    
    74   37   38 1    
    75   37   39 1    
    76   37  160 1    
    77   38  161 1    
    78   38  162 1    
    79   38  163 1    
    80   39   40 am   BACKBONE|DICT|INTERRES
    81   39  164 1    
    82   40   41 2    
    83   40   42 1    
    84   42   43 1    
    85   42   44 1    
    86   42  165 1    
    87   43  166 1    
    88   43  167 1    
    89   43  168 1    
    90   44   45 am   BACKBONE|DICT|INTERRES
    91   44  169 1    
    92   45   46 2    
    93   45   47 1    
    94   47   48 1    
    95   47   49 1    
    96   47  170 1    
    97   48  171 1    
    98   48  172 1    
    99   48  173 1    
   100   49   50 am   BACKBONE|DICT|INTERRES
   101   49  174 1    
   102   50   51 2    
   103   50   52 1    
   104   52   53 1    
   105   52   54 1    
   106   52  175 1    
   107   53  176 1    
   108   53  177 1    
   109   53  178 1    
   110   54   55 am   BACKBONE|DICT|INTERRES
   111   54  179 1    
   112   55   56 2    
   113   55   57 1    
   114   57   58 1    
   115   57   59 1    
   116   57  180 1    
   117   58  181 1    
   118   58  182 1    
   119   58  183 1    
   120   59   60 am   BACKBONE|DICT|INTERRES
   121   59  184 1    
   122   60   61 2    
   123   60   62 1    
   124   62   63 1    
   125   62   64 1    
   126   62  185 1    
   127   63  186 1    
   128   63  187 1    
   129   63  188 1    
   130   64   65 am   BACKBONE|DICT|INTERRES
   131   64  189 1    
   132   65   66 2    
   133   67   68 2    
   134   67   69 am   BACKBONE|DICT|INTERRES
   135   69   70 1    
   136   69  190 1    
   137   70   71 1    
   138   70   72 1    
   139   70  191 1    
   140   71  192 1    
   141   71  193 1    
   142   71  194 1    
   143   72   73 2    
   144   72   74 am   BACKBONE|DICT|INTERRES
   145   74   75 1    
   146   74  195 1    
   147   75   76 1    
   148   75   77 1    
   149   75  196 1    
   150   76  197 1    
   151   76  198 1    
   152   76  199 1    
   153   77   78 2    
   154   77   79 am   BACKBONE|DICT|INTERRES
   155   79   80 1    
   156   79  200 1    
   157   80   81 1    
   158   80   82 1    
   159   80  201 1    
   160   81  202 1    
   161   81  203 1    
   162   81  204 1    
   163   82   83 2    
   164   82   84 am   BACKBONE|DICT|INTERRES
   165   84   85 1    
   166   84  205 1    
   167   85   86 1    
   168   85   87 1    
   169   85  206 1    
   170   86  207 1    
   171   86  208 1    
   172   86  209 1    
   173   87   88 2    
   174   87   89 am   BACKBONE|DICT|INTERRES
   175   89   90 1    
   176   89  210 1    
   177   90   91 1    
   178   90   92 1    
   179   90  211 1    
   180   91  212 1    
   181   91  213 1    
   182   91  214 1    
   183   92   93 2    
   184   92   94 am   BACKBONE|DICT|INTERRES
   185   94   95 1    
   186   94  215 1    
   187   95   96 1    
   188   95   97 1    
   189   95  216 1    
   190   96  217 1    
   191   96  218 1    
   192   96  219 1    
   193   97   98 2    
   194   97   99 am   BACKBONE|DICT|INTERRES
   195   99  100 1    
   196   99  220 1    
   197  100  101 1    
   198  100  102 1    
   199  100  221 1    
   200  101  222 1    
   201  101  223 1    
   202  101  224 1    
   203  102  103 2    
   204  102  104 am   BACKBONE|DICT|INTERRES
   205  104  105 1    
   206  104  225 1    
   207  105  106 1    
   208  105  107 1    
   209  105  226 1    
   210  106  227 1    
   211  106  228 1    
   212  106  229 1    
   213  107  108 2    
   214  107  109 am   BACKBONE|DICT|INTERRES
   215  109  110 1    
   216  109  230 1    
   217  110  111 1    
   218  110  112 1    
   219  110  231 1    
   220  111  232 1    
   221  111  233 1    
   222  111  234 1    
   223  112  113 2    
   224  112  114 am   BACKBONE|DICT|INTERRES
   225  114  115 1    
   226  114  235 1    
   227  115  116 1    
   228  115  117 1    
   229  115  236 1    
   230  116  237 1    
   231  116  238 1    
   232  116  239 1    
   233  117  118 2    
   234  117  119 am   BACKBONE|DICT|INTERRES
   235  119  120 1    
   236  119  240 1    
   237  120  121 1    
   238  120  124 1    
   239  120  241 1    
   240  121  122 am   BACKBONE|DICT|INTERRES
   241  121  123 2    
   242  122  242 1    
   243  122  243 1    
   244  124  125 1    
   245  124  244 1    
   246  124  245 1    
   247  125  126 1    
   248  126  246 1    
   249  126  247 1    
@<TRIPOS>SUBSTRUCTURE
     1 UNK         1 GROUP             0       ****    0 ROOT    
