@<TRIPOS>MOLECULE
3R540
247   249    1
SMALL
USER_CHARGES


@<TRIPOS>ATOM
      1 CA         -3.3424  -13.6122  -50.3507 C.3       0 UNK        -0.1800 
      2 C          -2.6758  -12.7177  -49.3174 C.2       0 UNK         0.5000 
      3 O          -3.1486  -11.6093  -49.0652 O.2       0 UNK        -0.5000 
      4 N          -1.5777  -13.1966  -48.7178 N.am      1 UNK        -0.5000 
      5 CA         -0.8098  -12.4815  -47.6890 C.3       1 UNK         0.1400 
      6 C6          0.6327  -13.0272  -47.5659 C.3       23 UNK        -0.0398 
      7 S7          0.7596  -14.7164  -46.8772 S.3       23 UNK        -0.2404 
      8 C8          1.2125  -15.6958  -48.3433 C.3       23 UNK        -0.0205 
      9 C9          0.0176  -16.0643  -49.2058 C.ar      23 UNK        -0.0193 
     10 C10         0.0687  -15.8870  -50.5910 C.ar      23 UNK        -0.1150 
     11 C11        -0.9941  -16.3043  -51.3967 C.ar      23 UNK        -0.0193 
     12 C12        -2.1252  -16.8702  -50.8035 C.ar      23 UNK        -0.1150 
     13 C13        -2.1795  -17.0734  -49.4224 C.ar      23 UNK        -0.0193 
     14 C14        -1.1088  -16.6586  -48.6291 C.ar      23 UNK        -0.1150 
     15 C15        -3.3754  -17.7700  -48.7910 C.3       23 UNK        -0.0205 
     16 S16        -3.1845  -19.5836  -48.8091 S.3       23 UNK        -0.2404 
     17 C17        -1.8760  -19.8228  -47.5556 C.3       23 UNK        -0.0398 
     18 CA         -1.5286  -21.3102  -47.3082 C.3       11 UNK         0.1400 
     19 N          -0.2278  -21.4634  -46.6465 N.am      11 UNK        -0.5000 
     20 C           0.4214  -22.6290  -46.5108 C.2       10 UNK         0.5000 
     21 O           0.0214  -23.6895  -46.9888 O.2       10 UNK        -0.5000 
     22 CA          1.7028  -22.6242  -45.6559 C.3       10 UNK         0.1400 
     23 CB          2.9170  -22.1878  -46.4885 C.3       10 UNK        -0.1800 
     24 N           1.5849  -21.7807  -44.4650 N.am      10 UNK        -0.5000 
     25 C           0.7324  -22.0133  -43.4562 C.2       9 UNK         0.5000 
     26 O           0.0031  -23.0013  -43.3996 O.2       9 UNK        -0.5000 
     27 CA          0.6312  -20.9432  -42.3532 C.3       9 UNK         0.1400 
     28 CB          1.7157  -21.1539  -41.2881 C.3       9 UNK        -0.1800 
     29 N           0.7057  -19.5794  -42.8790 N.am      9 UNK        -0.5000 
     30 C          -0.1781  -19.0463  -43.7355 C.2       8 UNK         0.5000 
     31 O          -1.1824  -19.6347  -44.1372 O.2       8 UNK        -0.5000 
     32 CA          0.1508  -17.6491  -44.2863 C.3       8 UNK         0.1400 
     33 CB         -0.3015  -16.5459  -43.3228 C.3       8 UNK        -0.1800 
     34 N           1.5771  -17.5028  -44.5707 N.am      8 UNK        -0.5000 
     35 C           2.2024  -18.1192  -45.5827 C.2       7 UNK         0.5000 
     36 O           1.6249  -18.8255  -46.4102 O.2       7 UNK        -0.5000 
     37 CA          3.7330  -17.9618  -45.6432 C.3       7 UNK         0.1400 
     38 CB          4.1400  -16.6550  -46.3405 C.3       7 UNK        -0.1800 
     39 N           4.3335  -18.0070  -44.3098 N.am      7 UNK        -0.5000 
     40 C           4.4256  -19.1258  -43.5773 C.2       6 UNK         0.5000 
     41 O           4.0280  -20.2236  -43.9650 O.2       6 UNK        -0.5000 
     42 CA          5.0355  -19.0059  -42.1685 C.3       6 UNK         0.1400 
     43 CB          6.5471  -19.2730  -42.2166 C.3       6 UNK        -0.1800 
     44 N           4.7988  -17.7170  -41.5187 N.am      6 UNK        -0.5000 
     45 C           3.6002  -17.1918  -41.2304 C.2       5 UNK         0.5000 
     46 O           2.5313  -17.7314  -41.5218 O.2       5 UNK        -0.5000 
     47 CA          3.5880  -15.8268  -40.5089 C.3       5 UNK         0.1400 
     48 CB          4.9803  -15.3560  -40.0319 C.3       5 UNK        -0.1800 
     49 N           2.9612  -14.7633  -41.2983 N.am      5 UNK        -0.5000 
     50 C           3.2162  -14.4109  -42.5656 C.2       4 UNK         0.5000 
     51 O           3.9668  -15.0399  -43.3147 O.2       4 UNK        -0.5000 
     52 CA          2.5098  -13.1287  -43.0632 C.3       4 UNK         0.1400 
     53 CB          2.9094  -12.7509  -44.4985 C.3       4 UNK        -0.1800 
     54 N           1.0462  -13.2051  -42.9639 N.am      4 UNK        -0.5000 
     55 C           0.3530  -13.0492  -41.8261 C.2       3 UNK         0.5000 
     56 O           0.8980  -12.8410  -40.7402 O.2       3 UNK        -0.5000 
     57 CA         -1.1815  -13.1610  -41.8777 C.3       3 UNK         0.1400 
     58 CB         -1.8654  -12.0696  -41.0315 C.3       3 UNK        -0.1800 
     59 N          -1.7318  -13.1293  -43.2354 N.am      3 UNK        -0.5000 
     60 C          -2.8233  -13.8040  -43.6148 C.2       2 UNK         0.5000 
     61 O          -3.3842  -14.6392  -42.9043 O.2       2 UNK        -0.5000 
     62 CA         -3.4266  -13.4938  -44.9988 C.3       2 UNK         0.1400 
     63 CB         -4.3612  -12.2718  -44.9222 C.3       2 UNK        -0.1800 
     64 N          -2.4766  -13.3548  -46.1079 N.am      2 UNK        -0.5000 
     65 C          -1.5333  -12.4255  -46.3224 C.2       1 UNK         0.5000 
     66 O          -1.2237  -11.5555  -45.5068 O.2       1 UNK        -0.5000 
     67 C          -2.6442  -22.0534  -46.5406 C.2       11 UNK         0.5000 
     68 O          -3.4479  -22.7523  -47.1597 O.2       11 UNK        -0.5000 
     69 N          -2.6424  -21.9393  -45.2044 N.am      12 UNK        -0.5000 
     70 CA         -3.5531  -22.6588  -44.3121 C.3       12 UNK         0.1400 
     71 CB         -3.4036  -22.1290  -42.8785 C.3       12 UNK        -0.1800 
     72 C          -3.3554  -24.1863  -44.3655 C.2       12 UNK         0.5000 
     73 O          -4.3409  -24.9196  -44.4441 O.2       12 UNK        -0.5000 
     74 N          -2.0934  -24.6395  -44.3819 N.am      13 UNK        -0.5000 
     75 CA         -1.7053  -26.0454  -44.5385 C.3       13 UNK         0.1400 
     76 CB         -0.1942  -26.1905  -44.3062 C.3       13 UNK        -0.1800 
     77 C          -2.1042  -26.6370  -45.9049 C.2       13 UNK         0.5000 
     78 O          -2.4423  -27.8184  -45.9802 O.2       13 UNK        -0.5000 
     79 N          -2.1099  -25.7950  -46.9471 N.am      14 UNK        -0.5000 
     80 CA         -2.6133  -26.1018  -48.2880 C.3       14 UNK         0.1400 
     81 CB         -1.9566  -25.1443  -49.2978 C.3       14 UNK        -0.1800 
     82 C          -4.1544  -26.0493  -48.3950 C.2       14 UNK         0.5000 
     83 O          -4.6791  -26.2117  -49.4966 O.2       14 UNK        -0.5000 
     84 N          -4.8521  -25.8143  -47.2724 N.am      15 UNK        -0.5000 
     85 CA         -6.3073  -25.7143  -47.1256 C.3       15 UNK         0.1400 
     86 CB         -6.9961  -27.0508  -47.4747 C.3       15 UNK        -0.1800 
     87 C          -6.9035  -24.5044  -47.8721 C.2       15 UNK         0.5000 
     88 O          -8.0108  -24.5942  -48.4056 O.2       15 UNK        -0.5000 
     89 N          -6.1540  -23.3913  -47.8826 N.am      16 UNK        -0.5000 
     90 CA         -6.4754  -22.1122  -48.5190 C.3       16 UNK         0.1400 
     91 CB         -7.6905  -21.4434  -47.8429 C.3       16 UNK        -0.1800 
     92 C          -6.6086  -22.2290  -50.0505 C.2       16 UNK         0.5000 
     93 O          -7.5232  -21.6503  -50.6399 O.2       16 UNK        -0.5000 
     94 N          -5.6756  -22.9720  -50.6678 N.am      17 UNK        -0.5000 
     95 CA         -5.5441  -23.1264  -52.1216 C.3       17 UNK         0.1400 
     96 CB         -4.4110  -24.1193  -52.4255 C.3       17 UNK        -0.1800 
     97 C          -5.2891  -21.7880  -52.8411 C.2       17 UNK         0.5000 
     98 O          -5.8106  -21.5730  -53.9365 O.2       17 UNK        -0.5000 
     99 N          -4.5208  -20.9121  -52.1763 N.am      18 UNK        -0.5000 
    100 CA        -4.2515  -19.5148  -52.5072 C.3       18 UNK         0.1400 
    101 CB        -5.4617  -18.6435  -52.1076 C.3       18 UNK        -0.1800 
    102 C         -3.7927  -19.3195  -53.9630 C.2       18 UNK         0.5000 
    103 O         -2.6807  -19.7246  -54.2966 O.2       18 UNK        -0.5000 
    104 N         -4.6561  -18.7460  -54.8120 N.am      19 UNK        -0.5000 
    105 CA        -4.4190  -18.4940  -56.2354 C.3       19 UNK         0.1400 
    106 CB        -5.6534  -17.8032  -56.8330 C.3       19 UNK        -0.1800 
    107 C         -4.0525  -19.7462  -57.0574 C.2       19 UNK         0.5000 
    108 O         -3.3211  -19.6208  -58.0396 O.2       19 UNK        -0.5000 
    109 N         -4.5161  -20.9305  -56.6303 N.am      20 UNK        -0.5000 
    110 CA        -4.1577  -22.2134  -57.2407 C.3       20 UNK         0.1400 
    111 CB        -5.1089  -23.3065  -56.7311 C.3       20 UNK        -0.1800 
    112 C         -2.6877  -22.6132  -56.9955 C.2       20 UNK         0.5000 
    113 O         -2.1333  -23.3718  -57.7917 O.2       20 UNK        -0.5000 
    114 N         -2.0838  -22.0954  -55.9171 N.am      21 UNK        -0.5000 
    115 CA        -0.6703  -22.2680  -55.5913 C.3       21 UNK         0.1400 
    116 CB        -0.5190  -22.4445  -54.0708 C.3       21 UNK        -0.1800 
    117 C          0.1572  -21.0705  -56.0908 C.2       21 UNK         0.5000 
    118 O          1.2266  -21.2727  -56.6679 O.2       21 UNK        -0.5000 
    119 N         -0.3457  -19.8510  -55.8573 N.am      22 UNK        -0.5000 
    120 CA         0.3228  -18.5847  -56.2007 C.3       22 UNK         0.1400 
    121 C          0.3286  -18.2399  -57.7172 C.2       22 UNK         0.5000 
    122 N         -0.5885  -18.7527  -58.5275 N.am      22 UNK        -0.7600 
    123 O          1.1925  -17.4940  -58.1706 O.2       22 UNK        -0.5000 
    124 C124       -0.2284  -17.3943  -55.3733 C.3       23 UNK        -0.0398 
    125 S125       -0.0195  -17.6431  -53.5796 S.3       23 UNK        -0.2404 
    126 C126       -0.8994  -16.1986  -52.9099 C.3       23 UNK        -0.0205 
    127 H127       -3.7379  -14.5111  -49.8781 H         1 UNK         0.0600 
    128 H128       -2.6287  -13.9049  -51.1203 H         1 UNK         0.0600 
    129 H129       -4.1685  -13.0933  -50.8373 H         1 UNK         0.0600 
    130 H130       -1.2308  -14.1137  -48.9669 H         1 UNK         0.3000 
    131 H131       -0.7212  -11.4448  -48.0216 H         1 UNK         0.0600 
    132 H132        1.2195  -12.3632  -46.9304 H         1 UNK         0.0800 
    133 H133        1.1214  -12.9909  -48.5402 H         1 UNK         0.0800 
    134 H134        1.9775  -15.1717  -48.9179 H         1 UNK         0.0800 
    135 H135        1.6653  -16.6285  -48.0140 H         1 UNK         0.0800 
    136 H136        0.9508  -15.4626  -51.0499 H         1 UNK         0.1150 
    137 H137       -2.9527  -17.1731  -51.4237 H         1 UNK         0.1150 
    138 H138       -1.1371  -16.8269  -47.5618 H         1 UNK         0.1150 
    139 H139       -3.5229  -17.4260  -47.7661 H         1 UNK         0.0800 
    140 H140       -4.2830  -17.5035  -49.3338 H         1 UNK         0.0800 
    141 H141       -2.1634  -19.3229  -46.6294 H         1 UNK         0.0800 
    142 H142       -0.9834  -19.3097  -47.9149 H         1 UNK         0.0800 
    143 H143       -1.4359  -21.7926  -48.2838 H         1 UNK         0.0600 
    144 H144        0.1806  -20.6320  -46.2383 H         1 UNK         0.3000 
    145 H145        1.8787  -23.6479  -45.3198 H         1 UNK         0.0600 
    146 H146        3.0354  -22.8230  -47.3673 H         1 UNK         0.0600 
    147 H147        2.8215  -21.1600  -46.8376 H         1 UNK         0.0600 
    148 H148        3.8377  -22.2599  -45.9094 H         1 UNK         0.0600 
    149 H149        2.2126  -20.9860  -44.4045 H         1 UNK         0.3000 
    150 H150       -0.3416  -21.0530  -41.8701 H         1 UNK         0.0600 
    151 H151        1.5940  -22.1209  -40.7988 H         1 UNK         0.0600 
    152 H152        1.6684  -20.3876  -40.5141 H         1 UNK         0.0600 
    153 H153        2.7138  -21.1345  -41.7231 H         1 UNK         0.0600 
    154 H154        1.4757  -19.0018  -42.5540 H         1 UNK         0.3000 
    155 H155       -0.4008  -17.5237  -45.2205 H         1 UNK         0.0600 
    156 H156        0.2681  -16.5524  -42.3933 H         1 UNK         0.0600 
    157 H157       -0.1850  -15.5676  -43.7853 H         1 UNK         0.0600 
    158 H158       -1.3552  -16.6594  -43.0650 H         1 UNK         0.0600 
    159 H159        2.1301  -16.9826  -43.9041 H         1 UNK         0.3000 
    160 H160        4.1346  -18.7933  -46.2265 H         1 UNK         0.0600 
    161 H161        3.6482  -15.7877  -45.8995 H         1 UNK         0.0600 
    162 H162        3.8801  -16.6814  -47.3981 H         1 UNK         0.0600 
    163 H163        5.2165  -16.4938  -46.2822 H         1 UNK         0.0600 
    164 H164        4.6224  -17.1238  -43.9059 H         1 UNK         0.3000 
    165 H165        4.5778  -19.7738  -41.5437 H         1 UNK         0.0600 
    166 H166        6.9784  -19.2863  -41.2155 H         1 UNK         0.0600 
    167 H167        6.7584  -20.2414  -42.6724 H         1 UNK         0.0600 
    168 H168        7.0712  -18.5144  -42.7994 H         1 UNK         0.0600 
    169 H169        5.6199  -17.1877  -41.2646 H         1 UNK         0.3000 
    170 H170        2.9644  -15.9621  -39.6242 H         1 UNK         0.0600 
    171 H171        5.4512  -16.0969  -39.3843 H         1 UNK         0.0600 
    172 H172        5.6547  -15.1571  -40.8659 H         1 UNK         0.0600 
    173 H173        4.8993  -14.4364  -39.4522 H         1 UNK         0.0600 
    174 H174        2.2862  -14.1886  -40.8020 H         1 UNK         0.3000 
    175 H175        2.8527  -12.3155  -42.4199 H         1 UNK         0.0600 
    176 H176        2.6903  -13.5524  -45.2004 H         1 UNK         0.0600 
    177 H177        2.3928  -11.8507  -44.8311 H         1 UNK         0.0600 
    178 H178        3.9799  -12.5526  -44.5623 H         1 UNK         0.0600 
    179 H179        0.5468  -13.4193  -43.8139 H         1 UNK         0.3000 
    180 H180       -1.4043  -14.1280  -41.4222 H         1 UNK         0.0600 
    181 H181       -1.6629  -11.0739  -41.4276 H         1 UNK         0.0600 
    182 H182       -1.5193  -12.0906  -39.9974 H         1 UNK         0.0600 
    183 H183       -2.9466  -12.2066  -41.0081 H         1 UNK         0.0600 
    184 H184       -1.3588  -12.4345  -43.8791 H         1 UNK         0.3000 
    185 H185       -4.0447  -14.3542  -45.2605 H         1 UNK         0.0600 
    186 H186       -5.1346  -12.4192  -44.1673 H         1 UNK         0.0600 
    187 H187       -3.8209  -11.3616  -44.6602 H         1 UNK         0.0600 
    188 H188       -4.8643  -12.1005  -45.8740 H         1 UNK         0.0600 
    189 H189       -2.5951  -14.0339  -46.8457 H         1 UNK         0.3000 
    190 H190       -1.9756  -21.3087  -44.7686 H         1 UNK         0.3000 
    191 H191       -4.5720  -22.4469  -44.6431 H         1 UNK         0.0600 
    192 H192       -2.4089  -22.3195  -42.4771 H         1 UNK         0.0600 
    193 H193       -4.1222  -22.6060  -42.2110 H         1 UNK         0.0600 
    194 H194       -3.5811  -21.0542  -42.8348 H         1 UNK         0.0600 
    195 H195       -1.3358  -23.9744  -44.2433 H         1 UNK         0.3000 
    196 H196       -2.2238  -26.6193  -43.7678 H         1 UNK         0.0600 
    197 H197        0.1145  -27.2339  -44.3813 H         1 UNK         0.0600 
    198 H198        0.0883  -25.8384  -43.3140 H         1 UNK         0.0600 
    199 H199        0.3808  -25.6245  -45.0390 H         1 UNK         0.0600 
    200 H200       -1.7554  -24.8555  -46.8077 H         1 UNK         0.3000 
    201 H201       -2.3110  -27.1186  -48.5462 H         1 UNK         0.0600 
    202 H202       -0.8693  -25.1979  -49.2417 H         1 UNK         0.0600 
    203 H203       -2.2491  -24.1093  -49.1230 H         1 UNK         0.0600 
    204 H204       -2.2386  -25.3965  -50.3206 H         1 UNK         0.0600 
    205 H205       -4.3326  -25.6556  -46.4173 H         1 UNK         0.3000 
    206 H206       -6.4888  -25.5264  -46.0668 H         1 UNK         0.0600 
    207 H207       -8.0544  -27.0239  -47.2131 H         1 UNK         0.0600 
    208 H208       -6.9302  -27.2776  -48.5391 H         1 UNK         0.0600 
    209 H209       -6.5487  -27.8796  -46.9260 H         1 UNK         0.0600 
    210 H210       -5.2316  -23.4261  -47.4555 H         1 UNK         0.3000 
    211 H211       -5.6156  -21.4647  -48.3437 H         1 UNK         0.0600 
    212 H212       -8.6119  -21.9994  -48.0175 H         1 UNK         0.0600 
    213 H213       -7.8416  -20.4336  -48.2261 H         1 UNK         0.0600 
    214 H214       -7.5457  -21.3620  -46.7657 H         1 UNK         0.0600 
    215 H215       -4.9986  -23.4585  -50.0980 H         1 UNK         0.3000 
    216 H216       -6.4803  -23.5383  -52.5033 H         1 UNK         0.0600 
    217 H217       -3.4560  -23.7782  -52.0237 H         1 UNK         0.0600 
    218 H218       -4.2834  -24.2550  -53.4998 H         1 UNK         0.0600 
    219 H219       -4.6227  -25.1004  -52.0006 H         1 UNK         0.0600 
    220 H220       -4.1261  -21.2239  -51.3010 H         1 UNK         0.3000 
    221 H221       -3.4030  -19.2340  -51.8861 H         1 UNK         0.0600 
    222 H222       -6.3700  -18.9358  -52.6359 H         1 UNK         0.0600 
    223 H223       -5.6660  -18.7340  -51.0406 H         1 UNK         0.0600 
    224 H224       -5.2775  -17.5878  -52.3108 H         1 UNK         0.0600 
    225 H225       -5.5645  -18.4844  -54.4581 H         1 UNK         0.3000 
    226 H226       -3.5759  -17.8047  -56.3070 H         1 UNK         0.0600 
    227 H227       -5.8633  -16.8609  -56.3264 H         1 UNK         0.0600 
    228 H228       -5.5017  -17.5755  -57.8890 H         1 UNK         0.0600 
    229 H229       -6.5414  -18.4320  -56.7567 H         1 UNK         0.0600 
    230 H230       -5.0845  -20.9674  -55.7898 H         1 UNK         0.3000 
    231 H231       -4.2971  -22.1239  -58.3202 H         1 UNK         0.0600 
    232 H232       -4.9149  -24.2559  -57.2317 H         1 UNK         0.0600 
    233 H233       -6.1502  -23.0453  -56.9204 H         1 UNK         0.0600 
    234 H234       -4.9937  -23.4731  -55.6607 H         1 UNK         0.0600 
    235 H235       -2.5932  -21.4336  -55.3424 H         1 UNK         0.3000 
    236 H236       -0.2819  -23.1694  -56.0701 H         1 UNK         0.0600 
    237 H237       -1.0777  -23.3117  -53.7183 H         1 UNK         0.0600 
    238 H238        0.5262  -22.5978  -53.7995 H         1 UNK         0.0600 
    239 H239       -0.8750  -21.5728  -53.5206 H         1 UNK         0.0600 
    240 H240       -1.2087  -19.7704  -55.3240 H         1 UNK         0.3000 
    241 H241        1.3733  -18.6999  -55.9253 H         1 UNK         0.0600 
    242 H242       -1.3652  -19.3018  -58.1758 H         1 UNK         0.3800 
    243 H243       -0.5589  -18.5206  -59.5073 H         1 UNK         0.3800 
    244 H244        0.2820  -16.4676  -55.6425 H         1 UNK         0.0800 
    245 H245       -1.2868  -17.2410  -55.5881 H         1 UNK         0.0800 
    246 H246       -1.8968  -16.1395  -53.3486 H         1 UNK         0.0800 
    247 H247       -0.3758  -15.2842  -53.1929 H         1 UNK         0.0800 
@<TRIPOS>BOND
     1    1    2 1    
     2    1  127 1    
     3    1  128 1    
     4    1  129 1    
     5    2    3 2    
     6    2    4 am   BACKBONE|DICT|INTERRES
     7    4    5 1    
     8    4  130 1    
     9    5    6 1    
    10    5   65 1    
    11    5  131 1    
    12    6    7 1    
    13    6  132 1    
    14    6  133 1    
    15    7    8 1    
    16    8    9 1    
    17    8  134 1    
    18    8  135 1    
    19    9   10 ar   
    20    9   14 ar   
    21   10   11 ar   
    22   10  136 1    
    23   11   12 ar   
    24   11  126 1    
    25   12   13 ar   
    26   12  137 1    
    27   13   14 ar   
    28   13   15 1    
    29   14  138 1    
    30   15   16 1    
    31   15  139 1    
    32   15  140 1    
    33   16   17 1    
    34   17   18 1    
    35   17  141 1    
    36   17  142 1    
    37   18   19 1    
    38   18   67 1    
    39   18  143 1    
    40   19   20 am   BACKBONE|DICT|INTERRES
    41   19  144 1    
    42   20   21 2    
    43   20   22 1    
    44   22   23 1    
    45   22   24 1    
    46   22  145 1    
    47   23  146 1    
    48   23  147 1    
    49   23  148 1    
    50   24   25 am   BACKBONE|DICT|INTERRES
    51   24  149 1    
    52   25   26 2    
    53   25   27 1    
    54   27   28 1    
    55   27   29 1    
    56   27  150 1    
    57   28  151 1    
    58   28  152 1    
    59   28  153 1    
    60   29   30 am   BACKBONE|DICT|INTERRES
    61   29  154 1    
    62   30   31 2    
    63   30   32 1    
    64   32   33 1    
    65   32   34 1    
    66   32  155 1    
    67   33  156 1    
    68   33  157 1    
    69   33  158 1    
    70   34   35 am   BACKBONE|DICT|INTERRES
    71   34  159 1    
    72   35   36 2    
    73   35   37 1    
    74   37   38 1    
    75   37   39 1    
    76   37  160 1    
    77   38  161 1    
    78   38  162 1    
    79   38  163 1    
    80   39   40 am   BACKBONE|DICT|INTERRES
    81   39  164 1    
    82   40   41 2    
    83   40   42 1    
    84   42   43 1    
    85   42   44 1    
    86   42  165 1    
    87   43  166 1    
    88   43  167 1    
    89   43  168 1    
    90   44   45 am   BACKBONE|DICT|INTERRES
    91   44  169 1    
    92   45   46 2    
    93   45   47 1    
    94   47   48 1    
    95   47   49 1    
    96   47  170 1    
    97   48  171 1    
    98   48  172 1    
    99   48  173 1    
   100   49   50 am   BACKBONE|DICT|INTERRES
   101   49  174 1    
   102   50   51 2    
   103   50   52 1    
   104   52   53 1    
   105   52   54 1    
   106   52  175 1    
   107   53  176 1    
   108   53  177 1    
   109   53  178 1    
   110   54   55 am   BACKBONE|DICT|INTERRES
   111   54  179 1    
   112   55   56 2    
   113   55   57 1    
   114   57   58 1    
   115   57   59 1    
   116   57  180 1    
   117   58  181 1    
   118   58  182 1    
   119   58  183 1    
   120   59   60 am   BACKBONE|DICT|INTERRES
   121   59  184 1    
   122   60   61 2    
   123   60   62 1    
   124   62   63 1    
   125   62   64 1    
   126   62  185 1    
   127   63  186 1    
   128   63  187 1    
   129   63  188 1    
   130   64   65 am   BACKBONE|DICT|INTERRES
   131   64  189 1    
   132   65   66 2    
   133   67   68 2    
   134   67   69 am   BACKBONE|DICT|INTERRES
   135   69   70 1    
   136   69  190 1    
   137   70   71 1    
   138   70   72 1    
   139   70  191 1    
   140   71  192 1    
   141   71  193 1    
   142   71  194 1    
   143   72   73 2    
   144   72   74 am   BACKBONE|DICT|INTERRES
   145   74   75 1    
   146   74  195 1    
   147   75   76 1    
   148   75   77 1    
   149   75  196 1    
   150   76  197 1    
   151   76  198 1    
   152   76  199 1    
   153   77   78 2    
   154   77   79 am   BACKBONE|DICT|INTERRES
   155   79   80 1    
   156   79  200 1    
   157   80   81 1    
   158   80   82 1    
   159   80  201 1    
   160   81  202 1    
   161   81  203 1    
   162   81  204 1    
   163   82   83 2    
   164   82   84 am   BACKBONE|DICT|INTERRES
   165   84   85 1    
   166   84  205 1    
   167   85   86 1    
   168   85   87 1    
   169   85  206 1    
   170   86  207 1    
   171   86  208 1    
   172   86  209 1    
   173   87   88 2    
   174   87   89 am   BACKBONE|DICT|INTERRES
   175   89   90 1    
   176   89  210 1    
   177   90   91 1    
   178   90   92 1    
   179   90  211 1    
   180   91  212 1    
   181   91  213 1    
   182   91  214 1    
   183   92   93 2    
   184   92   94 am   BACKBONE|DICT|INTERRES
   185   94   95 1    
   186   94  215 1    
   187   95   96 1    
   188   95   97 1    
   189   95  216 1    
   190   96  217 1    
   191   96  218 1    
   192   96  219 1    
   193   97   98 2    
   194   97   99 am   BACKBONE|DICT|INTERRES
   195   99  100 1    
   196   99  220 1    
   197  100  101 1    
   198  100  102 1    
   199  100  221 1    
   200  101  222 1    
   201  101  223 1    
   202  101  224 1    
   203  102  103 2    
   204  102  104 am   BACKBONE|DICT|INTERRES
   205  104  105 1    
   206  104  225 1    
   207  105  106 1    
   208  105  107 1    
   209  105  226 1    
   210  106  227 1    
   211  106  228 1    
   212  106  229 1    
   213  107  108 2    
   214  107  109 am   BACKBONE|DICT|INTERRES
   215  109  110 1    
   216  109  230 1    
   217  110  111 1    
   218  110  112 1    
   219  110  231 1    
   220  111  232 1    
   221  111  233 1    
   222  111  234 1    
   223  112  113 2    
   224  112  114 am   BACKBONE|DICT|INTERRES
   225  114  115 1    
   226  114  235 1    
   227  115  116 1    
   228  115  117 1    
   229  115  236 1    
   230  116  237 1    
   231  116  238 1    
   232  116  239 1    
   233  117  118 2    
   234  117  119 am   BACKBONE|DICT|INTERRES
   235  119  120 1    
   236  119  240 1    
   237  120  121 1    
   238  120  124 1    
   239  120  241 1    
   240  121  122 am   BACKBONE|DICT|INTERRES
   241  121  123 2    
   242  122  242 1    
   243  122  243 1    
   244  124  125 1    
   245  124  244 1    
   246  124  245 1    
   247  125  126 1    
   248  126  246 1    
   249  126  247 1    
@<TRIPOS>SUBSTRUCTURE
     1 UNK         1 GROUP             0       ****    0 ROOT    
