@<TRIPOS>MOLECULE
3R540
247   249    1
SMALL
USER_CHARGES


@<TRIPOS>ATOM
      1 CA         -2.7277   -7.9797  -46.8373 C.3       0 UNK        -0.1800 
      2 C          -2.0937   -9.3451  -46.6126 C.2       0 UNK         0.5000 
      3 O          -1.5643   -9.6019  -45.5318 O.2       0 UNK        -0.5000 
      4 N          -2.1412  -10.2155  -47.6319 N.am      1 UNK        -0.5000 
      5 CA         -1.6005  -11.5848  -47.6308 C.3       1 UNK         0.1400 
      6 C6         -2.2735  -12.4904  -46.5608 C.3       23 UNK        -0.0398 
      7 S7         -2.3902  -14.2389  -47.0716 S.3       23 UNK        -0.2404 
      8 C8         -3.9570  -14.7294  -46.2814 C.3       23 UNK        -0.0205 
      9 C9         -4.2320  -16.2230  -46.4097 C.ar      23 UNK        -0.0193 
     10 C10        -4.2909  -16.8233  -47.6702 C.ar      23 UNK        -0.1150 
     11 C11        -4.5679  -18.1862  -47.7984 C.ar      23 UNK        -0.0193 
     12 C12        -4.7982  -18.9544  -46.6531 C.ar      23 UNK        -0.1150 
     13 C13        -4.7598  -18.3667  -45.3859 C.ar      23 UNK        -0.0193 
     14 C14        -4.4707  -17.0014  -45.2720 C.ar      23 UNK        -0.1150 
     15 C15        -5.0836  -19.1878  -44.1435 C.3       23 UNK        -0.0205 
     16 S16        -3.6594  -19.3137  -43.0176 S.3       23 UNK        -0.2404 
     17 C17        -3.1534  -21.0667  -43.0893 C.3       23 UNK        -0.0398 
     18 CA         -2.9111  -21.6949  -44.4883 C.3       11 UNK         0.1400 
     19 N          -1.9837  -20.9401  -45.3378 N.am      11 UNK        -0.5000 
     20 C          -1.7260  -21.2262  -46.6243 C.2       10 UNK         0.5000 
     21 O          -2.3086  -22.1086  -47.2590 O.2       10 UNK        -0.5000 
     22 CA         -0.5905  -20.4414  -47.3081 C.3       10 UNK         0.1400 
     23 CB         -1.0892  -19.0967  -47.8545 C.3       10 UNK        -0.1800 
     24 N           0.5599  -20.2300  -46.4278 N.am      10 UNK        -0.5000 
     25 C           1.3501  -21.2128  -45.9730 C.2       9 UNK         0.5000 
     26 O           1.2084  -22.3949  -46.2816 O.2       9 UNK        -0.5000 
     27 CA          2.4596  -20.8267  -44.9772 C.3       9 UNK         0.1400 
     28 CB          3.6905  -20.2764  -45.7124 C.3       9 UNK        -0.1800 
     29 N           2.0111  -19.8648  -43.9713 N.am      9 UNK        -0.5000 
     30 C           1.0524  -20.1085  -43.0661 C.2       8 UNK         0.5000 
     31 O           0.4847  -21.1941  -42.9441 O.2       8 UNK        -0.5000 
     32 CA          0.6088  -18.9257  -42.1864 C.3       8 UNK         0.1400 
     33 CB          1.5705  -18.7347  -41.0047 C.3       8 UNK        -0.1800 
     34 N           0.4794  -17.6696  -42.9279 N.am      8 UNK        -0.5000 
     35 C          -0.3171  -17.4952  -43.9935 C.2       7 UNK         0.5000 
     36 O          -1.0145  -18.3819  -44.4777 O.2       7 UNK        -0.5000 
     37 CA         -0.2736  -16.1234  -44.6797 C.3       7 UNK         0.1400 
     38 CB         -0.9402  -15.0500  -43.8056 C.3       7 UNK        -0.1800 
     39 N           1.0926  -15.7253  -45.0068 N.am      7 UNK        -0.5000 
     40 C           1.9139  -16.4022  -45.8220 C.2       6 UNK         0.5000 
     41 O           1.5855  -17.4067  -46.4534 O.2       6 UNK        -0.5000 
     42 CA          3.3706  -15.9132  -45.8880 C.3       6 UNK         0.1400 
     43 CB          3.5207  -14.7319  -46.8584 C.3       6 UNK        -0.1800 
     44 N           3.8793  -15.5388  -44.5678 N.am      6 UNK        -0.5000 
     45 C           4.1022  -16.4047  -43.5683 C.2       5 UNK         0.5000 
     46 O           3.9417  -17.6211  -43.6666 O.2       5 UNK        -0.5000 
     47 CA          4.5466  -15.8035  -42.2226 C.3       5 UNK         0.1400 
     48 CB          6.0613  -15.5486  -42.2162 C.3       5 UNK        -0.1800 
     49 N           3.8435  -14.5591  -41.9079 N.am      5 UNK        -0.5000 
     50 C           2.5392  -14.4840  -41.6071 C.2       4 UNK         0.5000 
     51 O           1.8009  -15.4646  -41.5194 O.2       4 UNK        -0.5000 
     52 CA          1.9539  -13.0702  -41.4212 C.3       4 UNK         0.1400 
     53 CB          2.1531  -12.5872  -39.9770 C.3       4 UNK        -0.1800 
     54 N           2.5201  -12.0846  -42.3492 N.am      4 UNK        -0.5000 
     55 C           2.4017  -12.1548  -43.6812 C.2       3 UNK         0.5000 
     56 O           1.8030  -13.0619  -44.2606 O.2       3 UNK        -0.5000 
     57 CA          3.1194  -11.0748  -44.4995 C.3       3 UNK         0.1400 
     58 CB          4.6292  -11.3771  -44.5747 C.3       3 UNK        -0.1800 
     59 N           2.5477  -11.0402  -45.8420 N.am      3 UNK        -0.5000 
     60 C           2.7036  -10.0657  -46.7418 C.2       2 UNK         0.5000 
     61 O           3.3500   -9.0394  -46.5263 O.2       2 UNK        -0.5000 
     62 CA          2.0257  -10.2503  -48.1144 C.3       2 UNK         0.1400 
     63 CB          2.7731  -11.2848  -48.9789 C.3       2 UNK        -0.1800 
     64 N           0.5854  -10.5307  -48.0489 N.am      2 UNK        -0.5000 
     65 C          -0.0498  -11.6186  -47.5851 C.2       1 UNK         0.5000 
     66 O           0.5369  -12.6074  -47.1467 O.2       1 UNK        -0.5000 
     67 C          -2.4426  -23.1560  -44.3153 C.2       11 UNK         0.5000 
     68 O          -3.2338  -24.0757  -44.5292 O.2       11 UNK        -0.5000 
     69 N          -1.1597  -23.3412  -43.9629 N.am      12 UNK        -0.5000 
     70 CA         -0.5132  -24.6432  -43.7620 C.3       12 UNK         0.1400 
     71 CB          0.9015  -24.4327  -43.2028 C.3       12 UNK        -0.1800 
     72 C          -0.4673  -25.5112  -45.0332 C.2       12 UNK         0.5000 
     73 O          -0.5438  -26.7359  -44.9366 O.2       12 UNK        -0.5000 
     74 N          -0.4059  -24.8608  -46.2015 N.am      13 UNK        -0.5000 
     75 CA         -0.5175  -25.4628  -47.5302 C.3       13 UNK         0.1400 
     76 CB          0.1498  -24.5259  -48.5520 C.3       13 UNK        -0.1800 
     77 C          -1.9692  -25.8069  -47.9365 C.2       13 UNK         0.5000 
     78 O          -2.2160  -26.0337  -49.1204 O.2       13 UNK        -0.5000 
     79 N          -2.9031  -25.8318  -46.9726 N.am      14 UNK        -0.5000 
     80 CA         -4.3242  -26.1650  -47.1086 C.3       14 UNK         0.1400 
     81 CB         -4.5064  -27.6430  -47.5139 C.3       14 UNK        -0.1800 
     82 C          -5.0613  -25.1783  -48.0324 C.2       14 UNK         0.5000 
     83 O          -5.7650  -25.5935  -48.9545 O.2       14 UNK        -0.5000 
     84 N          -4.8501  -23.8816  -47.7634 N.am      15 UNK        -0.5000 
     85 CA         -5.2986  -22.7322  -48.5539 C.3       15 UNK         0.1400 
     86 CB         -6.8373  -22.6233  -48.5808 C.3       15 UNK        -0.1800 
     87 C          -4.6482  -22.7226  -49.9510 C.2       15 UNK         0.5000 
     88 O          -5.3390  -22.5786  -50.9604 O.2       15 UNK        -0.5000 
     89 N          -3.3164  -22.8874  -49.9558 N.am      16 UNK        -0.5000 
     90 CA         -2.4226  -22.9396  -51.1164 C.3       16 UNK         0.1400 
     91 CB         -2.2472  -21.5291  -51.7108 C.3       16 UNK        -0.1800 
     92 C          -2.8564  -23.9817  -52.1687 C.2       16 UNK         0.5000 
     93 O          -3.0286  -23.6430  -53.3423 O.2       16 UNK        -0.5000 
     94 N          -3.0423  -25.2326  -51.7257 N.am      17 UNK        -0.5000 
     95 CA         -3.4404  -26.3668  -52.5606 C.3       17 UNK         0.1400 
     96 CB         -3.6206  -27.6094  -51.6770 C.3       17 UNK        -0.1800 
     97 C          -2.4319  -26.6430  -53.6917 C.2       17 UNK         0.5000 
     98 O          -1.2258  -26.4737  -53.4957 O.2       17 UNK        -0.5000 
     99 N          -2.9552  -27.0247  -54.8644 N.am      18 UNK        -0.5000 
    100 CA        -2.2735  -27.2432  -56.1501 C.3       18 UNK         0.1400 
    101 CB        -1.1808  -28.3247  -56.0457 C.3       18 UNK        -0.1800 
    102 C         -1.7315  -25.9568  -56.8100 C.2       18 UNK         0.5000 
    103 O         -1.8357  -25.8214  -58.0297 O.2       18 UNK        -0.5000 
    104 N         -1.1909  -25.0289  -56.0100 N.am      19 UNK        -0.5000 
    105 CA        -0.7390  -23.7041  -56.4373 C.3       19 UNK         0.1400 
    106 CB         0.1015  -23.0718  -55.3165 C.3       19 UNK        -0.1800 
    107 C         -1.9082  -22.7782  -56.8219 C.2       19 UNK         0.5000 
    108 O         -1.7817  -22.0054  -57.7720 O.2       19 UNK        -0.5000 
    109 N         -3.0161  -22.8805  -56.0712 N.am      20 UNK        -0.5000 
    110 CA        -4.2656  -22.1218  -56.1980 C.3       20 UNK         0.1400 
    111 CB        -4.9528  -22.4046  -57.5501 C.3       20 UNK        -0.1800 
    112 C         -4.1048  -20.6141  -55.9072 C.2       20 UNK         0.5000 
    113 O         -4.9157  -19.8065  -56.3642 O.2       20 UNK        -0.5000 
    114 N         -3.0766  -20.2557  -55.1277 N.am      21 UNK        -0.5000 
    115 CA        -2.7507  -18.8901  -54.7167 C.3       21 UNK         0.1400 
    116 CB        -1.2315  -18.7987  -54.4831 C.3       21 UNK        -0.1800 
    117 C         -3.5738  -18.4718  -53.4810 C.2       21 UNK         0.5000 
    118 O         -3.0073  -18.1532  -52.4347 O.2       21 UNK        -0.5000 
    119 N         -4.9022  -18.5150  -53.6134 N.am      22 UNK        -0.5000 
    120 CA        -5.8761  -18.2084  -52.5609 C.3       22 UNK         0.1400 
    121 C         -7.2407  -17.7684  -53.1598 C.2       22 UNK         0.5000 
    122 N         -8.1849  -17.3534  -52.3274 N.am      22 UNK        -0.7600 
    123 O         -7.4583  -17.7975  -54.3697 O.2       22 UNK        -0.5000 
    124 C124       -6.0070  -19.3751  -51.5401 C.3       23 UNK        -0.0398 
    125 S125       -6.3151  -18.7929  -49.8407 S.3       23 UNK        -0.2404 
    126 C126       -4.6233  -18.8169  -49.1782 C.3       23 UNK        -0.0205 
    127 H127       -3.1552   -7.8895  -47.8362 H         1 UNK         0.0600 
    128 H128       -1.9813   -7.1948  -46.7146 H         1 UNK         0.0600 
    129 H129       -3.5229   -7.8117  -46.1110 H         1 UNK         0.0600 
    130 H130       -2.5936   -9.9347  -48.4915 H         1 UNK         0.3000 
    131 H131       -1.8650  -11.9798  -48.6129 H         1 UNK         0.0600 
    132 H132       -3.2889  -12.1384  -46.3742 H         1 UNK         0.0800 
    133 H133       -1.7589  -12.4178  -45.6021 H         1 UNK         0.0800 
    134 H134       -3.9280  -14.4363  -45.2308 H         1 UNK         0.0800 
    135 H135       -4.7798  -14.1777  -46.7380 H         1 UNK         0.0800 
    136 H136       -4.1214  -16.2255  -48.5549 H         1 UNK         0.1150 
    137 H137       -5.0275  -20.0046  -46.7477 H         1 UNK         0.1150 
    138 H138       -4.4448  -16.5457  -44.2922 H         1 UNK         0.1150 
    139 H139       -5.8984  -18.6969  -43.6098 H         1 UNK         0.0800 
    140 H140       -5.4565  -20.1780  -44.4053 H         1 UNK         0.0800 
    141 H141       -3.9138  -21.6400  -42.5558 H         1 UNK         0.0800 
    142 H142       -2.2486  -21.1439  -42.4838 H         1 UNK         0.0800 
    143 H143       -3.8655  -21.7289  -45.0155 H         1 UNK         0.0600 
    144 H144       -1.5204  -20.1383  -44.9140 H         1 UNK         0.3000 
    145 H145       -0.2470  -21.0348  -48.1578 H         1 UNK         0.0600 
    146 H146       -1.5214  -18.4719  -47.0723 H         1 UNK         0.0600 
    147 H147       -0.2811  -18.5346  -48.3225 H         1 UNK         0.0600 
    148 H148       -1.8550  -19.2516  -48.6134 H         1 UNK         0.0600 
    149 H149        0.7443  -19.2739  -46.1410 H         1 UNK         0.3000 
    150 H150        2.7616  -21.7350  -44.4522 H         1 UNK         0.0600 
    151 H151        4.0533  -20.9893  -46.4538 H         1 UNK         0.0600 
    152 H152        4.5092  -20.0830  -45.0190 H         1 UNK         0.0600 
    153 H153        3.4674  -19.3453  -46.2332 H         1 UNK         0.0600 
    154 H154        2.4579  -18.9533  -43.9802 H         1 UNK         0.3000 
    155 H155       -0.3779  -19.1681  -41.7864 H         1 UNK         0.0600 
    156 H156        1.6724  -19.6564  -40.4303 H         1 UNK         0.0600 
    157 H157        1.2085  -17.9651  -40.3228 H         1 UNK         0.0600 
    158 H158        2.5663  -18.4434  -41.3397 H         1 UNK         0.0600 
    159 H159        1.0180  -16.8806  -42.5810 H         1 UNK         0.3000 
    160 H160       -0.8271  -16.2028  -45.6165 H         1 UNK         0.0600 
    161 H161       -0.8814  -14.0699  -44.2755 H         1 UNK         0.0600 
    162 H162       -0.4728  -14.9719  -42.8247 H         1 UNK         0.0600 
    163 H163       -1.9949  -15.2789  -43.6503 H         1 UNK         0.0600 
    164 H164        1.4259  -14.8600  -44.5894 H         1 UNK         0.3000 
    165 H165        3.9810  -16.7372  -46.2635 H         1 UNK         0.0600 
    166 H166        2.9436  -13.8670  -46.5340 H         1 UNK         0.0600 
    167 H167        4.5623  -14.4248  -46.9514 H         1 UNK         0.0600 
    168 H168        3.1692  -15.0007  -47.8552 H         1 UNK         0.0600 
    169 H169        3.9845  -14.5530  -44.3857 H         1 UNK         0.3000 
    170 H170        4.3202  -16.5316  -41.4407 H         1 UNK         0.0600 
    171 H171        6.3502  -14.8072  -42.9622 H         1 UNK         0.0600 
    172 H172        6.3968  -15.1932  -41.2418 H         1 UNK         0.0600 
    173 H173        6.6113  -16.4652  -42.4337 H         1 UNK         0.0600 
    174 H174        4.3784  -13.7048  -41.9537 H         1 UNK         0.3000 
    175 H175        0.8808  -13.1315  -41.6144 H         1 UNK         0.0600 
    176 H176        3.2097  -12.4747  -39.7307 H         1 UNK         0.0600 
    177 H177        1.6649  -11.6267  -39.8114 H         1 UNK         0.0600 
    178 H178        1.7238  -13.2951  -39.2665 H         1 UNK         0.0600 
    179 H179        3.0327  -11.3177  -41.9379 H         1 UNK         0.3000 
    180 H180        2.9558  -10.1092  -44.0169 H         1 UNK         0.0600 
    181 H181        4.8238  -12.3216  -45.0842 H         1 UNK         0.0600 
    182 H182        5.0706  -11.4421  -43.5796 H         1 UNK         0.0600 
    183 H183        5.1666  -10.5946  -45.1101 H         1 UNK         0.0600 
    184 H184        1.9448  -11.8292  -46.0736 H         1 UNK         0.3000 
    185 H185        2.1070   -9.2910  -48.6281 H         1 UNK         0.0600 
    186 H186        2.3392  -11.3510  -49.9765 H         1 UNK         0.0600 
    187 H187        3.8206  -11.0054  -49.0977 H         1 UNK         0.0600 
    188 H188        2.7535  -12.2816  -48.5389 H         1 UNK         0.0600 
    189 H189       -0.0037   -9.7700  -48.3569 H         1 UNK         0.3000 
    190 H190       -0.5795  -22.5251  -43.7813 H         1 UNK         0.3000 
    191 H191       -1.0960  -25.1874  -43.0162 H         1 UNK         0.0600 
    192 H192        1.5247  -23.8639  -43.8932 H         1 UNK         0.0600 
    193 H193        0.8751  -23.8955  -42.2547 H         1 UNK         0.0600 
    194 H194        1.3975  -25.3871  -43.0216 H         1 UNK         0.0600 
    195 H195       -0.2708  -23.8558  -46.1790 H         1 UNK         0.3000 
    196 H196        0.0369  -26.4032  -47.5301 H         1 UNK         0.0600 
    197 H197        1.1943  -24.3478  -48.2960 H         1 UNK         0.0600 
    198 H198       -0.3511  -23.5591  -48.5933 H         1 UNK         0.0600 
    199 H199        0.1355  -24.9527  -49.5556 H         1 UNK         0.0600 
    200 H200       -2.6193  -25.5596  -46.0400 H         1 UNK         0.3000 
    201 H201       -4.7641  -26.0418  -46.1179 H         1 UNK         0.0600 
    202 H202       -5.5617  -27.9179  -47.5221 H         1 UNK         0.0600 
    203 H203       -4.0039  -28.3073  -46.8110 H         1 UNK         0.0600 
    204 H204       -4.1086  -27.8462  -48.5079 H         1 UNK         0.0600 
    205 H205       -4.2087  -23.6626  -47.0118 H         1 UNK         0.3000 
    206 H206       -4.9226  -21.8503  -48.0384 H         1 UNK         0.0600 
    207 H207       -7.2497  -22.6177  -47.5720 H         1 UNK         0.0600 
    208 H208       -7.2973  -23.4458  -49.1286 H         1 UNK         0.0600 
    209 H209       -7.1509  -21.6977  -49.0645 H         1 UNK         0.0600 
    210 H210       -2.8643  -22.9633  -49.0508 H         1 UNK         0.3000 
    211 H211       -1.4498  -23.2637  -50.7472 H         1 UNK         0.0600 
    212 H212       -1.9410  -20.8104  -50.9504 H         1 UNK         0.0600 
    213 H213       -1.4820  -21.5280  -52.4869 H         1 UNK         0.0600 
    214 H214       -3.1713  -21.1680  -52.1607 H         1 UNK         0.0600 
    215 H215       -2.8381  -25.4468  -50.7515 H         1 UNK         0.3000 
    216 H216       -4.4056  -26.1170  -53.0056 H         1 UNK         0.0600 
    217 H217       -3.9462  -28.4675  -52.2660 H         1 UNK         0.0600 
    218 H218       -2.6905  -27.8851  -51.1783 H         1 UNK         0.0600 
    219 H219       -4.3746  -27.4365  -50.9088 H         1 UNK         0.0600 
    220 H220       -3.9610  -27.1129  -54.9130 H         1 UNK         0.3000 
    221 H221       -3.0431  -27.6294  -56.8204 H         1 UNK         0.0600 
    222 H222       -0.3382  -28.0007  -55.4346 H         1 UNK         0.0600 
    223 H223       -1.5756  -29.2445  -55.6143 H         1 UNK         0.0600 
    224 H224       -0.7866  -28.5713  -57.0323 H         1 UNK         0.0600 
    225 H225       -1.1210  -25.2484  -55.0213 H         1 UNK         0.3000 
    226 H226       -0.1031  -23.8248  -57.3168 H         1 UNK         0.0600 
    227 H227        0.9806  -23.6773  -55.0954 H         1 UNK         0.0600 
    228 H228        0.4535  -22.0798  -55.6028 H         1 UNK         0.0600 
    229 H229       -0.4703  -22.9647  -54.3942 H         1 UNK         0.0600 
    230 H230       -2.9736  -23.4788  -55.2497 H         1 UNK         0.3000 
    231 H231       -4.9212  -22.5034  -55.4139 H         1 UNK         0.0600 
    232 H232       -5.9562  -21.9783  -57.5756 H         1 UNK         0.0600 
    233 H233       -5.0523  -23.4759  -57.7249 H         1 UNK         0.0600 
    234 H234       -4.3970  -21.9779  -58.3853 H         1 UNK         0.0600 
    235 H235       -2.4900  -20.9898  -54.7599 H         1 UNK         0.3000 
    236 H236       -3.0028  -18.2003  -55.5248 H         1 UNK         0.0600 
    237 H237       -0.6782  -19.0703  -55.3824 H         1 UNK         0.0600 
    238 H238       -0.9382  -17.7825  -54.2171 H         1 UNK         0.0600 
    239 H239       -0.9042  -19.4563  -53.6775 H         1 UNK         0.0600 
    240 H240       -5.3020  -18.7569  -54.5146 H         1 UNK         0.3000 
    241 H241       -5.4919  -17.3254  -52.0461 H         1 UNK         0.0600 
    242 H242       -9.0770  -17.0634  -52.6971 H         1 UNK         0.3800 
    243 H243       -8.0302  -17.3413  -51.3301 H         1 UNK         0.3800 
    244 H244       -6.7959  -20.0718  -51.8290 H         1 UNK         0.0800 
    245 H245       -5.0966  -19.9728  -51.5223 H         1 UNK         0.0800 
    246 H246       -3.9612  -18.2782  -49.8582 H         1 UNK         0.0800 
    247 H247       -4.2525  -19.8408  -49.1400 H         1 UNK         0.0800 
@<TRIPOS>BOND
     1    1    2 1    
     2    1  127 1    
     3    1  128 1    
     4    1  129 1    
     5    2    3 2    
     6    2    4 am   BACKBONE|DICT|INTERRES
     7    4    5 1    
     8    4  130 1    
     9    5    6 1    
    10    5   65 1    
    11    5  131 1    
    12    6    7 1    
    13    6  132 1    
    14    6  133 1    
    15    7    8 1    
    16    8    9 1    
    17    8  134 1    
    18    8  135 1    
    19    9   10 ar   
    20    9   14 ar   
    21   10   11 ar   
    22   10  136 1    
    23   11   12 ar   
    24   11  126 1    
    25   12   13 ar   
    26   12  137 1    
    27   13   14 ar   
    28   13   15 1    
    29   14  138 1    
    30   15   16 1    
    31   15  139 1    
    32   15  140 1    
    33   16   17 1    
    34   17   18 1    
    35   17  141 1    
    36   17  142 1    
    37   18   19 1    
    38   18   67 1    
    39   18  143 1    
    40   19   20 am   BACKBONE|DICT|INTERRES
    41   19  144 1    
    42   20   21 2    
    43   20   22 1    
    44   22   23 1    
    45   22   24 1    
    46   22  145 1    
    47   23  146 1    
    48   23  147 1    
    49   23  148 1    
    50   24   25 am   BACKBONE|DICT|INTERRES
    51   24  149 1    
    52   25   26 2    
    53   25   27 1    
    54   27   28 1    
    55   27   29 1    
    56   27  150 1    
    57   28  151 1    
    58   28  152 1    
    59   28  153 1    
    60   29   30 am   BACKBONE|DICT|INTERRES
    61   29  154 1    
    62   30   31 2    
    63   30   32 1    
    64   32   33 1    
    65   32   34 1    
    66   32  155 1    
    67   33  156 1    
    68   33  157 1    
    69   33  158 1    
    70   34   35 am   BACKBONE|DICT|INTERRES
    71   34  159 1    
    72   35   36 2    
    73   35   37 1    
    74   37   38 1    
    75   37   39 1    
    76   37  160 1    
    77   38  161 1    
    78   38  162 1    
    79   38  163 1    
    80   39   40 am   BACKBONE|DICT|INTERRES
    81   39  164 1    
    82   40   41 2    
    83   40   42 1    
    84   42   43 1    
    85   42   44 1    
    86   42  165 1    
    87   43  166 1    
    88   43  167 1    
    89   43  168 1    
    90   44   45 am   BACKBONE|DICT|INTERRES
    91   44  169 1    
    92   45   46 2    
    93   45   47 1    
    94   47   48 1    
    95   47   49 1    
    96   47  170 1    
    97   48  171 1    
    98   48  172 1    
    99   48  173 1    
   100   49   50 am   BACKBONE|DICT|INTERRES
   101   49  174 1    
   102   50   51 2    
   103   50   52 1    
   104   52   53 1    
   105   52   54 1    
   106   52  175 1    
   107   53  176 1    
   108   53  177 1    
   109   53  178 1    
   110   54   55 am   BACKBONE|DICT|INTERRES
   111   54  179 1    
   112   55   56 2    
   113   55   57 1    
   114   57   58 1    
   115   57   59 1    
   116   57  180 1    
   117   58  181 1    
   118   58  182 1    
   119   58  183 1    
   120   59   60 am   BACKBONE|DICT|INTERRES
   121   59  184 1    
   122   60   61 2    
   123   60   62 1    
   124   62   63 1    
   125   62   64 1    
   126   62  185 1    
   127   63  186 1    
   128   63  187 1    
   129   63  188 1    
   130   64   65 am   BACKBONE|DICT|INTERRES
   131   64  189 1    
   132   65   66 2    
   133   67   68 2    
   134   67   69 am   BACKBONE|DICT|INTERRES
   135   69   70 1    
   136   69  190 1    
   137   70   71 1    
   138   70   72 1    
   139   70  191 1    
   140   71  192 1    
   141   71  193 1    
   142   71  194 1    
   143   72   73 2    
   144   72   74 am   BACKBONE|DICT|INTERRES
   145   74   75 1    
   146   74  195 1    
   147   75   76 1    
   148   75   77 1    
   149   75  196 1    
   150   76  197 1    
   151   76  198 1    
   152   76  199 1    
   153   77   78 2    
   154   77   79 am   BACKBONE|DICT|INTERRES
   155   79   80 1    
   156   79  200 1    
   157   80   81 1    
   158   80   82 1    
   159   80  201 1    
   160   81  202 1    
   161   81  203 1    
   162   81  204 1    
   163   82   83 2    
   164   82   84 am   BACKBONE|DICT|INTERRES
   165   84   85 1    
   166   84  205 1    
   167   85   86 1    
   168   85   87 1    
   169   85  206 1    
   170   86  207 1    
   171   86  208 1    
   172   86  209 1    
   173   87   88 2    
   174   87   89 am   BACKBONE|DICT|INTERRES
   175   89   90 1    
   176   89  210 1    
   177   90   91 1    
   178   90   92 1    
   179   90  211 1    
   180   91  212 1    
   181   91  213 1    
   182   91  214 1    
   183   92   93 2    
   184   92   94 am   BACKBONE|DICT|INTERRES
   185   94   95 1    
   186   94  215 1    
   187   95   96 1    
   188   95   97 1    
   189   95  216 1    
   190   96  217 1    
   191   96  218 1    
   192   96  219 1    
   193   97   98 2    
   194   97   99 am   BACKBONE|DICT|INTERRES
   195   99  100 1    
   196   99  220 1    
   197  100  101 1    
   198  100  102 1    
   199  100  221 1    
   200  101  222 1    
   201  101  223 1    
   202  101  224 1    
   203  102  103 2    
   204  102  104 am   BACKBONE|DICT|INTERRES
   205  104  105 1    
   206  104  225 1    
   207  105  106 1    
   208  105  107 1    
   209  105  226 1    
   210  106  227 1    
   211  106  228 1    
   212  106  229 1    
   213  107  108 2    
   214  107  109 am   BACKBONE|DICT|INTERRES
   215  109  110 1    
   216  109  230 1    
   217  110  111 1    
   218  110  112 1    
   219  110  231 1    
   220  111  232 1    
   221  111  233 1    
   222  111  234 1    
   223  112  113 2    
   224  112  114 am   BACKBONE|DICT|INTERRES
   225  114  115 1    
   226  114  235 1    
   227  115  116 1    
   228  115  117 1    
   229  115  236 1    
   230  116  237 1    
   231  116  238 1    
   232  116  239 1    
   233  117  118 2    
   234  117  119 am   BACKBONE|DICT|INTERRES
   235  119  120 1    
   236  119  240 1    
   237  120  121 1    
   238  120  124 1    
   239  120  241 1    
   240  121  122 am   BACKBONE|DICT|INTERRES
   241  121  123 2    
   242  122  242 1    
   243  122  243 1    
   244  124  125 1    
   245  124  244 1    
   246  124  245 1    
   247  125  126 1    
   248  126  246 1    
   249  126  247 1    
@<TRIPOS>SUBSTRUCTURE
     1 UNK         1 GROUP             0       ****    0 ROOT    
