@<TRIPOS>MOLECULE
3R540
247   249    1
SMALL
USER_CHARGES


@<TRIPOS>ATOM
      1 CA          5.0558  -11.7623  -45.3691 C.3       0 UNK        -0.1800 
      2 C           3.7469  -12.2253  -45.9893 C.2       0 UNK         0.5000 
      3 O           2.7012  -12.1414  -45.3463 O.2       0 UNK        -0.5000 
      4 N           3.7904  -12.6935  -47.2436 N.am      1 UNK        -0.5000 
      5 CA          2.6786  -13.2971  -48.0009 C.3       1 UNK         0.1400 
      6 C6          3.1572  -13.8594  -49.3626 C.3       23 UNK        -0.0398 
      7 S7          4.4758  -15.1047  -49.1652 S.3       23 UNK        -0.2404 
      8 C8          4.5878  -15.7895  -50.8443 C.3       23 UNK        -0.0205 
      9 C9          3.5436  -16.8664  -51.0992 C.ar      23 UNK        -0.0193 
     10 C10         2.3814  -16.5725  -51.8164 C.ar      23 UNK        -0.1150 
     11 C11         1.4573  -17.5788  -52.1149 C.ar      23 UNK        -0.0193 
     12 C12         1.6957  -18.8864  -51.6795 C.ar      23 UNK        -0.1150 
     13 C13         2.8508  -19.1898  -50.9518 C.ar      23 UNK        -0.0193 
     14 C14         3.7674  -18.1747  -50.6621 C.ar      23 UNK        -0.1150 
     15 C15         3.1404  -20.6175  -50.5139 C.3       23 UNK        -0.0205 
     16 S16         2.5444  -20.9443  -48.8270 S.3       23 UNK        -0.2404 
     17 C17         0.7796  -21.2901  -49.1255 C.3       23 UNK        -0.0398 
     18 CA          0.1818  -22.2373  -48.0581 C.3       11 UNK         0.1400 
     19 N           0.2746  -21.7067  -46.6932 N.am      11 UNK        -0.5000 
     20 C          -0.0417  -22.3942  -45.5858 C.2       10 UNK         0.5000 
     21 O          -0.3725  -23.5789  -45.5875 O.2       10 UNK        -0.5000 
     22 CA         -0.0511  -21.6167  -44.2602 C.3       10 UNK         0.1400 
     23 CB          1.3422  -21.6101  -43.6150 C.3       10 UNK        -0.1800 
     24 N          -0.5361  -20.2496  -44.4477 N.am      10 UNK        -0.5000 
     25 C          -1.8197  -19.9398  -44.6819 C.2       9 UNK         0.5000 
     26 O          -2.7266  -20.7724  -44.6965 O.2       9 UNK        -0.5000 
     27 CA         -2.1417  -18.4678  -45.0067 C.3       9 UNK         0.1400 
     28 CB         -2.3668  -17.6615  -43.7237 C.3       9 UNK        -0.1800 
     29 N          -1.0986  -17.8203  -45.8019 N.am      9 UNK        -0.5000 
     30 C          -0.8080  -18.1529  -47.0664 C.2       8 UNK         0.5000 
     31 O          -1.4301  -19.0025  -47.7024 O.2       8 UNK        -0.5000 
     32 CA          0.4014  -17.4550  -47.7170 C.3       8 UNK         0.1400 
     33 CB         -0.0545  -16.1911  -48.4549 C.3       8 UNK        -0.1800 
     34 N           1.4796  -17.1031  -46.7873 N.am      8 UNK        -0.5000 
     35 C           2.1297  -17.9547  -45.9823 C.2       7 UNK         0.5000 
     36 O           1.8297  -19.1440  -45.8787 O.2       7 UNK        -0.5000 
     37 CA          3.2975  -17.3961  -45.1477 C.3       7 UNK         0.1400 
     38 CB          3.5862  -15.9015  -45.3806 C.3       7 UNK        -0.1800 
     39 N           3.0318  -17.5995  -43.7264 N.am      7 UNK        -0.5000 
     40 C           3.5570  -18.5818  -42.9812 C.2       6 UNK         0.5000 
     41 O           4.3140  -19.4450  -43.4270 O.2       6 UNK        -0.5000 
     42 CA          3.2233  -18.5954  -41.4752 C.3       6 UNK         0.1400 
     43 CB          4.4918  -18.3495  -40.6414 C.3       6 UNK        -0.1800 
     44 N           2.2246  -17.5970  -41.0921 N.am      6 UNK        -0.5000 
     45 C           0.8997  -17.7838  -41.1269 C.2       5 UNK         0.5000 
     46 O           0.3628  -18.8281  -41.4922 O.2       5 UNK        -0.5000 
     47 CA          0.0278  -16.5933  -40.6846 C.3       5 UNK         0.1400 
     48 CB         -0.2637  -16.6793  -39.1787 C.3       5 UNK        -0.1800 
     49 N           0.6132  -15.2836  -40.9834 N.am      5 UNK        -0.5000 
     50 C           0.8834  -14.8087  -42.2070 C.2       4 UNK         0.5000 
     51 O           0.7428  -15.4560  -43.2485 O.2       4 UNK        -0.5000 
     52 CA          1.4571  -13.3808  -42.2523 C.3       4 UNK         0.1400 
     53 CB          2.9847  -13.4154  -42.4074 C.3       4 UNK        -0.1800 
     54 N           0.8643  -12.5541  -43.3081 N.am      4 UNK        -0.5000 
     55 C          -0.4034  -12.1178  -43.2781 C.2       3 UNK         0.5000 
     56 O          -1.2049  -12.4648  -42.4081 O.2       3 UNK        -0.5000 
     57 CA         -0.8780  -11.0866  -44.3210 C.3       3 UNK         0.1400 
     58 CB         -1.0273   -9.7062  -43.6446 C.3       3 UNK        -0.1800 
     59 N          -0.0515  -10.9564  -45.5299 N.am      3 UNK        -0.5000 
     60 C          -0.5120  -10.3869  -46.6591 C.2       2 UNK         0.5000 
     61 O          -1.6827  -10.0319  -46.8085 O.2       2 UNK        -0.5000 
     62 CA          0.4747  -10.1350  -47.8186 C.3       2 UNK         0.1400 
     63 CB          1.0592   -8.7172  -47.7221 C.3       2 UNK        -0.1800 
     64 N           1.5721  -11.0931  -47.8745 N.am      2 UNK        -0.5000 
     65 C           1.4419  -12.3873  -48.1881 C.2       1 UNK         0.5000 
     66 O           0.3885  -12.8788  -48.5917 O.2       1 UNK        -0.5000 
     67 C          -1.2697  -22.6165  -48.4135 C.2       11 UNK         0.5000 
     68 O          -1.4986  -23.7156  -48.9154 O.2       11 UNK        -0.5000 
     69 N          -2.2254  -21.7295  -48.0995 N.am      12 UNK        -0.5000 
     70 CA         -3.6615  -21.9633  -48.2566 C.3       12 UNK         0.1400 
     71 CB         -4.4337  -20.6731  -47.9475 C.3       12 UNK        -0.1800 
     72 C          -4.1718  -23.1328  -47.3962 C.2       12 UNK         0.5000 
     73 O          -4.9354  -23.9598  -47.8930 O.2       12 UNK        -0.5000 
     74 N          -3.7133  -23.2137  -46.1383 N.am      13 UNK        -0.5000 
     75 CA         -4.0164  -24.3148  -45.2214 C.3       13 UNK         0.1400 
     76 CB         -3.4842  -23.9908  -43.8180 C.3       13 UNK        -0.1800 
     77 C          -3.4754  -25.6682  -45.7200 C.2       13 UNK         0.5000 
     78 O          -4.2150  -26.6528  -45.7165 O.2       13 UNK        -0.5000 
     79 N          -2.2205  -25.6842  -46.1930 N.am      14 UNK        -0.5000 
     80 CA         -1.5691  -26.8471  -46.8042 C.3       14 UNK         0.1400 
     81 CB         -0.0860  -26.5328  -47.0509 C.3       14 UNK        -0.1800 
     82 C          -2.2515  -27.3067  -48.1075 C.2       14 UNK         0.5000 
     83 O          -2.3046  -28.5068  -48.3769 O.2       14 UNK        -0.5000 
     84 N          -2.8038  -26.3494  -48.8637 N.am      15 UNK        -0.5000 
     85 CA         -3.6102  -26.5671  -50.0650 C.3       15 UNK         0.1400 
     86 CB         -3.5164  -25.3167  -50.9557 C.3       15 UNK        -0.1800 
     87 C          -5.0811  -26.9383  -49.7639 C.2       15 UNK         0.5000 
     88 O          -5.8805  -26.9997  -50.6976 O.2       15 UNK        -0.5000 
     89 N          -5.4211  -27.1783  -48.4877 N.am      16 UNK        -0.5000 
     90 CA         -6.7319  -27.5900  -47.9744 C.3       16 UNK         0.1400 
     91 CB         -7.1313  -28.9778  -48.5194 C.3       16 UNK        -0.1800 
     92 C          -7.8201  -26.5158  -48.1738 C.2       16 UNK         0.5000 
     93 O          -8.9388  -26.8301  -48.5838 O.2       16 UNK        -0.5000 
     94 N          -7.4567  -25.2628  -47.8680 N.am      17 UNK        -0.5000 
     95 CA         -8.2677  -24.0422  -47.9356 C.3       17 UNK         0.1400 
     96 CB         -9.5478  -24.1519  -47.0801 C.3       17 UNK        -0.1800 
     97 C          -8.5384  -23.5501  -49.3717 C.2       17 UNK         0.5000 
     98 O          -9.4176  -22.7094  -49.5715 O.2       17 UNK        -0.5000 
     99 N          -7.7572  -24.0414  -50.3424 N.am      18 UNK        -0.5000 
    100 CA        -7.6877  -23.5011  -51.6988 C.3       18 UNK         0.1400 
    101 CB        -7.1174  -24.5763  -52.6360 C.3       18 UNK        -0.1800 
    102 C         -6.8297  -22.2203  -51.7372 C.2       18 UNK         0.5000 
    103 O         -6.1569  -21.8884  -50.7584 O.2       18 UNK        -0.5000 
    104 N         -6.8586  -21.5256  -52.8814 N.am      19 UNK        -0.5000 
    105 CA        -6.1688  -20.2505  -53.1002 C.3       19 UNK         0.1400 
    106 CB        -6.6508  -19.6456  -54.4284 C.3       19 UNK        -0.1800 
    107 C         -4.6295  -20.3349  -53.0855 C.2       19 UNK         0.5000 
    108 O         -3.9850  -19.3061  -52.8934 O.2       19 UNK        -0.5000 
    109 N         -4.0665  -21.5309  -53.3256 N.am      20 UNK        -0.5000 
    110 CA        -2.6262  -21.8375  -53.3498 C.3       20 UNK         0.1400 
    111 CB        -2.0363  -21.7638  -51.9271 C.3       20 UNK        -0.1800 
    112 C         -1.8278  -20.9892  -54.3666 C.2       20 UNK         0.5000 
    113 O         -0.6599  -20.6764  -54.1326 O.2       20 UNK        -0.5000 
    114 N         -2.4969  -20.6241  -55.4708 N.am      21 UNK        -0.5000 
    115 CA        -2.0441  -19.7462  -56.5557 C.3       21 UNK         0.1400 
    116 CB        -0.7996  -20.3249  -57.2621 C.3       21 UNK        -0.1800 
    117 C         -1.8583  -18.2656  -56.1512 C.2       21 UNK         0.5000 
    118 O         -1.2999  -17.4988  -56.9383 O.2       21 UNK        -0.5000 
    119 N         -2.3383  -17.8673  -54.9647 N.am      22 UNK        -0.5000 
    120 CA        -2.3643  -16.4690  -54.5129 C.3       22 UNK         0.1400 
    121 C         -3.4709  -15.6486  -55.2342 C.2       22 UNK         0.5000 
    122 N         -3.2548  -14.3571  -55.4452 N.am      22 UNK        -0.7600 
    123 O         -4.5378  -16.1582  -55.5712 O.2       22 UNK        -0.5000 
    124 C124       -2.5299  -16.3562  -52.9732 C.3       23 UNK        -0.0398 
    125 S125       -1.2710  -17.1707  -51.9175 S.3       23 UNK        -0.2404 
    126 C126        0.2266  -17.2574  -52.9467 C.3       23 UNK        -0.0205 
    127 H127        4.9773  -10.7190  -45.0639 H         1 UNK         0.0600 
    128 H128        5.8892  -11.8533  -46.0659 H         1 UNK         0.0600 
    129 H129        5.2818  -12.3609  -44.4868 H         1 UNK         0.0600 
    130 H130        4.6832  -12.7239  -47.7156 H         1 UNK         0.3000 
    131 H131        2.3207  -14.1377  -47.4057 H         1 UNK         0.0600 
    132 H132        2.3301  -14.3200  -49.9041 H         1 UNK         0.0800 
    133 H133        3.5297  -13.0549  -49.9990 H         1 UNK         0.0800 
    134 H134        5.5824  -16.2173  -50.9786 H         1 UNK         0.0800 
    135 H135        4.5053  -14.9864  -51.5783 H         1 UNK         0.0800 
    136 H136        2.2081  -15.5638  -52.1642 H         1 UNK         0.1150 
    137 H137        0.9865  -19.6664  -51.9209 H         1 UNK         0.1150 
    138 H138        4.6677  -18.4069  -50.1104 H         1 UNK         0.1150 
    139 H139        2.7075  -21.3312  -51.2162 H         1 UNK         0.0800 
    140 H140        4.2171  -20.7924  -50.5390 H         1 UNK         0.0800 
    141 H141        0.6789  -21.7420  -50.1134 H         1 UNK         0.0800 
    142 H142        0.2383  -20.3458  -49.1703 H         1 UNK         0.0800 
    143 H143        0.7627  -23.1621  -48.0775 H         1 UNK         0.0600 
    144 H144        0.5966  -20.7508  -46.5936 H         1 UNK         0.3000 
    145 H145       -0.7299  -22.1280  -43.5749 H         1 UNK         0.0600 
    146 H146        1.3344  -21.0777  -42.6648 H         1 UNK         0.0600 
    147 H147        1.6789  -22.6276  -43.4132 H         1 UNK         0.0600 
    148 H148        2.0891  -21.1440  -44.2571 H         1 UNK         0.0600 
    149 H149        0.1701  -19.5293  -44.5261 H         1 UNK         0.3000 
    150 H150       -3.0685  -18.4522  -45.5842 H         1 UNK         0.0600 
    151 H151       -3.1242  -18.1263  -43.0912 H         1 UNK         0.0600 
    152 H152       -2.6991  -16.6470  -43.9447 H         1 UNK         0.0600 
    153 H153       -1.4467  -17.5953  -43.1480 H         1 UNK         0.0600 
    154 H154       -0.5368  -17.1181  -45.3413 H         1 UNK         0.3000 
    155 H155        0.8187  -18.1441  -48.4535 H         1 UNK         0.0600 
    156 H156       -0.3477  -15.4029  -47.7608 H         1 UNK         0.0600 
    157 H157        0.7360  -15.8064  -49.0971 H         1 UNK         0.0600 
    158 H158       -0.9137  -16.3965  -49.0934 H         1 UNK         0.0600 
    159 H159        1.7790  -16.1411  -46.7958 H         1 UNK         0.3000 
    160 H160        4.1888  -17.9495  -45.4500 H         1 UNK         0.0600 
    161 H161        2.7212  -15.2743  -45.1628 H         1 UNK         0.0600 
    162 H162        3.8881  -15.7201  -46.4102 H         1 UNK         0.0600 
    163 H163        4.4086  -15.5619  -44.7509 H         1 UNK         0.0600 
    164 H164        2.3658  -16.9660  -43.3028 H         1 UNK         0.3000 
    165 H165        2.8486  -19.5923  -41.2339 H         1 UNK         0.0600 
    166 H166        4.2783  -18.4028  -39.5736 H         1 UNK         0.0600 
    167 H167        5.2543  -19.0997  -40.8549 H         1 UNK         0.0600 
    168 H168        4.9267  -17.3711  -40.8493 H         1 UNK         0.0600 
    169 H169        2.5744  -16.7040  -40.7771 H         1 UNK         0.3000 
    170 H170       -0.9251  -16.6553  -41.2098 H         1 UNK         0.0600 
    171 H171       -0.7266  -17.6339  -38.9246 H         1 UNK         0.0600 
    172 H172        0.6470  -16.5881  -38.5854 H         1 UNK         0.0600 
    173 H173       -0.9509  -15.8937  -38.8637 H         1 UNK         0.0600 
    174 H174        0.7724  -14.6822  -40.1878 H         1 UNK         0.3000 
    175 H175        1.2389  -12.8920  -41.3001 H         1 UNK         0.0600 
    176 H176        3.2847  -13.8906  -43.3392 H         1 UNK         0.0600 
    177 H177        3.4051  -12.4097  -42.3959 H         1 UNK         0.0600 
    178 H178        3.4497  -13.9718  -41.5929 H         1 UNK         0.0600 
    179 H179        1.4886  -12.2975  -44.0688 H         1 UNK         0.3000 
    180 H180       -1.8705  -11.4254  -44.6260 H         1 UNK         0.0600 
    181 H181       -1.6175   -9.7732  -42.7296 H         1 UNK         0.0600 
    182 H182       -1.5324   -8.9899  -44.2921 H         1 UNK         0.0600 
    183 H183       -0.0559   -9.2884  -43.3779 H         1 UNK         0.0600 
    184 H184        0.9140  -11.2646  -45.4804 H         1 UNK         0.3000 
    185 H185       -0.0873  -10.2079  -48.7522 H         1 UNK         0.0600 
    186 H186        1.6509   -8.5870  -46.8151 H         1 UNK         0.0600 
    187 H187        1.6986   -8.4943  -48.5764 H         1 UNK         0.0600 
    188 H188        0.2664   -7.9679  -47.7069 H         1 UNK         0.0600 
    189 H189        2.4687  -10.7787  -47.5338 H         1 UNK         0.3000 
    190 H190       -1.9500  -20.8166  -47.7460 H         1 UNK         0.3000 
    191 H191       -3.8460  -22.2215  -49.3000 H         1 UNK         0.0600 
    192 H192       -4.2778  -20.3429  -46.9206 H         1 UNK         0.0600 
    193 H193       -5.5054  -20.8192  -48.0896 H         1 UNK         0.0600 
    194 H194       -4.1261  -19.8644  -48.6109 H         1 UNK         0.0600 
    195 H195       -3.1290  -22.4663  -45.7792 H         1 UNK         0.3000 
    196 H196       -5.1034  -24.3978  -45.1563 H         1 UNK         0.0600 
    197 H197       -3.7482  -24.7779  -43.1106 H         1 UNK         0.0600 
    198 H198       -3.9068  -23.0593  -43.4410 H         1 UNK         0.0600 
    199 H199       -2.3991  -23.8940  -43.8089 H         1 UNK         0.0600 
    200 H200       -1.6592  -24.8383  -46.1230 H         1 UNK         0.3000 
    201 H201       -1.6283  -27.6728  -46.0924 H         1 UNK         0.0600 
    202 H202        0.4240  -26.2843  -46.1200 H         1 UNK         0.0600 
    203 H203        0.0385  -25.6924  -47.7343 H         1 UNK         0.0600 
    204 H204        0.4291  -27.3902  -47.4857 H         1 UNK         0.0600 
    205 H205       -2.6523  -25.3814  -48.5993 H         1 UNK         0.3000 
    206 H206       -3.1796  -27.4024  -50.6206 H         1 UNK         0.0600 
    207 H207       -2.4790  -25.0275  -51.1239 H         1 UNK         0.0600 
    208 H208       -3.9537  -25.5033  -51.9359 H         1 UNK         0.0600 
    209 H209       -4.0354  -24.4655  -50.5133 H         1 UNK         0.0600 
    210 H210       -4.7077  -27.0550  -47.7791 H         1 UNK         0.3000 
    211 H211       -6.6102  -27.6922  -46.8952 H         1 UNK         0.0600 
    212 H212       -7.3320  -28.9535  -49.5908 H         1 UNK         0.0600 
    213 H213       -8.0334  -29.3440  -48.0280 H         1 UNK         0.0600 
    214 H214       -6.3454  -29.7118  -48.3415 H         1 UNK         0.0600 
    215 H215       -6.4789  -25.0929  -47.6458 H         1 UNK         0.3000 
    216 H216       -7.6502  -23.2661  -47.4813 H         1 UNK         0.0600 
    217 H217      -10.0333  -23.1805  -46.9797 H         1 UNK         0.0600 
    218 H218       -9.3218  -24.5047  -46.0739 H         1 UNK         0.0600 
    219 H219      -10.2764  -24.8321  -47.5211 H         1 UNK         0.0600 
    220 H220       -7.0457  -24.7110  -50.0864 H         1 UNK         0.3000 
    221 H221       -8.6963  -23.2499  -52.0336 H         1 UNK         0.0600 
    222 H222       -6.0807  -24.8057  -52.3966 H         1 UNK         0.0600 
    223 H223       -7.6879  -25.5029  -52.5673 H         1 UNK         0.0600 
    224 H224       -7.1499  -24.2539  -53.6771 H         1 UNK         0.0600 
    225 H225       -7.4283  -21.8624  -53.6443 H         1 UNK         0.3000 
    226 H226       -6.4581  -19.5731  -52.2940 H         1 UNK         0.0600 
    227 H227       -7.7279  -19.4783  -54.4185 H         1 UNK         0.0600 
    228 H228       -6.1767  -18.6805  -54.6151 H         1 UNK         0.0600 
    229 H229       -6.4181  -20.2936  -55.2743 H         1 UNK         0.0600 
    230 H230       -4.6856  -22.3108  -53.4922 H         1 UNK         0.3000 
    231 H231       -2.5383  -22.8711  -53.6870 H         1 UNK         0.0600 
    232 H232       -1.0018  -22.1072  -51.9119 H         1 UNK         0.0600 
    233 H233       -2.5947  -22.4013  -51.2442 H         1 UNK         0.0600 
    234 H234       -2.0525  -20.7478  -51.5303 H         1 UNK         0.0600 
    235 H235       -3.4546  -20.9361  -55.5458 H         1 UNK         0.3000 
    236 H236       -2.8553  -19.7462  -57.2851 H         1 UNK         0.0600 
    237 H237       -0.5797  -19.7761  -58.1785 H         1 UNK         0.0600 
    238 H238        0.0882  -20.2700  -56.6319 H         1 UNK         0.0600 
    239 H239       -0.9517  -21.3677  -57.5401 H         1 UNK         0.0600 
    240 H240       -2.8027  -18.5336  -54.3569 H         1 UNK         0.3000 
    241 H241       -1.4134  -16.0124  -54.7887 H         1 UNK         0.0600 
    242 H242       -3.9700  -13.8106  -55.9000 H         1 UNK         0.3800 
    243 H243       -2.3915  -13.9107  -55.1756 H         1 UNK         0.3800 
    244 H244       -2.5347  -15.3037  -52.6846 H         1 UNK         0.0800 
    245 H245       -3.5057  -16.7412  -52.6736 H         1 UNK         0.0800 
    246 H246        0.3737  -16.3075  -53.4610 H         1 UNK         0.0800 
    247 H247        0.1035  -18.0200  -53.7162 H         1 UNK         0.0800 
@<TRIPOS>BOND
     1    1    2 1    
     2    1  127 1    
     3    1  128 1    
     4    1  129 1    
     5    2    3 2    
     6    2    4 am   BACKBONE|DICT|INTERRES
     7    4    5 1    
     8    4  130 1    
     9    5    6 1    
    10    5   65 1    
    11    5  131 1    
    12    6    7 1    
    13    6  132 1    
    14    6  133 1    
    15    7    8 1    
    16    8    9 1    
    17    8  134 1    
    18    8  135 1    
    19    9   10 ar   
    20    9   14 ar   
    21   10   11 ar   
    22   10  136 1    
    23   11   12 ar   
    24   11  126 1    
    25   12   13 ar   
    26   12  137 1    
    27   13   14 ar   
    28   13   15 1    
    29   14  138 1    
    30   15   16 1    
    31   15  139 1    
    32   15  140 1    
    33   16   17 1    
    34   17   18 1    
    35   17  141 1    
    36   17  142 1    
    37   18   19 1    
    38   18   67 1    
    39   18  143 1    
    40   19   20 am   BACKBONE|DICT|INTERRES
    41   19  144 1    
    42   20   21 2    
    43   20   22 1    
    44   22   23 1    
    45   22   24 1    
    46   22  145 1    
    47   23  146 1    
    48   23  147 1    
    49   23  148 1    
    50   24   25 am   BACKBONE|DICT|INTERRES
    51   24  149 1    
    52   25   26 2    
    53   25   27 1    
    54   27   28 1    
    55   27   29 1    
    56   27  150 1    
    57   28  151 1    
    58   28  152 1    
    59   28  153 1    
    60   29   30 am   BACKBONE|DICT|INTERRES
    61   29  154 1    
    62   30   31 2    
    63   30   32 1    
    64   32   33 1    
    65   32   34 1    
    66   32  155 1    
    67   33  156 1    
    68   33  157 1    
    69   33  158 1    
    70   34   35 am   BACKBONE|DICT|INTERRES
    71   34  159 1    
    72   35   36 2    
    73   35   37 1    
    74   37   38 1    
    75   37   39 1    
    76   37  160 1    
    77   38  161 1    
    78   38  162 1    
    79   38  163 1    
    80   39   40 am   BACKBONE|DICT|INTERRES
    81   39  164 1    
    82   40   41 2    
    83   40   42 1    
    84   42   43 1    
    85   42   44 1    
    86   42  165 1    
    87   43  166 1    
    88   43  167 1    
    89   43  168 1    
    90   44   45 am   BACKBONE|DICT|INTERRES
    91   44  169 1    
    92   45   46 2    
    93   45   47 1    
    94   47   48 1    
    95   47   49 1    
    96   47  170 1    
    97   48  171 1    
    98   48  172 1    
    99   48  173 1    
   100   49   50 am   BACKBONE|DICT|INTERRES
   101   49  174 1    
   102   50   51 2    
   103   50   52 1    
   104   52   53 1    
   105   52   54 1    
   106   52  175 1    
   107   53  176 1    
   108   53  177 1    
   109   53  178 1    
   110   54   55 am   BACKBONE|DICT|INTERRES
   111   54  179 1    
   112   55   56 2    
   113   55   57 1    
   114   57   58 1    
   115   57   59 1    
   116   57  180 1    
   117   58  181 1    
   118   58  182 1    
   119   58  183 1    
   120   59   60 am   BACKBONE|DICT|INTERRES
   121   59  184 1    
   122   60   61 2    
   123   60   62 1    
   124   62   63 1    
   125   62   64 1    
   126   62  185 1    
   127   63  186 1    
   128   63  187 1    
   129   63  188 1    
   130   64   65 am   BACKBONE|DICT|INTERRES
   131   64  189 1    
   132   65   66 2    
   133   67   68 2    
   134   67   69 am   BACKBONE|DICT|INTERRES
   135   69   70 1    
   136   69  190 1    
   137   70   71 1    
   138   70   72 1    
   139   70  191 1    
   140   71  192 1    
   141   71  193 1    
   142   71  194 1    
   143   72   73 2    
   144   72   74 am   BACKBONE|DICT|INTERRES
   145   74   75 1    
   146   74  195 1    
   147   75   76 1    
   148   75   77 1    
   149   75  196 1    
   150   76  197 1    
   151   76  198 1    
   152   76  199 1    
   153   77   78 2    
   154   77   79 am   BACKBONE|DICT|INTERRES
   155   79   80 1    
   156   79  200 1    
   157   80   81 1    
   158   80   82 1    
   159   80  201 1    
   160   81  202 1    
   161   81  203 1    
   162   81  204 1    
   163   82   83 2    
   164   82   84 am   BACKBONE|DICT|INTERRES
   165   84   85 1    
   166   84  205 1    
   167   85   86 1    
   168   85   87 1    
   169   85  206 1    
   170   86  207 1    
   171   86  208 1    
   172   86  209 1    
   173   87   88 2    
   174   87   89 am   BACKBONE|DICT|INTERRES
   175   89   90 1    
   176   89  210 1    
   177   90   91 1    
   178   90   92 1    
   179   90  211 1    
   180   91  212 1    
   181   91  213 1    
   182   91  214 1    
   183   92   93 2    
   184   92   94 am   BACKBONE|DICT|INTERRES
   185   94   95 1    
   186   94  215 1    
   187   95   96 1    
   188   95   97 1    
   189   95  216 1    
   190   96  217 1    
   191   96  218 1    
   192   96  219 1    
   193   97   98 2    
   194   97   99 am   BACKBONE|DICT|INTERRES
   195   99  100 1    
   196   99  220 1    
   197  100  101 1    
   198  100  102 1    
   199  100  221 1    
   200  101  222 1    
   201  101  223 1    
   202  101  224 1    
   203  102  103 2    
   204  102  104 am   BACKBONE|DICT|INTERRES
   205  104  105 1    
   206  104  225 1    
   207  105  106 1    
   208  105  107 1    
   209  105  226 1    
   210  106  227 1    
   211  106  228 1    
   212  106  229 1    
   213  107  108 2    
   214  107  109 am   BACKBONE|DICT|INTERRES
   215  109  110 1    
   216  109  230 1    
   217  110  111 1    
   218  110  112 1    
   219  110  231 1    
   220  111  232 1    
   221  111  233 1    
   222  111  234 1    
   223  112  113 2    
   224  112  114 am   BACKBONE|DICT|INTERRES
   225  114  115 1    
   226  114  235 1    
   227  115  116 1    
   228  115  117 1    
   229  115  236 1    
   230  116  237 1    
   231  116  238 1    
   232  116  239 1    
   233  117  118 2    
   234  117  119 am   BACKBONE|DICT|INTERRES
   235  119  120 1    
   236  119  240 1    
   237  120  121 1    
   238  120  124 1    
   239  120  241 1    
   240  121  122 am   BACKBONE|DICT|INTERRES
   241  121  123 2    
   242  122  242 1    
   243  122  243 1    
   244  124  125 1    
   245  124  244 1    
   246  124  245 1    
   247  125  126 1    
   248  126  246 1    
   249  126  247 1    
@<TRIPOS>SUBSTRUCTURE
     1 UNK         1 GROUP             0       ****    0 ROOT    
