@<TRIPOS>MOLECULE
3R540
247   249    1
SMALL
USER_CHARGES


@<TRIPOS>ATOM
      1 CA          1.0395   -9.5024  -45.7794 C.3       0 UNK        -0.1800 
      2 C           1.1175  -10.2840  -47.0830 C.2       0 UNK         0.5000 
      3 O           1.9772  -10.0021  -47.9177 O.2       0 UNK        -0.5000 
      4 N           0.2251  -11.2665  -47.2598 N.am      1 UNK        -0.5000 
      5 CA          0.1698  -12.1564  -48.4281 C.3       1 UNK         0.1400 
      6 C6         -1.2414  -12.7716  -48.6070 C.3       23 UNK        -0.0398 
      7 S7         -1.7739  -13.8069  -47.1955 S.3       23 UNK        -0.2404 
      8 C8         -3.0333  -14.8973  -47.9402 C.3       23 UNK        -0.0205 
      9 C9         -2.5345  -15.6646  -49.1589 C.ar      23 UNK        -0.0193 
     10 C10        -3.2571  -15.6230  -50.3557 C.ar      23 UNK        -0.1150 
     11 C11        -2.7953  -16.2993  -51.4889 C.ar      23 UNK        -0.0193 
     12 C12        -1.6055  -17.0271  -51.4166 C.ar      23 UNK        -0.1150 
     13 C13        -0.8802  -17.0868  -50.2244 C.ar      23 UNK        -0.0193 
     14 C14        -1.3500  -16.4047  -49.0988 C.ar      23 UNK        -0.1150 
     15 C15         0.4202  -17.8711  -50.1673 C.3       23 UNK        -0.0205 
     16 S16         0.1263  -19.6430  -49.8842 S.3       23 UNK        -0.2404 
     17 C17        -0.2383  -19.6633  -48.0988 C.3       23 UNK        -0.0398 
     18 CA         -1.3262  -20.6809  -47.6838 C.3       11 UNK         0.1400 
     19 N          -1.2387  -20.9506  -46.2449 N.am      11 UNK        -0.5000 
     20 C          -1.8332  -21.9594  -45.5964 C.2       10 UNK         0.5000 
     21 O          -2.5779  -22.7788  -46.1296 O.2       10 UNK        -0.5000 
     22 CA         -1.5868  -22.0421  -44.0804 C.3       10 UNK         0.1400 
     23 CB         -0.1691  -22.5531  -43.7815 C.3       10 UNK        -0.1800 
     24 N          -1.8069  -20.7618  -43.4080 N.am      10 UNK        -0.5000 
     25 C          -2.9935  -20.1405  -43.3406 C.2       9 UNK         0.5000 
     26 O          -4.0335  -20.5992  -43.8129 O.2       9 UNK        -0.5000 
     27 CA         -3.0184  -18.7574  -42.6658 C.3       9 UNK         0.1400 
     28 CB         -3.0149  -18.8950  -41.1360 C.3       9 UNK        -0.1800 
     29 N          -1.9092  -17.9010  -43.0847 N.am      9 UNK        -0.5000 
     30 C          -1.7022  -17.4851  -44.3425 C.2       8 UNK         0.5000 
     31 O          -2.4400  -17.7576  -45.2873 O.2       8 UNK        -0.5000 
     32 CA         -0.4232  -16.6733  -44.5980 C.3       8 UNK         0.1400 
     33 CB         -0.5773  -15.2315  -44.0906 C.3       8 UNK        -0.1800 
     34 N           0.7563  -17.2861  -43.9883 N.am      8 UNK        -0.5000 
     35 C           1.2253  -18.5088  -44.2740 C.2       7 UNK         0.5000 
     36 O           0.7319  -19.2544  -45.1172 O.2       7 UNK        -0.5000 
     37 CA          2.4130  -19.0054  -43.4352 C.3       7 UNK         0.1400 
     38 CB          3.7384  -18.4223  -43.9505 C.3       7 UNK        -0.1800 
     39 N           2.2426  -18.6880  -42.0181 N.am      7 UNK        -0.5000 
     40 C           1.3000  -19.2273  -41.2307 C.2       6 UNK         0.5000 
     41 O           0.5018  -20.0872  -41.6040 O.2       6 UNK        -0.5000 
     42 CA          1.2082  -18.6742  -39.7975 C.3       6 UNK         0.1400 
     43 CB          2.2469  -19.3461  -38.8872 C.3       6 UNK        -0.1800 
     44 N           1.3877  -17.2220  -39.7531 N.am      6 UNK        -0.5000 
     45 C           0.5208  -16.3395  -40.2698 C.2       5 UNK         0.5000 
     46 O          -0.5442  -16.6576  -40.7980 O.2       5 UNK        -0.5000 
     47 CA          0.9382  -14.8575  -40.2295 C.3       5 UNK         0.1400 
     48 CB          0.5467  -14.2226  -38.8869 C.3       5 UNK        -0.1800 
     49 N           2.3711  -14.6550  -40.4656 N.am      5 UNK        -0.5000 
     50 C           3.0033  -14.9595  -41.6062 C.2       4 UNK         0.5000 
     51 O           2.4492  -15.4652  -42.5852 O.2       4 UNK        -0.5000 
     52 CA          4.5135  -14.7029  -41.6406 C.3       4 UNK         0.1400 
     53 CB          5.2773  -15.8572  -40.9680 C.3       4 UNK        -0.1800 
     54 N           4.9432  -14.5780  -43.0292 N.am      4 UNK        -0.5000 
     55 C           5.9707  -13.8362  -43.4560 C.2       3 UNK         0.5000 
     56 O           6.6942  -13.1843  -42.7011 O.2       3 UNK        -0.5000 
     57 CA          6.2642  -13.8175  -44.9714 C.3       3 UNK         0.1400 
     58 CB          7.5270  -14.6389  -45.2779 C.3       3 UNK        -0.1800 
     59 N           5.1756  -14.3050  -45.8250 N.am      3 UNK        -0.5000 
     60 C           4.0111  -13.6767  -46.0266 C.2       2 UNK         0.5000 
     61 O           3.6809  -12.6396  -45.4442 O.2       2 UNK        -0.5000 
     62 CA          3.0644  -14.3229  -47.0520 C.3       2 UNK         0.1400 
     63 CB          2.5589  -15.6910  -46.5661 C.3       2 UNK        -0.1800 
     64 N           1.9298  -13.4335  -47.2665 N.am      2 UNK        -0.5000 
     65 C           1.2817  -13.2353  -48.4204 C.2       1 UNK         0.5000 
     66 O           1.5350  -13.8512  -49.4566 O.2       1 UNK        -0.5000 
     67 C          -2.7452  -20.2606  -48.1373 C.2       11 UNK         0.5000 
     68 O          -3.1118  -20.4999  -49.2863 O.2       11 UNK        -0.5000 
     69 N          -3.5374  -19.6697  -47.2316 N.am      12 UNK        -0.5000 
     70 CA         -4.9522  -19.3742  -47.4564 C.3       12 UNK         0.1400 
     71 CB         -5.4101  -18.2937  -46.4653 C.3       12 UNK        -0.1800 
     72 C          -5.8504  -20.6213  -47.3350 C.2       12 UNK         0.5000 
     73 O          -6.9133  -20.6548  -47.9558 O.2       12 UNK        -0.5000 
     74 N          -5.4360  -21.6044  -46.5243 N.am      13 UNK        -0.5000 
     75 CA         -6.1864  -22.8310  -46.2617 C.3       13 UNK         0.1400 
     76 CB         -5.8727  -23.3272  -44.8408 C.3       13 UNK        -0.1800 
     77 C          -5.8902  -23.9234  -47.3020 C.2       13 UNK         0.5000 
     78 O          -6.8252  -24.5013  -47.8577 O.2       13 UNK        -0.5000 
     79 N          -4.6017  -24.1894  -47.5389 N.am      14 UNK        -0.5000 
     80 CA         -4.0842  -25.1922  -48.4643 C.3       14 UNK         0.1400 
     81 CB         -4.3259  -26.6186  -47.9189 C.3       14 UNK        -0.1800 
     82 C          -2.6066  -24.8572  -48.7308 C.2       14 UNK         0.5000 
     83 O          -2.3222  -23.7310  -49.1288 O.2       14 UNK        -0.5000 
     84 N          -1.6971  -25.8136  -48.4901 N.am      15 UNK        -0.5000 
     85 CA         -0.2386  -25.6859  -48.5787 C.3       15 UNK         0.1400 
     86 CB          0.2877  -24.7775  -47.4418 C.3       15 UNK        -0.1800 
     87 C           0.2378  -25.2780  -49.9911 C.2       15 UNK         0.5000 
     88 O           0.0420  -26.0464  -50.9350 O.2       15 UNK        -0.5000 
     89 N           0.8722  -24.1049  -50.1079 N.am      16 UNK        -0.5000 
     90 CA          1.3599  -23.5183  -51.3554 C.3       16 UNK         0.1400 
     91 CB          2.4808  -22.5191  -51.0138 C.3       16 UNK        -0.1800 
     92 C           0.2272  -22.8828  -52.1940 C.2       16 UNK         0.5000 
     93 O          -0.9545  -23.0876  -51.9094 O.2       16 UNK        -0.5000 
     94 N           0.6089  -22.1578  -53.2573 N.am      17 UNK        -0.5000 
     95 CA         -0.2779  -21.4933  -54.2247 C.3       17 UNK         0.1400 
     96 CB         -1.0109  -20.3056  -53.5643 C.3       17 UNK        -0.1800 
     97 C          -1.2374  -22.4843  -54.9180 C.2       17 UNK         0.5000 
     98 O          -2.4286  -22.2031  -55.0544 O.2       17 UNK        -0.5000 
     99 N          -0.6919  -23.6534  -55.2925 N.am      18 UNK        -0.5000 
    100 CA        -1.3880  -24.8150  -55.8600 C.3       18 UNK         0.1400 
    101 CB        -1.8562  -24.5184  -57.2995 C.3       18 UNK        -0.1800 
    102 C         -2.5104  -25.3441  -54.9388 C.2       18 UNK         0.5000 
    103 O         -3.6026  -25.6639  -55.4098 O.2       18 UNK        -0.5000 
    104 N         -2.2035  -25.4064  -53.6340 N.am      19 UNK        -0.5000 
    105 CA        -3.0926  -25.7433  -52.5202 C.3       19 UNK         0.1400 
    106 CB        -3.5692  -27.2085  -52.6008 C.3       19 UNK        -0.1800 
    107 C         -4.2396  -24.7249  -52.3786 C.2       19 UNK         0.5000 
    108 O         -5.4121  -25.1037  -52.3969 O.2       19 UNK        -0.5000 
    109 N         -3.8579  -23.4478  -52.2358 N.am      20 UNK        -0.5000 
    110 CA        -4.7243  -22.2794  -52.0517 C.3       20 UNK         0.1400 
    111 CB        -5.4381  -22.3475  -50.6865 C.3       20 UNK        -0.1800 
    112 C         -5.7128  -22.0593  -53.2167 C.2       20 UNK         0.5000 
    113 O         -6.8827  -21.7424  -52.9857 O.2       20 UNK        -0.5000 
    114 N         -5.2321  -22.2082  -54.4601 N.am      21 UNK        -0.5000 
    115 CA        -6.0287  -22.0604  -55.6851 C.3       21 UNK         0.1400 
    116 CB        -5.2047  -22.5302  -56.8914 C.3       21 UNK        -0.1800 
    117 C         -6.5625  -20.6319  -55.9144 C.2       21 UNK         0.5000 
    118 O         -7.5344  -20.4571  -56.6507 O.2       21 UNK        -0.5000 
    119 N         -5.9388  -19.6461  -55.2590 N.am      22 UNK        -0.5000 
    120 CA        -6.4165  -18.2624  -55.1446 C.3       22 UNK         0.1400 
    121 C         -7.6900  -18.0755  -54.2626 C.2       22 UNK         0.5000 
    122 N         -8.1339  -19.0670  -53.4967 N.am      22 UNK        -0.7600 
    123 O         -8.2977  -17.0085  -54.2870 O.2       22 UNK        -0.5000 
    124 C124       -5.2708  -17.3101  -54.7166 C.3       23 UNK        -0.0398 
    125 S125       -4.4991  -17.7484  -53.1178 S.3       23 UNK        -0.2404 
    126 C126       -3.5610  -16.2242  -52.8000 C.3       23 UNK        -0.0205 
    127 H127        0.8986   -8.4412  -45.9849 H         1 UNK         0.0600 
    128 H128        1.9650   -9.6227  -45.2161 H         1 UNK         0.0600 
    129 H129        0.2137   -9.8402  -45.1526 H         1 UNK         0.0600 
    130 H130       -0.4607  -11.4562  -46.5420 H         1 UNK         0.3000 
    131 H131        0.3565  -11.5434  -49.3125 H         1 UNK         0.0600 
    132 H132       -1.9755  -11.9757  -48.7382 H         1 UNK         0.0800 
    133 H133       -1.2715  -13.3513  -49.5303 H         1 UNK         0.0800 
    134 H134       -3.9080  -14.2959  -48.1919 H         1 UNK         0.0800 
    135 H135       -3.3565  -15.6148  -47.1857 H         1 UNK         0.0800 
    136 H136       -4.1746  -15.0541  -50.4106 H         1 UNK         0.1150 
    137 H137       -1.2456  -17.5495  -52.2912 H         1 UNK         0.1150 
    138 H138       -0.7862  -16.4304  -48.1776 H         1 UNK         0.1150 
    139 H139        0.9568  -17.7521  -51.1097 H         1 UNK         0.0800 
    140 H140        1.0783  -17.4746  -49.3924 H         1 UNK         0.0800 
    141 H141       -0.4943  -18.6685  -47.7360 H         1 UNK         0.0800 
    142 H142        0.7049  -19.9196  -47.6155 H         1 UNK         0.0800 
    143 H143       -1.1030  -21.6219  -48.1885 H         1 UNK         0.0600 
    144 H144       -0.6351  -20.3228  -45.7170 H         1 UNK         0.3000 
    145 H145       -2.2974  -22.7617  -43.6683 H         1 UNK         0.0600 
    146 H146       -0.0225  -22.7013  -42.7115 H         1 UNK         0.0600 
    147 H147        0.0124  -23.5107  -44.2711 H         1 UNK         0.0600 
    148 H148        0.5942  -21.8563  -44.1285 H         1 UNK         0.0600 
    149 H149       -1.0007  -20.3353  -42.9626 H         1 UNK         0.3000 
    150 H150       -3.9466  -18.2632  -42.9602 H         1 UNK         0.0600 
    151 H151       -3.1257  -17.9237  -40.6536 H         1 UNK         0.0600 
    152 H152       -3.8402  -19.5227  -40.7977 H         1 UNK         0.0600 
    153 H153       -2.0893  -19.3434  -40.7737 H         1 UNK         0.0600 
    154 H154       -1.2699  -17.5961  -42.3565 H         1 UNK         0.3000 
    155 H155       -0.2653  -16.6398  -45.6777 H         1 UNK         0.0600 
    156 H156       -0.6292  -15.1893  -43.0044 H         1 UNK         0.0600 
    157 H157       -1.4922  -14.7775  -44.4705 H         1 UNK         0.0600 
    158 H158        0.2562  -14.6061  -44.4102 H         1 UNK         0.0600 
    159 H159        1.2614  -16.7184  -43.3129 H         1 UNK         0.3000 
    160 H160        2.4605  -20.0919  -43.5344 H         1 UNK         0.0600 
    161 H161        3.7599  -17.3350  -43.8882 H         1 UNK         0.0600 
    162 H162        3.8986  -18.6909  -44.9954 H         1 UNK         0.0600 
    163 H163        4.5857  -18.8072  -43.3831 H         1 UNK         0.0600 
    164 H164        2.8245  -17.9556  -41.6425 H         1 UNK         0.3000 
    165 H165        0.2132  -18.9079  -39.4124 H         1 UNK         0.0600 
    166 H166        2.1395  -19.0133  -37.8547 H         1 UNK         0.0600 
    167 H167        2.1259  -20.4302  -38.8923 H         1 UNK         0.0600 
    168 H168        3.2668  -19.1278  -39.2063 H         1 UNK         0.0600 
    169 H169        2.2366  -16.8759  -39.3315 H         1 UNK         0.3000 
    170 H170        0.3938  -14.3380  -41.0203 H         1 UNK         0.0600 
    171 H171       -0.5205  -14.3424  -38.6955 H         1 UNK         0.0600 
    172 H172        1.0829  -14.6774  -38.0531 H         1 UNK         0.0600 
    173 H173        0.7583  -13.1532  -38.8797 H         1 UNK         0.0600 
    174 H174        2.8984  -14.2506  -39.7051 H         1 UNK         0.3000 
    175 H175        4.7110  -13.7705  -41.1075 H         1 UNK         0.0600 
    176 H176        5.1070  -16.8047  -41.4805 H         1 UNK         0.0600 
    177 H177        6.3511  -15.6693  -40.9653 H         1 UNK         0.0600 
    178 H178        4.9697  -15.9831  -39.9293 H         1 UNK         0.0600 
    179 H179        4.3405  -15.0318  -43.7023 H         1 UNK         0.3000 
    180 H180        6.4617  -12.7787  -45.2440 H         1 UNK         0.0600 
    181 H181        7.3856  -15.6947  -45.0433 H         1 UNK         0.0600 
    182 H182        8.3776  -14.2846  -44.6941 H         1 UNK         0.0600 
    183 H183        7.8041  -14.5612  -46.3294 H         1 UNK         0.0600 
    184 H184        5.3629  -15.1566  -46.3343 H         1 UNK         0.3000 
    185 H185        3.6150  -14.4468  -47.9869 H         1 UNK         0.0600 
    186 H186        3.3663  -16.4223  -46.5259 H         1 UNK         0.0600 
    187 H187        2.1379  -15.6134  -45.5654 H         1 UNK         0.0600 
    188 H188        1.7903  -16.0929  -47.2266 H         1 UNK         0.0600 
    189 H189        1.7227  -12.8268  -46.4839 H         1 UNK         0.3000 
    190 H190       -3.1519  -19.4053  -46.3318 H         1 UNK         0.3000 
    191 H191       -5.0712  -18.9756  -48.4664 H         1 UNK         0.0600 
    192 H192       -4.8482  -17.3709  -46.6024 H         1 UNK         0.0600 
    193 H193       -6.4648  -18.0541  -46.6056 H         1 UNK         0.0600 
    194 H194       -5.2794  -18.6151  -45.4313 H         1 UNK         0.0600 
    195 H195       -4.5461  -21.5064  -46.0525 H         1 UNK         0.3000 
    196 H196       -7.2558  -22.6128  -46.3026 H         1 UNK         0.0600 
    197 H197       -6.4215  -24.2426  -44.6164 H         1 UNK         0.0600 
    198 H198       -6.1580  -22.5852  -44.0948 H         1 UNK         0.0600 
    199 H199       -4.8113  -23.5390  -44.7081 H         1 UNK         0.0600 
    200 H200       -3.8861  -23.6315  -47.0717 H         1 UNK         0.3000 
    201 H201       -4.6104  -25.0894  -49.4147 H         1 UNK         0.0600 
    202 H202       -5.3897  -26.8206  -47.7958 H         1 UNK         0.0600 
    203 H203       -3.8504  -26.7667  -46.9485 H         1 UNK         0.0600 
    204 H204       -3.9440  -27.3757  -48.6050 H         1 UNK         0.0600 
    205 H205       -2.0329  -26.7174  -48.1903 H         1 UNK         0.3000 
    206 H206        0.1651  -26.6846  -48.4063 H         1 UNK         0.0600 
    207 H207        1.3777  -24.7382  -47.4388 H         1 UNK         0.0600 
    208 H208       -0.0840  -23.7561  -47.5227 H         1 UNK         0.0600 
    209 H209       -0.0200  -25.1582  -46.4679 H         1 UNK         0.0600 
    210 H210        0.9298  -23.5177  -49.2901 H         1 UNK         0.3000 
    211 H211        1.7947  -24.3152  -51.9621 H         1 UNK         0.0600 
    212 H212        2.1097  -21.6827  -50.4232 H         1 UNK         0.0600 
    213 H213        2.9483  -22.1100  -51.9096 H         1 UNK         0.0600 
    214 H214        3.2717  -23.0021  -50.4395 H         1 UNK         0.0600 
    215 H215        1.5981  -22.0481  -53.4302 H         1 UNK         0.3000 
    216 H216        0.3618  -21.0891  -55.0103 H         1 UNK         0.0600 
    217 H217       -1.5944  -19.7451  -54.2956 H         1 UNK         0.0600 
    218 H218       -0.3008  -19.6121  -53.1150 H         1 UNK         0.0600 
    219 H219       -1.6961  -20.6318  -52.7811 H         1 UNK         0.0600 
    220 H220        0.2953  -23.7808  -55.1204 H         1 UNK         0.3000 
    221 H221       -0.6511  -25.6173  -55.9189 H         1 UNK         0.0600 
    222 H222       -2.5787  -23.7047  -57.3324 H         1 UNK         0.0600 
    223 H223       -1.0151  -24.2399  -57.9342 H         1 UNK         0.0600 
    224 H224       -2.3247  -25.3938  -57.7505 H         1 UNK         0.0600 
    225 H225       -1.2917  -25.0743  -53.3521 H         1 UNK         0.3000 
    226 H226       -2.4936  -25.6497  -51.6150 H         1 UNK         0.0600 
    227 H227       -2.7236  -27.8934  -52.6632 H         1 UNK         0.0600 
    228 H228       -4.1405  -27.4785  -51.7118 H         1 UNK         0.0600 
    229 H229       -4.2097  -27.3847  -53.4652 H         1 UNK         0.0600 
    230 H230       -2.8585  -23.2543  -52.2024 H         1 UNK         0.3000 
    231 H231       -4.0642  -21.4109  -52.0359 H         1 UNK         0.0600 
    232 H232       -6.1687  -23.1556  -50.6434 H         1 UNK         0.0600 
    233 H233       -5.9651  -21.4163  -50.4772 H         1 UNK         0.0600 
    234 H234       -4.7248  -22.4999  -49.8782 H         1 UNK         0.0600 
    235 H235       -4.2418  -22.4077  -54.5875 H         1 UNK         0.3000 
    236 H236       -6.8964  -22.7167  -55.5935 H         1 UNK         0.0600 
    237 H237       -4.8983  -23.5692  -56.7730 H         1 UNK         0.0600 
    238 H238       -5.7855  -22.4670  -57.8124 H         1 UNK         0.0600 
    239 H239       -4.3086  -21.9236  -57.0257 H         1 UNK         0.0600 
    240 H240       -5.1510  -19.8872  -54.6758 H         1 UNK         0.3000 
    241 H241       -6.7190  -17.9543  -56.1472 H         1 UNK         0.0600 
    242 H242       -7.6470  -19.9558  -53.4445 H         1 UNK         0.3800 
    243 H243       -8.9619  -18.9248  -52.9410 H         1 UNK         0.3800 
    244 H244       -5.6310  -16.2807  -54.6730 H         1 UNK         0.0800 
    245 H245       -4.4904  -17.3167  -55.4788 H         1 UNK         0.0800 
    246 H246       -2.8623  -16.0516  -53.6201 H         1 UNK         0.0800 
    247 H247       -4.2444  -15.3737  -52.7914 H         1 UNK         0.0800 
@<TRIPOS>BOND
     1    1    2 1    
     2    1  127 1    
     3    1  128 1    
     4    1  129 1    
     5    2    3 2    
     6    2    4 am   BACKBONE|DICT|INTERRES
     7    4    5 1    
     8    4  130 1    
     9    5    6 1    
    10    5   65 1    
    11    5  131 1    
    12    6    7 1    
    13    6  132 1    
    14    6  133 1    
    15    7    8 1    
    16    8    9 1    
    17    8  134 1    
    18    8  135 1    
    19    9   10 ar   
    20    9   14 ar   
    21   10   11 ar   
    22   10  136 1    
    23   11   12 ar   
    24   11  126 1    
    25   12   13 ar   
    26   12  137 1    
    27   13   14 ar   
    28   13   15 1    
    29   14  138 1    
    30   15   16 1    
    31   15  139 1    
    32   15  140 1    
    33   16   17 1    
    34   17   18 1    
    35   17  141 1    
    36   17  142 1    
    37   18   19 1    
    38   18   67 1    
    39   18  143 1    
    40   19   20 am   BACKBONE|DICT|INTERRES
    41   19  144 1    
    42   20   21 2    
    43   20   22 1    
    44   22   23 1    
    45   22   24 1    
    46   22  145 1    
    47   23  146 1    
    48   23  147 1    
    49   23  148 1    
    50   24   25 am   BACKBONE|DICT|INTERRES
    51   24  149 1    
    52   25   26 2    
    53   25   27 1    
    54   27   28 1    
    55   27   29 1    
    56   27  150 1    
    57   28  151 1    
    58   28  152 1    
    59   28  153 1    
    60   29   30 am   BACKBONE|DICT|INTERRES
    61   29  154 1    
    62   30   31 2    
    63   30   32 1    
    64   32   33 1    
    65   32   34 1    
    66   32  155 1    
    67   33  156 1    
    68   33  157 1    
    69   33  158 1    
    70   34   35 am   BACKBONE|DICT|INTERRES
    71   34  159 1    
    72   35   36 2    
    73   35   37 1    
    74   37   38 1    
    75   37   39 1    
    76   37  160 1    
    77   38  161 1    
    78   38  162 1    
    79   38  163 1    
    80   39   40 am   BACKBONE|DICT|INTERRES
    81   39  164 1    
    82   40   41 2    
    83   40   42 1    
    84   42   43 1    
    85   42   44 1    
    86   42  165 1    
    87   43  166 1    
    88   43  167 1    
    89   43  168 1    
    90   44   45 am   BACKBONE|DICT|INTERRES
    91   44  169 1    
    92   45   46 2    
    93   45   47 1    
    94   47   48 1    
    95   47   49 1    
    96   47  170 1    
    97   48  171 1    
    98   48  172 1    
    99   48  173 1    
   100   49   50 am   BACKBONE|DICT|INTERRES
   101   49  174 1    
   102   50   51 2    
   103   50   52 1    
   104   52   53 1    
   105   52   54 1    
   106   52  175 1    
   107   53  176 1    
   108   53  177 1    
   109   53  178 1    
   110   54   55 am   BACKBONE|DICT|INTERRES
   111   54  179 1    
   112   55   56 2    
   113   55   57 1    
   114   57   58 1    
   115   57   59 1    
   116   57  180 1    
   117   58  181 1    
   118   58  182 1    
   119   58  183 1    
   120   59   60 am   BACKBONE|DICT|INTERRES
   121   59  184 1    
   122   60   61 2    
   123   60   62 1    
   124   62   63 1    
   125   62   64 1    
   126   62  185 1    
   127   63  186 1    
   128   63  187 1    
   129   63  188 1    
   130   64   65 am   BACKBONE|DICT|INTERRES
   131   64  189 1    
   132   65   66 2    
   133   67   68 2    
   134   67   69 am   BACKBONE|DICT|INTERRES
   135   69   70 1    
   136   69  190 1    
   137   70   71 1    
   138   70   72 1    
   139   70  191 1    
   140   71  192 1    
   141   71  193 1    
   142   71  194 1    
   143   72   73 2    
   144   72   74 am   BACKBONE|DICT|INTERRES
   145   74   75 1    
   146   74  195 1    
   147   75   76 1    
   148   75   77 1    
   149   75  196 1    
   150   76  197 1    
   151   76  198 1    
   152   76  199 1    
   153   77   78 2    
   154   77   79 am   BACKBONE|DICT|INTERRES
   155   79   80 1    
   156   79  200 1    
   157   80   81 1    
   158   80   82 1    
   159   80  201 1    
   160   81  202 1    
   161   81  203 1    
   162   81  204 1    
   163   82   83 2    
   164   82   84 am   BACKBONE|DICT|INTERRES
   165   84   85 1    
   166   84  205 1    
   167   85   86 1    
   168   85   87 1    
   169   85  206 1    
   170   86  207 1    
   171   86  208 1    
   172   86  209 1    
   173   87   88 2    
   174   87   89 am   BACKBONE|DICT|INTERRES
   175   89   90 1    
   176   89  210 1    
   177   90   91 1    
   178   90   92 1    
   179   90  211 1    
   180   91  212 1    
   181   91  213 1    
   182   91  214 1    
   183   92   93 2    
   184   92   94 am   BACKBONE|DICT|INTERRES
   185   94   95 1    
   186   94  215 1    
   187   95   96 1    
   188   95   97 1    
   189   95  216 1    
   190   96  217 1    
   191   96  218 1    
   192   96  219 1    
   193   97   98 2    
   194   97   99 am   BACKBONE|DICT|INTERRES
   195   99  100 1    
   196   99  220 1    
   197  100  101 1    
   198  100  102 1    
   199  100  221 1    
   200  101  222 1    
   201  101  223 1    
   202  101  224 1    
   203  102  103 2    
   204  102  104 am   BACKBONE|DICT|INTERRES
   205  104  105 1    
   206  104  225 1    
   207  105  106 1    
   208  105  107 1    
   209  105  226 1    
   210  106  227 1    
   211  106  228 1    
   212  106  229 1    
   213  107  108 2    
   214  107  109 am   BACKBONE|DICT|INTERRES
   215  109  110 1    
   216  109  230 1    
   217  110  111 1    
   218  110  112 1    
   219  110  231 1    
   220  111  232 1    
   221  111  233 1    
   222  111  234 1    
   223  112  113 2    
   224  112  114 am   BACKBONE|DICT|INTERRES
   225  114  115 1    
   226  114  235 1    
   227  115  116 1    
   228  115  117 1    
   229  115  236 1    
   230  116  237 1    
   231  116  238 1    
   232  116  239 1    
   233  117  118 2    
   234  117  119 am   BACKBONE|DICT|INTERRES
   235  119  120 1    
   236  119  240 1    
   237  120  121 1    
   238  120  124 1    
   239  120  241 1    
   240  121  122 am   BACKBONE|DICT|INTERRES
   241  121  123 2    
   242  122  242 1    
   243  122  243 1    
   244  124  125 1    
   245  124  244 1    
   246  124  245 1    
   247  125  126 1    
   248  126  246 1    
   249  126  247 1    
@<TRIPOS>SUBSTRUCTURE
     1 UNK         1 GROUP             0       ****    0 ROOT    
