@<TRIPOS>MOLECULE
3R540
247   249    1
SMALL
USER_CHARGES


@<TRIPOS>ATOM
      1 CA          4.0527   -8.8546  -51.7849 C.3       0 UNK        -0.1800 
      2 C           4.8502   -9.8922  -51.0072 C.2       0 UNK         0.5000 
      3 O           6.0353   -9.6838  -50.7453 O.2       0 UNK        -0.5000 
      4 N           4.2084  -11.0100  -50.6470 N.am      1 UNK        -0.5000 
      5 CA          4.7885  -12.1006  -49.8562 C.3       1 UNK         0.1400 
      6 C6          3.8979  -13.3675  -49.8836 C.3       23 UNK        -0.0398 
      7 S7          3.7664  -14.0457  -51.5728 S.3       23 UNK        -0.2404 
      8 C8          4.0387  -15.8309  -51.2950 C.3       23 UNK        -0.0205 
      9 C9          2.8279  -16.6088  -50.7748 C.ar      23 UNK        -0.0193 
     10 C10         1.5117  -16.1714  -50.9760 C.ar      23 UNK        -0.1150 
     11 C11         0.4267  -16.9483  -50.5610 C.ar      23 UNK        -0.0193 
     12 C12         0.6601  -18.1728  -49.9309 C.ar      23 UNK        -0.1150 
     13 C13         1.9646  -18.6241  -49.7188 C.ar      23 UNK        -0.0193 
     14 C14         3.0412  -17.8368  -50.1387 C.ar      23 UNK        -0.1150 
     15 C15         2.2034  -19.9745  -49.0620 C.3       23 UNK        -0.0205 
     16 S16         1.9890  -19.8737  -47.2610 S.3       23 UNK        -0.2404 
     17 C17         2.2216  -21.6093  -46.7622 C.3       23 UNK        -0.0398 
     18 CA          0.9248  -22.4122  -46.4929 C.3       11 UNK         0.1400 
     19 N           0.0831  -21.8764  -45.4156 N.am      11 UNK        -0.5000 
     20 C          -0.8270  -22.6265  -44.7735 C.2       10 UNK         0.5000 
     21 O          -1.0090  -23.8209  -45.0151 O.2       10 UNK        -0.5000 
     22 CA         -1.7093  -21.9396  -43.7167 C.3       10 UNK         0.1400 
     23 CB         -0.9398  -21.7281  -42.4044 C.3       10 UNK        -0.1800 
     24 N          -2.2807  -20.6756  -44.1800 N.am      10 UNK        -0.5000 
     25 C          -3.1560  -20.5678  -45.1898 C.2       9 UNK         0.5000 
     26 O          -3.5761  -21.5291  -45.8317 O.2       9 UNK        -0.5000 
     27 CA         -3.6190  -19.1503  -45.5734 C.3       9 UNK         0.1400 
     28 CB         -4.7599  -18.6802  -44.6597 C.3       9 UNK        -0.1800 
     29 N          -2.5304  -18.1750  -45.5530 N.am      9 UNK        -0.5000 
     30 C          -1.4662  -18.2238  -46.3672 C.2       8 UNK         0.5000 
     31 O          -1.3313  -19.0607  -47.2584 O.2       8 UNK        -0.5000 
     32 CA         -0.3445  -17.2037  -46.1028 C.3       8 UNK         0.1400 
     33 CB         -0.6959  -15.8291  -46.6901 C.3       8 UNK        -0.1800 
     34 N          -0.0422  -17.0697  -44.6781 N.am      8 UNK        -0.5000 
     35 C           0.3903  -18.0578  -43.8812 C.2       7 UNK         0.5000 
     36 O           0.6419  -19.1986  -44.2678 O.2       7 UNK        -0.5000 
     37 CA          0.4987  -17.7300  -42.3826 C.3       7 UNK         0.1400 
     38 CB          1.7971  -16.9725  -42.0669 C.3       7 UNK        -0.1800 
     39 N          -0.6518  -16.9596  -41.9098 N.am      7 UNK        -0.5000 
     40 C          -1.8909  -17.4543  -41.7827 C.2       6 UNK         0.5000 
     41 O          -2.1862  -18.6242  -42.0228 O.2       6 UNK        -0.5000 
     42 CA         -2.9893  -16.4695  -41.3418 C.3       6 UNK         0.1400 
     43 CB         -3.0103  -16.3322  -39.8122 C.3       6 UNK        -0.1800 
     44 N          -2.8350  -15.1450  -41.9452 N.am      6 UNK        -0.5000 
     45 C          -3.0049  -14.8853  -43.2491 C.2       5 UNK         0.5000 
     46 O          -3.3391  -15.7322  -44.0772 O.2       5 UNK        -0.5000 
     47 CA         -2.6944  -13.4479  -43.7118 C.3       5 UNK         0.1400 
     48 CB         -3.9092  -12.5342  -43.4920 C.3       5 UNK        -0.1800 
     49 N          -1.5163  -12.8605  -43.0615 N.am      5 UNK        -0.5000 
     50 C          -0.2854  -13.3854  -43.1154 C.2       4 UNK         0.5000 
     51 O          -0.0290  -14.4502  -43.6803 O.2       4 UNK        -0.5000 
     52 CA          0.8335  -12.6327  -42.3721 C.3       4 UNK         0.1400 
     53 CB          0.7550  -12.9190  -40.8639 C.3       4 UNK        -0.1800 
     54 N           2.1486  -13.0528  -42.8580 N.am      4 UNK        -0.5000 
     55 C           2.6566  -12.7179  -44.0493 C.2       3 UNK         0.5000 
     56 O           2.1619  -11.8707  -44.7979 O.2       3 UNK        -0.5000 
     57 CA          3.9080  -13.4885  -44.4879 C.3       3 UNK         0.1400 
     58 CB          3.5212  -14.7830  -45.2273 C.3       3 UNK        -0.1800 
     59 N           4.7001  -12.6453  -45.3735 N.am      3 UNK        -0.5000 
     60 C           6.0308  -12.6624  -45.4828 C.2       2 UNK         0.5000 
     61 O           6.7564  -13.4299  -44.8473 O.2       2 UNK        -0.5000 
     62 CA          6.6393  -11.6746  -46.4991 C.3       2 UNK         0.1400 
     63 CB          8.1783  -11.6497  -46.4576 C.3       2 UNK        -0.1800 
     64 N           6.2123  -11.9907  -47.8629 N.am      2 UNK        -0.5000 
     65 C           5.0399  -11.6415  -48.4063 C.2       1 UNK         0.5000 
     66 O           4.1709  -11.0047  -47.8049 O.2       1 UNK        -0.5000 
     67 C           0.1172  -22.7149  -47.7725 C.2       11 UNK         0.5000 
     68 O           0.4233  -23.6962  -48.4482 O.2       11 UNK        -0.5000 
     69 N          -0.9289  -21.9246  -48.0596 N.am      12 UNK        -0.5000 
     70 CA         -1.8833  -22.1983  -49.1353 C.3       12 UNK         0.1400 
     71 CB         -2.8167  -20.9996  -49.3291 C.3       12 UNK        -0.1800 
     72 C          -2.6974  -23.4818  -48.8947 C.2       12 UNK         0.5000 
     73 O          -2.8870  -24.2622  -49.8272 O.2       12 UNK        -0.5000 
     74 N          -3.1392  -23.7031  -47.6495 N.am      13 UNK        -0.5000 
     75 CA         -3.8095  -24.9302  -47.2203 C.3       13 UNK         0.1400 
     76 CB         -4.3704  -24.7573  -45.8018 C.3       13 UNK        -0.1800 
     77 C          -2.8944  -26.1635  -47.3183 C.2       13 UNK         0.5000 
     78 O          -3.3331  -27.1971  -47.8225 O.2       13 UNK        -0.5000 
     79 N          -1.6272  -26.0181  -46.9032 N.am      14 UNK        -0.5000 
     80 CA         -0.5862  -27.0433  -47.0344 C.3       14 UNK         0.1400 
     81 CB          0.6753  -26.5947  -46.2824 C.3       14 UNK        -0.1800 
     82 C          -0.2544  -27.3869  -48.5017 C.2       14 UNK         0.5000 
     83 O           0.0032  -28.5505  -48.8106 O.2       14 UNK        -0.5000 
     84 N          -0.3108  -26.3795  -49.3834 N.am      15 UNK        -0.5000 
     85 CA         -0.1603  -26.5068  -50.8354 C.3       15 UNK         0.1400 
     86 CB          0.2228  -25.1340  -51.4139 C.3       15 UNK        -0.1800 
     87 C          -1.4138  -27.0642  -51.5463 C.2       15 UNK         0.5000 
     88 O          -1.3674  -27.2673  -52.7601 O.2       15 UNK        -0.5000 
     89 N          -2.5042  -27.2891  -50.7966 N.am      16 UNK        -0.5000 
     90 CA         -3.8160  -27.7759  -51.2376 C.3       16 UNK         0.1400 
     91 CB         -3.7149  -29.1799  -51.8701 C.3       16 UNK        -0.1800 
     92 C          -4.5918  -26.7701  -52.1156 C.2       16 UNK         0.5000 
     93 O          -5.4935  -27.1706  -52.8535 O.2       16 UNK        -0.5000 
     94 N          -4.2652  -25.4767  -51.9895 N.am      17 UNK        -0.5000 
     95 CA         -4.9888  -24.3623  -52.6064 C.3       17 UNK         0.1400 
     96 CB         -3.9889  -23.2441  -52.9315 C.3       17 UNK        -0.1800 
     97 C          -6.1287  -23.8448  -51.7030 C.2       17 UNK         0.5000 
     98 O          -6.9265  -23.0162  -52.1446 O.2       17 UNK        -0.5000 
     99 N          -6.1822  -24.3362  -50.4528 N.am      18 UNK        -0.5000 
    100 CA        -7.2421  -24.1560  -49.4489 C.3       18 UNK         0.1400 
    101 CB        -8.5365  -24.8473  -49.9245 C.3       18 UNK        -0.1800 
    102 C         -7.4914  -22.6934  -49.0224 C.2       18 UNK         0.5000 
    103 O         -8.5577  -22.3903  -48.4863 O.2       18 UNK        -0.5000 
    104 N         -6.5160  -21.8136  -49.2920 N.am      19 UNK        -0.5000 
    105 CA        -6.5531  -20.3558  -49.1245 C.3       19 UNK         0.1400 
    106 CB        -6.7448  -19.9685  -47.6438 C.3       19 UNK        -0.1800 
    107 C         -7.5519  -19.6384  -50.0621 C.2       19 UNK         0.5000 
    108 O         -7.7756  -18.4383  -49.8975 O.2       19 UNK        -0.5000 
    109 N         -8.1030  -20.3562  -51.0536 N.am      20 UNK        -0.5000 
    110 CA        -8.9017  -19.7914  -52.1456 C.3       20 UNK         0.1400 
    111 CB        -9.7598  -20.9035  -52.7673 C.3       20 UNK        -0.1800 
    112 C         -8.0017  -19.1352  -53.2107 C.2       20 UNK         0.5000 
    113 O         -8.4216  -18.1935  -53.8839 O.2       20 UNK        -0.5000 
    114 N         -6.7676  -19.6341  -53.3052 N.am      21 UNK        -0.5000 
    115 CA        -5.6347  -19.0769  -54.0248 C.3       21 UNK         0.1400 
    116 CB        -5.5323  -19.7450  -55.4065 C.3       21 UNK        -0.1800 
    117 C         -4.3877  -19.3501  -53.1678 C.2       21 UNK         0.5000 
    118 O         -4.4760  -20.0823  -52.1775 O.2       21 UNK        -0.5000 
    119 N         -3.2507  -18.7668  -53.5545 N.am      22 UNK        -0.5000 
    120 CA        -1.9414  -19.0495  -52.9469 C.3       22 UNK         0.1400 
    121 C         -1.3840  -20.4440  -53.3516 C.2       22 UNK         0.5000 
    122 N         -0.5233  -21.0331  -52.5321 N.am      22 UNK        -0.7600 
    123 O         -1.6848  -20.9756  -54.4181 O.2       22 UNK        -0.5000 
    124 C124       -0.9118  -17.9399  -53.2676 C.3       23 UNK        -0.0398 
    125 S125       -1.3866  -16.3088  -52.5949 S.3       23 UNK        -0.2404 
    126 C126       -0.9990  -16.4793  -50.8176 C.3       23 UNK        -0.0205 
    127 H127        4.0330   -7.9109  -51.2398 H         1 UNK         0.0600 
    128 H128        3.0231   -9.1738  -51.9490 H         1 UNK         0.0600 
    129 H129        4.5129   -8.6786  -52.7572 H         1 UNK         0.0600 
    130 H130        3.2333  -11.1187  -50.8849 H         1 UNK         0.3000 
    131 H131        5.7526  -12.3547  -50.3028 H         1 UNK         0.0600 
    132 H132        2.8941  -13.1483  -49.5151 H         1 UNK         0.0800 
    133 H133        4.3036  -14.1343  -49.2210 H         1 UNK         0.0800 
    134 H134        4.8895  -15.9631  -50.6247 H         1 UNK         0.0800 
    135 H135        4.3319  -16.2756  -52.2467 H         1 UNK         0.0800 
    136 H136        1.3150  -15.2394  -51.4854 H         1 UNK         0.1150 
    137 H137       -0.1717  -18.7813  -49.6059 H         1 UNK         0.1150 
    138 H138        4.0509  -18.1925  -49.9885 H         1 UNK         0.1150 
    139 H139        1.5083  -20.7061  -49.4753 H         1 UNK         0.0800 
    140 H140        3.2072  -20.3377  -49.2876 H         1 UNK         0.0800 
    141 H141        2.8229  -21.6001  -45.8522 H         1 UNK         0.0800 
    142 H142        2.8354  -22.1210  -47.5056 H         1 UNK         0.0800 
    143 H143        1.2741  -23.3854  -46.1415 H         1 UNK         0.0600 
    144 H144        0.2039  -20.8969  -45.1686 H         1 UNK         0.3000 
    145 H145       -2.5428  -22.6124  -43.5035 H         1 UNK         0.0600 
    146 H146       -1.5886  -21.3219  -41.6285 H         1 UNK         0.0600 
    147 H147       -0.5401  -22.6719  -42.0316 H         1 UNK         0.0600 
    148 H148       -0.1004  -21.0453  -42.5302 H         1 UNK         0.0600 
    149 H149       -2.0144  -19.8412  -43.6689 H         1 UNK         0.3000 
    150 H150       -4.0010  -19.1930  -46.5948 H         1 UNK         0.0600 
    151 H151       -5.5857  -19.3927  -44.6666 H         1 UNK         0.0600 
    152 H152       -5.1569  -17.7199  -44.9892 H         1 UNK         0.0600 
    153 H153       -4.4302  -18.5692  -43.6267 H         1 UNK         0.0600 
    154 H154       -2.6017  -17.4224  -44.8758 H         1 UNK         0.3000 
    155 H155        0.5585  -17.5521  -46.6024 H         1 UNK         0.0600 
    156 H156       -0.8892  -15.9025  -47.7606 H         1 UNK         0.0600 
    157 H157        0.1235  -15.1227  -46.5544 H         1 UNK         0.0600 
    158 H158       -1.5841  -15.4049  -46.2220 H         1 UNK         0.0600 
    159 H159       -0.1775  -16.1452  -44.2731 H         1 UNK         0.3000 
    160 H160        0.5224  -18.6758  -41.8371 H         1 UNK         0.0600 
    161 H161        1.8201  -15.9931  -42.5420 H         1 UNK         0.0600 
    162 H162        2.6677  -17.5282  -42.4176 H         1 UNK         0.0600 
    163 H163        1.9153  -16.8258  -40.9933 H         1 UNK         0.0600 
    164 H164       -0.5067  -15.9733  -41.7571 H         1 UNK         0.3000 
    165 H165       -3.9503  -16.8792  -41.6602 H         1 UNK         0.0600 
    166 H166       -3.8342  -15.6978  -39.4848 H         1 UNK         0.0600 
    167 H167       -3.1410  -17.3046  -39.3355 H         1 UNK         0.0600 
    168 H168       -2.0829  -15.9019  -39.4319 H         1 UNK         0.0600 
    169 H169       -2.5568  -14.3910  -41.3348 H         1 UNK         0.3000 
    170 H170       -2.4905  -13.4883  -44.7838 H         1 UNK         0.0600 
    171 H171       -4.7962  -12.9401  -43.9804 H         1 UNK         0.0600 
    172 H172       -4.1414  -12.4191  -42.4325 H         1 UNK         0.0600 
    173 H173       -3.7369  -11.5416  -43.9083 H         1 UNK         0.0600 
    174 H174       -1.6598  -11.9911  -42.5681 H         1 UNK         0.3000 
    175 H175        0.7130  -11.5608  -42.5422 H         1 UNK         0.0600 
    176 H176        0.8585  -13.9834  -40.6483 H         1 UNK         0.0600 
    177 H177        1.5397  -12.3905  -40.3222 H         1 UNK         0.0600 
    178 H178       -0.1989  -12.5911  -40.4490 H         1 UNK         0.0600 
    179 H179        2.6096  -13.7705  -42.3194 H         1 UNK         0.3000 
    180 H180        4.4889  -13.7370  -43.5969 H         1 UNK         0.0600 
    181 H181        4.4043  -15.3570  -45.5082 H         1 UNK         0.0600 
    182 H182        2.9565  -14.5714  -46.1364 H         1 UNK         0.0600 
    183 H183        2.9010  -15.4261  -44.6029 H         1 UNK         0.0600 
    184 H184        4.1669  -11.9776  -45.9237 H         1 UNK         0.3000 
    185 H185        6.2867  -10.6752  -46.2348 H         1 UNK         0.0600 
    186 H186        8.5383  -11.3947  -45.4600 H         1 UNK         0.0600 
    187 H187        8.6066  -12.6165  -46.7255 H         1 UNK         0.0600 
    188 H188        8.5782  -10.9042  -47.1453 H         1 UNK         0.0600 
    189 H189        6.8622  -12.5357  -48.4112 H         1 UNK         0.3000 
    190 H190       -1.0964  -21.0952  -47.4984 H         1 UNK         0.3000 
    191 H191       -1.3191  -22.3378  -50.0588 H         1 UNK         0.0600 
    192 H192       -2.2648  -20.1095  -49.6284 H         1 UNK         0.0600 
    193 H193       -3.5463  -21.2086  -50.1090 H         1 UNK         0.0600 
    194 H194       -3.3672  -20.7633  -48.4193 H         1 UNK         0.0600 
    195 H195       -3.0160  -22.9807  -46.9447 H         1 UNK         0.3000 
    196 H196       -4.6517  -25.0985  -47.8923 H         1 UNK         0.0600 
    197 H197       -4.8898  -25.6586  -45.4744 H         1 UNK         0.0600 
    198 H198       -5.0861  -23.9359  -45.7608 H         1 UNK         0.0600 
    199 H199       -3.5834  -24.5497  -45.0772 H         1 UNK         0.0600 
    200 H200       -1.3604  -25.1480  -46.4518 H         1 UNK         0.3000 
    201 H201       -0.9585  -27.9527  -46.5584 H         1 UNK         0.0600 
    202 H202        0.4556  -26.3695  -45.2386 H         1 UNK         0.0600 
    203 H203        1.1170  -25.7062  -46.7324 H         1 UNK         0.0600 
    204 H204        1.4341  -27.3780  -46.2946 H         1 UNK         0.0600 
    205 H205       -0.4518  -25.4384  -49.0311 H         1 UNK         0.3000 
    206 H206        0.6591  -27.1994  -51.0376 H         1 UNK         0.0600 
    207 H207        1.1325  -24.7505  -50.9515 H         1 UNK         0.0600 
    208 H208        0.4077  -25.1962  -52.4869 H         1 UNK         0.0600 
    209 H209       -0.5670  -24.3988  -51.2603 H         1 UNK         0.0600 
    210 H210       -2.4417  -27.0781  -49.8081 H         1 UNK         0.3000 
    211 H211       -4.4068  -27.8796  -50.3266 H         1 UNK         0.0600 
    212 H212       -3.2200  -29.1552  -52.8411 H         1 UNK         0.0600 
    213 H213       -4.7047  -29.6118  -52.0221 H         1 UNK         0.0600 
    214 H214       -3.1606  -29.8632  -51.2266 H         1 UNK         0.0600 
    215 H215       -3.5349  -25.2176  -51.3301 H         1 UNK         0.3000 
    216 H216       -5.4390  -24.6930  -53.5444 H         1 UNK         0.0600 
    217 H217       -4.4731  -22.4445  -53.4920 H         1 UNK         0.0600 
    218 H218       -3.1664  -23.6126  -53.5447 H         1 UNK         0.0600 
    219 H219       -3.5610  -22.8028  -52.0314 H         1 UNK         0.0600 
    220 H220       -5.4394  -24.9682  -50.1917 H         1 UNK         0.3000 
    221 H221       -6.9066  -24.6742  -48.5503 H         1 UNK         0.0600 
    222 H222       -8.9727  -24.3386  -50.7850 H         1 UNK         0.0600 
    223 H223       -8.3493  -25.8832  -50.2074 H         1 UNK         0.0600 
    224 H224       -9.2900  -24.8609  -49.1362 H         1 UNK         0.0600 
    225 H225       -5.6982  -22.1735  -49.7619 H         1 UNK         0.3000 
    226 H226       -5.5686  -19.9982  -49.4267 H         1 UNK         0.0600 
    227 H227       -6.0645  -20.5262  -47.0004 H         1 UNK         0.0600 
    228 H228       -6.5454  -18.9076  -47.4887 H         1 UNK         0.0600 
    229 H229       -7.7616  -20.1605  -47.3013 H         1 UNK         0.0600 
    230 H230       -7.8479  -21.3328  -51.1445 H         1 UNK         0.3000 
    231 H231       -9.5682  -19.0253  -51.7440 H         1 UNK         0.0600 
    232 H232       -9.1446  -21.6944  -53.1983 H         1 UNK         0.0600 
    233 H233      -10.3923  -20.5086  -53.5633 H         1 UNK         0.0600 
    234 H234      -10.4159  -21.3570  -52.0241 H         1 UNK         0.0600 
    235 H235       -6.5029  -20.3746  -52.6663 H         1 UNK         0.3000 
    236 H236       -5.7528  -17.9970  -54.1348 H         1 UNK         0.0600 
    237 H237       -6.4387  -19.5824  -55.9900 H         1 UNK         0.0600 
    238 H238       -4.6995  -19.3385  -55.9810 H         1 UNK         0.0600 
    239 H239       -5.3786  -20.8215  -55.3207 H         1 UNK         0.0600 
    240 H240       -3.2436  -18.1885  -54.3812 H         1 UNK         0.3000 
    241 H241       -2.0802  -19.0710  -51.8646 H         1 UNK         0.0600 
    242 H242       -0.2211  -20.5981  -51.6769 H         1 UNK         0.3800 
    243 H243       -0.1367  -21.9232  -52.8024 H         1 UNK         0.3800 
    244 H244        0.0793  -18.2018  -52.8948 H         1 UNK         0.0800 
    245 H245       -0.7967  -17.8374  -54.3479 H         1 UNK         0.0800 
    246 H246       -1.1451  -15.5129  -50.3336 H         1 UNK         0.0800 
    247 H247       -1.7190  -17.1594  -50.3597 H         1 UNK         0.0800 
@<TRIPOS>BOND
     1    1    2 1    
     2    1  127 1    
     3    1  128 1    
     4    1  129 1    
     5    2    3 2    
     6    2    4 am   BACKBONE|DICT|INTERRES
     7    4    5 1    
     8    4  130 1    
     9    5    6 1    
    10    5   65 1    
    11    5  131 1    
    12    6    7 1    
    13    6  132 1    
    14    6  133 1    
    15    7    8 1    
    16    8    9 1    
    17    8  134 1    
    18    8  135 1    
    19    9   10 ar   
    20    9   14 ar   
    21   10   11 ar   
    22   10  136 1    
    23   11   12 ar   
    24   11  126 1    
    25   12   13 ar   
    26   12  137 1    
    27   13   14 ar   
    28   13   15 1    
    29   14  138 1    
    30   15   16 1    
    31   15  139 1    
    32   15  140 1    
    33   16   17 1    
    34   17   18 1    
    35   17  141 1    
    36   17  142 1    
    37   18   19 1    
    38   18   67 1    
    39   18  143 1    
    40   19   20 am   BACKBONE|DICT|INTERRES
    41   19  144 1    
    42   20   21 2    
    43   20   22 1    
    44   22   23 1    
    45   22   24 1    
    46   22  145 1    
    47   23  146 1    
    48   23  147 1    
    49   23  148 1    
    50   24   25 am   BACKBONE|DICT|INTERRES
    51   24  149 1    
    52   25   26 2    
    53   25   27 1    
    54   27   28 1    
    55   27   29 1    
    56   27  150 1    
    57   28  151 1    
    58   28  152 1    
    59   28  153 1    
    60   29   30 am   BACKBONE|DICT|INTERRES
    61   29  154 1    
    62   30   31 2    
    63   30   32 1    
    64   32   33 1    
    65   32   34 1    
    66   32  155 1    
    67   33  156 1    
    68   33  157 1    
    69   33  158 1    
    70   34   35 am   BACKBONE|DICT|INTERRES
    71   34  159 1    
    72   35   36 2    
    73   35   37 1    
    74   37   38 1    
    75   37   39 1    
    76   37  160 1    
    77   38  161 1    
    78   38  162 1    
    79   38  163 1    
    80   39   40 am   BACKBONE|DICT|INTERRES
    81   39  164 1    
    82   40   41 2    
    83   40   42 1    
    84   42   43 1    
    85   42   44 1    
    86   42  165 1    
    87   43  166 1    
    88   43  167 1    
    89   43  168 1    
    90   44   45 am   BACKBONE|DICT|INTERRES
    91   44  169 1    
    92   45   46 2    
    93   45   47 1    
    94   47   48 1    
    95   47   49 1    
    96   47  170 1    
    97   48  171 1    
    98   48  172 1    
    99   48  173 1    
   100   49   50 am   BACKBONE|DICT|INTERRES
   101   49  174 1    
   102   50   51 2    
   103   50   52 1    
   104   52   53 1    
   105   52   54 1    
   106   52  175 1    
   107   53  176 1    
   108   53  177 1    
   109   53  178 1    
   110   54   55 am   BACKBONE|DICT|INTERRES
   111   54  179 1    
   112   55   56 2    
   113   55   57 1    
   114   57   58 1    
   115   57   59 1    
   116   57  180 1    
   117   58  181 1    
   118   58  182 1    
   119   58  183 1    
   120   59   60 am   BACKBONE|DICT|INTERRES
   121   59  184 1    
   122   60   61 2    
   123   60   62 1    
   124   62   63 1    
   125   62   64 1    
   126   62  185 1    
   127   63  186 1    
   128   63  187 1    
   129   63  188 1    
   130   64   65 am   BACKBONE|DICT|INTERRES
   131   64  189 1    
   132   65   66 2    
   133   67   68 2    
   134   67   69 am   BACKBONE|DICT|INTERRES
   135   69   70 1    
   136   69  190 1    
   137   70   71 1    
   138   70   72 1    
   139   70  191 1    
   140   71  192 1    
   141   71  193 1    
   142   71  194 1    
   143   72   73 2    
   144   72   74 am   BACKBONE|DICT|INTERRES
   145   74   75 1    
   146   74  195 1    
   147   75   76 1    
   148   75   77 1    
   149   75  196 1    
   150   76  197 1    
   151   76  198 1    
   152   76  199 1    
   153   77   78 2    
   154   77   79 am   BACKBONE|DICT|INTERRES
   155   79   80 1    
   156   79  200 1    
   157   80   81 1    
   158   80   82 1    
   159   80  201 1    
   160   81  202 1    
   161   81  203 1    
   162   81  204 1    
   163   82   83 2    
   164   82   84 am   BACKBONE|DICT|INTERRES
   165   84   85 1    
   166   84  205 1    
   167   85   86 1    
   168   85   87 1    
   169   85  206 1    
   170   86  207 1    
   171   86  208 1    
   172   86  209 1    
   173   87   88 2    
   174   87   89 am   BACKBONE|DICT|INTERRES
   175   89   90 1    
   176   89  210 1    
   177   90   91 1    
   178   90   92 1    
   179   90  211 1    
   180   91  212 1    
   181   91  213 1    
   182   91  214 1    
   183   92   93 2    
   184   92   94 am   BACKBONE|DICT|INTERRES
   185   94   95 1    
   186   94  215 1    
   187   95   96 1    
   188   95   97 1    
   189   95  216 1    
   190   96  217 1    
   191   96  218 1    
   192   96  219 1    
   193   97   98 2    
   194   97   99 am   BACKBONE|DICT|INTERRES
   195   99  100 1    
   196   99  220 1    
   197  100  101 1    
   198  100  102 1    
   199  100  221 1    
   200  101  222 1    
   201  101  223 1    
   202  101  224 1    
   203  102  103 2    
   204  102  104 am   BACKBONE|DICT|INTERRES
   205  104  105 1    
   206  104  225 1    
   207  105  106 1    
   208  105  107 1    
   209  105  226 1    
   210  106  227 1    
   211  106  228 1    
   212  106  229 1    
   213  107  108 2    
   214  107  109 am   BACKBONE|DICT|INTERRES
   215  109  110 1    
   216  109  230 1    
   217  110  111 1    
   218  110  112 1    
   219  110  231 1    
   220  111  232 1    
   221  111  233 1    
   222  111  234 1    
   223  112  113 2    
   224  112  114 am   BACKBONE|DICT|INTERRES
   225  114  115 1    
   226  114  235 1    
   227  115  116 1    
   228  115  117 1    
   229  115  236 1    
   230  116  237 1    
   231  116  238 1    
   232  116  239 1    
   233  117  118 2    
   234  117  119 am   BACKBONE|DICT|INTERRES
   235  119  120 1    
   236  119  240 1    
   237  120  121 1    
   238  120  124 1    
   239  120  241 1    
   240  121  122 am   BACKBONE|DICT|INTERRES
   241  121  123 2    
   242  122  242 1    
   243  122  243 1    
   244  124  125 1    
   245  124  244 1    
   246  124  245 1    
   247  125  126 1    
   248  126  246 1    
   249  126  247 1    
@<TRIPOS>SUBSTRUCTURE
     1 UNK         1 GROUP             0       ****    0 ROOT    
