@<TRIPOS>MOLECULE
3R540
247   249    1
SMALL
USER_CHARGES


@<TRIPOS>ATOM
      1 CA         -1.3531  -12.0414  -46.0739 C.3       0 UNK        -0.1800 
      2 C          -0.0601  -12.6587  -46.5869 C.2       0 UNK         0.5000 
      3 O           0.3573  -13.7175  -46.1140 O.2       0 UNK        -0.5000 
      4 N           0.5742  -11.9791  -47.5479 N.am      1 UNK        -0.5000 
      5 CA          1.7804  -12.3592  -48.2985 C.3       1 UNK         0.1400 
      6 C6          1.6348  -13.6787  -49.1026 C.3       23 UNK        -0.0398 
      7 S7          0.2819  -13.5755  -50.3292 S.3       23 UNK        -0.2404 
      8 C8         -0.7817  -14.9746  -49.8567 C.3       23 UNK        -0.0205 
      9 C9         -0.3084  -16.2706  -50.4951 C.ar      23 UNK        -0.0193 
     10 C10        -0.7561  -16.6323  -51.7688 C.ar      23 UNK        -0.1150 
     11 C11        -0.2971  -17.8042  -52.3809 C.ar      23 UNK        -0.0193 
     12 C12         0.6050  -18.6225  -51.6939 C.ar      23 UNK        -0.1150 
     13 C13         1.0397  -18.2861  -50.4078 C.ar      23 UNK        -0.0193 
     14 C14         0.5803  -17.1065  -49.8175 C.ar      23 UNK        -0.1150 
     15 C15         2.0149  -19.1811  -49.6522 C.3       23 UNK        -0.0205 
     16 S16         1.4813  -20.9210  -49.5533 S.3       23 UNK        -0.2404 
     17 C17        -0.2453  -20.7935  -48.9752 C.3       23 UNK        -0.0398 
     18 CA         -0.5661  -21.8760  -47.9186 C.3       11 UNK         0.1400 
     19 N          -0.1255  -21.4793  -46.5808 N.am      11 UNK        -0.5000 
     20 C           0.0714  -22.3328  -45.5690 C.2       10 UNK         0.5000 
     21 O          -0.0982  -23.5488  -45.6589 O.2       10 UNK        -0.5000 
     22 CA          0.4962  -21.7214  -44.2218 C.3       10 UNK         0.1400 
     23 CB          1.9899  -21.3633  -44.2321 C.3       10 UNK        -0.1800 
     24 N          -0.2914  -20.5421  -43.8575 N.am      10 UNK        -0.5000 
     25 C          -1.6115  -20.5575  -43.6241 C.2       9 UNK         0.5000 
     26 O          -2.3038  -21.5730  -43.6859 O.2       9 UNK        -0.5000 
     27 CA         -2.2827  -19.2089  -43.3082 C.3       9 UNK         0.1400 
     28 CB         -2.0127  -18.7906  -41.8552 C.3       9 UNK        -0.1800 
     29 N          -1.8714  -18.1393  -44.2177 N.am      9 UNK        -0.5000 
     30 C          -2.0780  -18.1515  -45.5428 C.2       8 UNK         0.5000 
     31 O          -2.6562  -19.0567  -46.1389 O.2       8 UNK        -0.5000 
     32 CA         -1.4901  -16.9856  -46.3536 C.3       8 UNK         0.1400 
     33 CB         -2.3578  -15.7304  -46.1891 C.3       8 UNK        -0.1800 
     34 N          -0.0999  -16.6945  -45.9983 N.am      8 UNK        -0.5000 
     35 C           0.8958  -17.5924  -46.0558 C.2       7 UNK         0.5000 
     36 O           0.7605  -18.7433  -46.4685 O.2       7 UNK        -0.5000 
     37 CA          2.2614  -17.1523  -45.5109 C.3       7 UNK         0.1400 
     38 CB          3.0096  -16.2700  -46.5182 C.3       7 UNK        -0.1800 
     39 N           2.1376  -16.4714  -44.2222 N.am      7 UNK        -0.5000 
     40 C           1.7440  -17.0868  -43.0973 C.2       6 UNK         0.5000 
     41 O           1.4819  -18.2879  -43.0264 O.2       6 UNK        -0.5000 
     42 CA          1.5824  -16.2054  -41.8507 C.3       6 UNK         0.1400 
     43 CB          2.9432  -15.9446  -41.1893 C.3       6 UNK        -0.1800 
     44 N           0.9351  -14.9308  -42.1498 N.am      6 UNK        -0.5000 
     45 C          -0.3465  -14.7887  -42.5109 C.2       5 UNK         0.5000 
     46 O          -1.1115  -15.7378  -42.6882 O.2       5 UNK        -0.5000 
     47 CA         -0.8424  -13.3418  -42.7097 C.3       5 UNK         0.1400 
     48 CB         -2.3801  -13.2149  -42.6899 C.3       5 UNK        -0.1800 
     49 N          -0.2281  -12.3809  -41.7883 N.am      5 UNK        -0.5000 
     50 C          -0.3016  -12.3651  -40.4499 C.2       4 UNK         0.5000 
     51 O          -0.9547  -13.1729  -39.7872 O.2       4 UNK        -0.5000 
     52 CA          0.5335  -11.2744  -39.7438 C.3       4 UNK         0.1400 
     53 CB          0.4612  -11.3671  -38.2087 C.3       4 UNK        -0.1800 
     54 N           1.9386  -11.3392  -40.1510 N.am      4 UNK        -0.5000 
     55 C           2.4486  -10.8318  -41.2804 C.2       3 UNK         0.5000 
     56 O           1.7813  -10.1742  -42.0827 O.2       3 UNK        -0.5000 
     57 CA          3.9360  -11.1257  -41.5812 C.3       3 UNK         0.1400 
     58 CB          4.5260  -12.2782  -40.7386 C.3       3 UNK        -0.1800 
     59 N           4.1951  -11.3727  -43.0048 N.am      3 UNK        -0.5000 
     60 C           3.5917  -12.2663  -43.8017 C.2       2 UNK         0.5000 
     61 O           2.6777  -13.0187  -43.4511 O.2       2 UNK        -0.5000 
     62 CA          4.1452  -12.3716  -45.2267 C.3       2 UNK         0.1400 
     63 CB          5.1441  -13.5393  -45.3178 C.3       2 UNK        -0.1800 
     64 N           3.0380  -12.5511  -46.1624 N.am      2 UNK        -0.5000 
     65 C           3.0917  -12.3105  -47.4782 C.2       1 UNK         0.5000 
     66 O           4.1337  -12.0017  -48.0587 O.2       1 UNK        -0.5000 
     67 C          -2.0502  -22.2987  -47.9574 C.2       11 UNK         0.5000 
     68 O          -2.4041  -23.1336  -48.7905 O.2       11 UNK        -0.5000 
     69 N          -2.8945  -21.7510  -47.0724 N.am      12 UNK        -0.5000 
     70 CA         -4.2915  -22.1631  -46.9077 C.3       12 UNK         0.1400 
     71 CB         -5.0726  -21.0772  -46.1539 C.3       12 UNK        -0.1800 
     72 C          -4.4243  -23.5186  -46.1898 C.2       12 UNK         0.5000 
     73 O          -5.3513  -24.2720  -46.4848 O.2       12 UNK        -0.5000 
     74 N          -3.4937  -23.8092  -45.2707 N.am      13 UNK        -0.5000 
     75 CA         -3.4135  -25.0673  -44.5265 C.3       13 UNK         0.1400 
     76 CB         -2.5593  -24.8475  -43.2676 C.3       13 UNK        -0.1800 
     77 C          -2.8621  -26.2446  -45.3567 C.2       13 UNK         0.5000 
     78 O          -2.9761  -27.3900  -44.9164 O.2       13 UNK        -0.5000 
     79 N          -2.2652  -25.9577  -46.5224 N.am      14 UNK        -0.5000 
     80 CA         -1.7346  -26.9465  -47.4601 C.3       14 UNK         0.1400 
     81 CB         -0.9630  -26.2173  -48.5710 C.3       14 UNK        -0.1800 
     82 C          -2.8428  -27.8260  -48.0701 C.2       14 UNK         0.5000 
     83 O          -3.9666  -27.3594  -48.2716 O.2       14 UNK        -0.5000 
     84 N          -2.4950  -29.0750  -48.3977 N.am      15 UNK        -0.5000 
     85 CA         -3.3800  -30.0552  -49.0276 C.3       15 UNK         0.1400 
     86 CB         -2.8789  -31.4681  -48.6767 C.3       15 UNK        -0.1800 
     87 C          -3.4764  -29.8183  -50.5489 C.2       15 UNK         0.5000 
     88 O          -2.9768  -30.6260  -51.3349 O.2       15 UNK        -0.5000 
     89 N          -4.0943  -28.6968  -50.9349 N.am      16 UNK        -0.5000 
     90 CA         -4.2959  -28.2851  -52.3222 C.3       16 UNK         0.1400 
     91 CB         -3.0155  -27.6776  -52.9288 C.3       16 UNK        -0.1800 
     92 C          -5.5567  -27.4107  -52.4832 C.2       16 UNK         0.5000 
     93 O          -6.4520  -27.8218  -53.2198 O.2       16 UNK        -0.5000 
     94 N          -5.7159  -26.2677  -51.7969 N.am      17 UNK        -0.5000 
     95 CA         -4.7306  -25.4886  -51.0463 C.3       17 UNK         0.1400 
     96 CB         -5.4727  -24.6674  -49.9832 C.3       17 UNK        -0.1800 
     97 C          -3.9430  -24.5570  -51.9812 C.2       17 UNK         0.5000 
     98 O          -4.4440  -24.1726  -53.0397 O.2       17 UNK        -0.5000 
     99 N          -2.7204  -24.2066  -51.5679 N.am      18 UNK        -0.5000 
    100 CA        -1.7884  -23.3926  -52.3480 C.3       18 UNK         0.1400 
    101 CB        -0.3805  -23.5241  -51.7493 C.3       18 UNK        -0.1800 
    102 C         -2.2128  -21.9178  -52.4418 C.2       18 UNK         0.5000 
    103 O         -1.9315  -21.2731  -53.4504 O.2       18 UNK        -0.5000 
    104 N         -2.9145  -21.4177  -51.4134 N.am      19 UNK        -0.5000 
    105 CA        -3.4170  -20.0414  -51.3458 C.3       19 UNK         0.1400 
    106 CB        -3.9903  -19.7689  -49.9469 C.3       19 UNK        -0.1800 
    107 C         -4.4601  -19.7186  -52.4334 C.2       19 UNK         0.5000 
    108 O         -4.5435  -18.5730  -52.8750 O.2       19 UNK        -0.5000 
    109 N         -5.2079  -20.7418  -52.8700 N.am      20 UNK        -0.5000 
    110 CA        -6.2341  -20.6509  -53.9089 C.3       20 UNK         0.1400 
    111 CB        -7.1199  -21.9047  -53.8376 C.3       20 UNK        -0.1800 
    112 C         -5.6682  -20.4661  -55.3318 C.2       20 UNK         0.5000 
    113 O         -6.4247  -20.0938  -56.2295 O.2       20 UNK        -0.5000 
    114 N         -4.3666  -20.7275  -55.5273 N.am      21 UNK        -0.5000 
    115 CA        -3.6781  -20.5525  -56.8085 C.3       21 UNK         0.1400 
    116 CB        -2.3628  -21.3463  -56.7860 C.3       21 UNK        -0.1800 
    117 C         -3.4059  -19.0742  -57.1509 C.2       21 UNK         0.5000 
    118 O         -3.2371  -18.7499  -58.3273 O.2       21 UNK        -0.5000 
    119 N         -3.3572  -18.2139  -56.1279 N.am      22 UNK        -0.5000 
    120 CA        -3.1364  -16.7678  -56.2506 C.3       22 UNK         0.1400 
    121 C         -4.4796  -16.0057  -56.4015 C.2       22 UNK         0.5000 
    122 N         -4.5034  -14.9300  -57.1766 N.am      22 UNK        -0.7600 
    123 O         -5.4913  -16.3534  -55.7969 O.2       22 UNK        -0.5000 
    124 C124       -2.3249  -16.2226  -55.0494 C.3       23 UNK        -0.0398 
    125 S125       -0.6269  -16.8991  -55.0134 S.3       23 UNK        -0.2404 
    126 C126       -0.7846  -18.2177  -53.7654 C.3       23 UNK        -0.0205 
    127 H127       -2.0324  -12.8116  -45.7119 H         1 UNK         0.0600 
    128 H128       -1.8654  -11.4893  -46.8621 H         1 UNK         0.0600 
    129 H129       -1.1445  -11.3536  -45.2547 H         1 UNK         0.0600 
    130 H130        0.1706  -11.1019  -47.8452 H         1 UNK         0.3000 
    131 H131        1.8939  -11.5619  -49.0352 H         1 UNK         0.0600 
    132 H132        1.4689  -14.5210  -48.4332 H         1 UNK         0.0800 
    133 H133        2.5539  -13.9004  -49.6477 H         1 UNK         0.0800 
    134 H134       -0.8080  -15.0694  -48.7719 H         1 UNK         0.0800 
    135 H135       -1.8050  -14.7623  -50.1697 H         1 UNK         0.0800 
    136 H136       -1.4499  -15.9879  -52.2876 H         1 UNK         0.1150 
    137 H137        0.9610  -19.5343  -52.1529 H         1 UNK         0.1150 
    138 H138        0.9193  -16.8316  -48.8309 H         1 UNK         0.1150 
    139 H139        2.9839  -19.1410  -50.1507 H         1 UNK         0.0800 
    140 H140        2.1801  -18.8123  -48.6407 H         1 UNK         0.0800 
    141 H141       -0.8639  -20.8999  -49.8633 H         1 UNK         0.0800 
    142 H142       -0.4554  -19.7966  -48.5852 H         1 UNK         0.0800 
    143 H143       -0.0126  -22.7788  -48.1874 H         1 UNK         0.0600 
    144 H144        0.0746  -20.4909  -46.4412 H         1 UNK         0.3000 
    145 H145        0.3353  -22.4779  -43.4510 H         1 UNK         0.0600 
    146 H146        2.3177  -21.0154  -43.2524 H         1 UNK         0.0600 
    147 H147        2.5985  -22.2307  -44.4901 H         1 UNK         0.0600 
    148 H148        2.2115  -20.5785  -44.9559 H         1 UNK         0.0600 
    149 H149        0.2157  -19.6671  -43.7659 H         1 UNK         0.3000 
    150 H150       -3.3600  -19.3429  -43.4250 H         1 UNK         0.0600 
    151 H151       -2.3145  -19.5745  -41.1595 H         1 UNK         0.0600 
    152 H152       -2.5719  -17.8919  -41.5947 H         1 UNK         0.0600 
    153 H153       -0.9554  -18.5868  -41.6839 H         1 UNK         0.0600 
    154 H154       -1.4138  -17.3363  -43.7954 H         1 UNK         0.3000 
    155 H155       -1.5072  -17.2759  -47.4062 H         1 UNK         0.0600 
    156 H156       -3.4060  -15.9479  -46.3984 H         1 UNK         0.0600 
    157 H157       -2.2998  -15.3358  -45.1757 H         1 UNK         0.0600 
    158 H158       -2.0530  -14.9425  -46.8740 H         1 UNK         0.0600 
    159 H159        0.1042  -15.7498  -45.6917 H         1 UNK         0.3000 
    160 H160        2.8546  -18.0573  -45.3617 H         1 UNK         0.0600 
    161 H161        2.5966  -15.2641  -46.5514 H         1 UNK         0.0600 
    162 H162        2.9619  -16.6843  -47.5255 H         1 UNK         0.0600 
    163 H163        4.0647  -16.1962  -46.2598 H         1 UNK         0.0600 
    164 H164        2.2983  -15.4735  -44.2002 H         1 UNK         0.3000 
    165 H165        0.9539  -16.7445  -41.1385 H         1 UNK         0.0600 
    166 H166        2.8307  -15.3682  -40.2710 H         1 UNK         0.0600 
    167 H167        3.4344  -16.8822  -40.9261 H         1 UNK         0.0600 
    168 H168        3.6146  -15.3977  -41.8527 H         1 UNK         0.0600 
    169 H169        1.5255  -14.1066  -42.1556 H         1 UNK         0.3000 
    170 H170       -0.4932  -13.0560  -43.6975 H         1 UNK         0.0600 
    171 H171       -2.7999  -13.5324  -41.7352 H         1 UNK         0.0600 
    172 H172       -2.6921  -12.1861  -42.8691 H         1 UNK         0.0600 
    173 H173       -2.8383  -13.8292  -43.4643 H         1 UNK         0.0600 
    174 H174        0.3718  -11.6842  -42.2179 H         1 UNK         0.3000 
    175 H175        0.1181  -10.3079  -40.0372 H         1 UNK         0.0600 
    176 H176        1.0289  -10.5638  -37.7386 H         1 UNK         0.0600 
    177 H177        0.8560  -12.3156  -37.8425 H         1 UNK         0.0600 
    178 H178       -0.5685  -11.2814  -37.8592 H         1 UNK         0.0600 
    179 H179        2.5445  -11.8900  -39.5604 H         1 UNK         0.3000 
    180 H180        4.4796  -10.2154  -41.3249 H         1 UNK         0.0600 
    181 H181        3.9749  -13.2067  -40.8834 H         1 UNK         0.0600 
    182 H182        4.5158  -12.0429  -39.6738 H         1 UNK         0.0600 
    183 H183        5.5650  -12.4673  -41.0088 H         1 UNK         0.0600 
    184 H184        4.9158  -10.7920  -43.4095 H         1 UNK         0.3000 
    185 H185        4.6586  -11.4405  -45.4764 H         1 UNK         0.0600 
    186 H186        6.0331  -13.3316  -44.7212 H         1 UNK         0.0600 
    187 H187        4.7121  -14.4638  -44.9362 H         1 UNK         0.0600 
    188 H188        5.4754  -13.7156  -46.3409 H         1 UNK         0.0600 
    189 H189        2.1519  -12.8249  -45.7485 H         1 UNK         0.3000 
    190 H190       -2.5744  -20.9909  -46.4797 H         1 UNK         0.3000 
    191 H191       -4.7413  -22.2655  -47.8965 H         1 UNK         0.0600 
    192 H192       -4.6455  -20.8845  -45.1693 H         1 UNK         0.0600 
    193 H193       -6.1131  -21.3709  -46.0102 H         1 UNK         0.0600 
    194 H194       -5.0755  -20.1393  -46.7094 H         1 UNK         0.0600 
    195 H195       -2.8069  -23.1017  -45.0334 H         1 UNK         0.3000 
    196 H196       -4.4205  -25.3425  -44.2064 H         1 UNK         0.0600 
    197 H197       -2.4939  -25.7587  -42.6718 H         1 UNK         0.0600 
    198 H198       -2.9894  -24.0749  -42.6301 H         1 UNK         0.0600 
    199 H199       -1.5424  -24.5456  -43.5198 H         1 UNK         0.0600 
    200 H200       -2.2208  -24.9903  -46.8069 H         1 UNK         0.3000 
    201 H201       -1.0389  -27.5850  -46.9118 H         1 UNK         0.0600 
    202 H202       -0.1965  -25.5607  -48.1582 H         1 UNK         0.0600 
    203 H203       -1.6267  -25.6127  -49.1876 H         1 UNK         0.0600 
    204 H204       -0.4632  -26.9271  -49.2313 H         1 UNK         0.0600 
    205 H205       -1.5431  -29.3746  -48.2421 H         1 UNK         0.3000 
    206 H206       -4.3856  -29.9510  -48.6141 H         1 UNK         0.0600 
    207 H207       -2.8804  -31.6292  -47.5985 H         1 UNK         0.0600 
    208 H208       -3.5212  -32.2312  -49.1182 H         1 UNK         0.0600 
    209 H209       -1.8649  -31.6406  -49.0396 H         1 UNK         0.0600 
    210 H210       -4.4782  -28.0895  -50.2186 H         1 UNK         0.3000 
    211 H211       -4.5093  -29.1869  -52.9011 H         1 UNK         0.0600 
    212 H212       -2.5002  -27.0182  -52.2323 H         1 UNK         0.0600 
    213 H213       -3.2319  -27.1107  -53.8353 H         1 UNK         0.0600 
    214 H214       -2.3108  -28.4632  -53.2018 H         1 UNK         0.0600 
    215 H215       -6.5793  -25.7718  -51.9586 H         1 UNK         0.3000 
    216 H216       -4.0234  -26.1426  -50.5421 H         1 UNK         0.0600 
    217 H217       -6.0317  -25.3138  -49.3059 H         1 UNK         0.0600 
    218 H218       -4.7719  -24.1011  -49.3726 H         1 UNK         0.0600 
    219 H219       -6.1720  -23.9585  -50.4285 H         1 UNK         0.0600 
    220 H220       -2.4189  -24.4591  -50.6359 H         1 UNK         0.3000 
    221 H221       -1.7593  -23.7863  -53.3665 H         1 UNK         0.0600 
    222 H222       -0.3581  -23.2314  -50.7004 H         1 UNK         0.0600 
    223 H223       -0.0213  -24.5512  -51.8143 H         1 UNK         0.0600 
    224 H224        0.3344  -22.8950  -52.2817 H         1 UNK         0.0600 
    225 H225       -3.0968  -22.0209  -50.6216 H         1 UNK         0.3000 
    226 H226       -2.5710  -19.3688  -51.4957 H         1 UNK         0.0600 
    227 H227       -3.2149  -19.8223  -49.1838 H         1 UNK         0.0600 
    228 H228       -4.4211  -18.7684  -49.8885 H         1 UNK         0.0600 
    229 H229       -4.7749  -20.4796  -49.6861 H         1 UNK         0.0600 
    230 H230       -5.0383  -21.6608  -52.4869 H         1 UNK         0.3000 
    231 H231       -6.8582  -19.7810  -53.6935 H         1 UNK         0.0600 
    232 H232       -7.9410  -21.8443  -54.5531 H         1 UNK         0.0600 
    233 H233       -7.5612  -22.0229  -52.8478 H         1 UNK         0.0600 
    234 H234       -6.5551  -22.8094  -54.0647 H         1 UNK         0.0600 
    235 H235       -3.7986  -21.0242  -54.7438 H         1 UNK         0.3000 
    236 H236       -4.3086  -20.9662  -57.5985 H         1 UNK         0.0600 
    237 H237       -2.5333  -22.3922  -56.5304 H         1 UNK         0.0600 
    238 H238       -1.8794  -21.3241  -57.7635 H         1 UNK         0.0600 
    239 H239       -1.6563  -20.9336  -56.0652 H         1 UNK         0.0600 
    240 H240       -3.5873  -18.5492  -55.2033 H         1 UNK         0.3000 
    241 H241       -2.5506  -16.5802  -57.1531 H         1 UNK         0.0600 
    242 H242       -3.6857  -14.6194  -57.6789 H         1 UNK         0.3800 
    243 H243       -5.3659  -14.4164  -57.2739 H         1 UNK         0.3800 
    244 H244       -2.2365  -15.1365  -55.1110 H         1 UNK         0.0800 
    245 H245       -2.8403  -16.4314  -54.1104 H         1 UNK         0.0800 
    246 H246       -1.8194  -18.5507  -53.6977 H         1 UNK         0.0800 
    247 H247       -0.2189  -19.0799  -54.1220 H         1 UNK         0.0800 
@<TRIPOS>BOND
     1    1    2 1    
     2    1  127 1    
     3    1  128 1    
     4    1  129 1    
     5    2    3 2    
     6    2    4 am   BACKBONE|DICT|INTERRES
     7    4    5 1    
     8    4  130 1    
     9    5    6 1    
    10    5   65 1    
    11    5  131 1    
    12    6    7 1    
    13    6  132 1    
    14    6  133 1    
    15    7    8 1    
    16    8    9 1    
    17    8  134 1    
    18    8  135 1    
    19    9   10 ar   
    20    9   14 ar   
    21   10   11 ar   
    22   10  136 1    
    23   11   12 ar   
    24   11  126 1    
    25   12   13 ar   
    26   12  137 1    
    27   13   14 ar   
    28   13   15 1    
    29   14  138 1    
    30   15   16 1    
    31   15  139 1    
    32   15  140 1    
    33   16   17 1    
    34   17   18 1    
    35   17  141 1    
    36   17  142 1    
    37   18   19 1    
    38   18   67 1    
    39   18  143 1    
    40   19   20 am   BACKBONE|DICT|INTERRES
    41   19  144 1    
    42   20   21 2    
    43   20   22 1    
    44   22   23 1    
    45   22   24 1    
    46   22  145 1    
    47   23  146 1    
    48   23  147 1    
    49   23  148 1    
    50   24   25 am   BACKBONE|DICT|INTERRES
    51   24  149 1    
    52   25   26 2    
    53   25   27 1    
    54   27   28 1    
    55   27   29 1    
    56   27  150 1    
    57   28  151 1    
    58   28  152 1    
    59   28  153 1    
    60   29   30 am   BACKBONE|DICT|INTERRES
    61   29  154 1    
    62   30   31 2    
    63   30   32 1    
    64   32   33 1    
    65   32   34 1    
    66   32  155 1    
    67   33  156 1    
    68   33  157 1    
    69   33  158 1    
    70   34   35 am   BACKBONE|DICT|INTERRES
    71   34  159 1    
    72   35   36 2    
    73   35   37 1    
    74   37   38 1    
    75   37   39 1    
    76   37  160 1    
    77   38  161 1    
    78   38  162 1    
    79   38  163 1    
    80   39   40 am   BACKBONE|DICT|INTERRES
    81   39  164 1    
    82   40   41 2    
    83   40   42 1    
    84   42   43 1    
    85   42   44 1    
    86   42  165 1    
    87   43  166 1    
    88   43  167 1    
    89   43  168 1    
    90   44   45 am   BACKBONE|DICT|INTERRES
    91   44  169 1    
    92   45   46 2    
    93   45   47 1    
    94   47   48 1    
    95   47   49 1    
    96   47  170 1    
    97   48  171 1    
    98   48  172 1    
    99   48  173 1    
   100   49   50 am   BACKBONE|DICT|INTERRES
   101   49  174 1    
   102   50   51 2    
   103   50   52 1    
   104   52   53 1    
   105   52   54 1    
   106   52  175 1    
   107   53  176 1    
   108   53  177 1    
   109   53  178 1    
   110   54   55 am   BACKBONE|DICT|INTERRES
   111   54  179 1    
   112   55   56 2    
   113   55   57 1    
   114   57   58 1    
   115   57   59 1    
   116   57  180 1    
   117   58  181 1    
   118   58  182 1    
   119   58  183 1    
   120   59   60 am   BACKBONE|DICT|INTERRES
   121   59  184 1    
   122   60   61 2    
   123   60   62 1    
   124   62   63 1    
   125   62   64 1    
   126   62  185 1    
   127   63  186 1    
   128   63  187 1    
   129   63  188 1    
   130   64   65 am   BACKBONE|DICT|INTERRES
   131   64  189 1    
   132   65   66 2    
   133   67   68 2    
   134   67   69 am   BACKBONE|DICT|INTERRES
   135   69   70 1    
   136   69  190 1    
   137   70   71 1    
   138   70   72 1    
   139   70  191 1    
   140   71  192 1    
   141   71  193 1    
   142   71  194 1    
   143   72   73 2    
   144   72   74 am   BACKBONE|DICT|INTERRES
   145   74   75 1    
   146   74  195 1    
   147   75   76 1    
   148   75   77 1    
   149   75  196 1    
   150   76  197 1    
   151   76  198 1    
   152   76  199 1    
   153   77   78 2    
   154   77   79 am   BACKBONE|DICT|INTERRES
   155   79   80 1    
   156   79  200 1    
   157   80   81 1    
   158   80   82 1    
   159   80  201 1    
   160   81  202 1    
   161   81  203 1    
   162   81  204 1    
   163   82   83 2    
   164   82   84 am   BACKBONE|DICT|INTERRES
   165   84   85 1    
   166   84  205 1    
   167   85   86 1    
   168   85   87 1    
   169   85  206 1    
   170   86  207 1    
   171   86  208 1    
   172   86  209 1    
   173   87   88 2    
   174   87   89 am   BACKBONE|DICT|INTERRES
   175   89   90 1    
   176   89  210 1    
   177   90   91 1    
   178   90   92 1    
   179   90  211 1    
   180   91  212 1    
   181   91  213 1    
   182   91  214 1    
   183   92   93 2    
   184   92   94 am   BACKBONE|DICT|INTERRES
   185   94   95 1    
   186   94  215 1    
   187   95   96 1    
   188   95   97 1    
   189   95  216 1    
   190   96  217 1    
   191   96  218 1    
   192   96  219 1    
   193   97   98 2    
   194   97   99 am   BACKBONE|DICT|INTERRES
   195   99  100 1    
   196   99  220 1    
   197  100  101 1    
   198  100  102 1    
   199  100  221 1    
   200  101  222 1    
   201  101  223 1    
   202  101  224 1    
   203  102  103 2    
   204  102  104 am   BACKBONE|DICT|INTERRES
   205  104  105 1    
   206  104  225 1    
   207  105  106 1    
   208  105  107 1    
   209  105  226 1    
   210  106  227 1    
   211  106  228 1    
   212  106  229 1    
   213  107  108 2    
   214  107  109 am   BACKBONE|DICT|INTERRES
   215  109  110 1    
   216  109  230 1    
   217  110  111 1    
   218  110  112 1    
   219  110  231 1    
   220  111  232 1    
   221  111  233 1    
   222  111  234 1    
   223  112  113 2    
   224  112  114 am   BACKBONE|DICT|INTERRES
   225  114  115 1    
   226  114  235 1    
   227  115  116 1    
   228  115  117 1    
   229  115  236 1    
   230  116  237 1    
   231  116  238 1    
   232  116  239 1    
   233  117  118 2    
   234  117  119 am   BACKBONE|DICT|INTERRES
   235  119  120 1    
   236  119  240 1    
   237  120  121 1    
   238  120  124 1    
   239  120  241 1    
   240  121  122 am   BACKBONE|DICT|INTERRES
   241  121  123 2    
   242  122  242 1    
   243  122  243 1    
   244  124  125 1    
   245  124  244 1    
   246  124  245 1    
   247  125  126 1    
   248  126  246 1    
   249  126  247 1    
@<TRIPOS>SUBSTRUCTURE
     1 UNK         1 GROUP             0       ****    0 ROOT    
