@<TRIPOS>MOLECULE
3R540
247   249    1
SMALL
USER_CHARGES


@<TRIPOS>ATOM
      1 CA         -1.0864  -12.9554  -52.4760 C.3       0 UNK        -0.1800 
      2 C          -0.8641  -12.6637  -50.9984 C.2       0 UNK         0.5000 
      3 O          -1.1927  -11.5729  -50.5306 O.2       0 UNK        -0.5000 
      4 N          -0.2989  -13.6303  -50.2678 N.am      1 UNK        -0.5000 
      5 CA         -0.0811  -13.5825  -48.8197 C.3       1 UNK         0.1400 
      6 C6          0.9620  -14.6310  -48.3437 C.3       23 UNK        -0.0398 
      7 S7          0.7987  -16.2890  -49.1026 S.3       23 UNK        -0.2404 
      8 C8          2.2865  -16.2916  -50.1539 C.3       23 UNK        -0.0205 
      9 C9          2.4207  -17.5686  -50.9681 C.ar      23 UNK        -0.0193 
     10 C10         2.3691  -17.5291  -52.3644 C.ar      23 UNK        -0.1150 
     11 C11         2.5410  -18.6967  -53.1142 C.ar      23 UNK        -0.0193 
     12 C12         2.7637  -19.9071  -52.4508 C.ar      23 UNK        -0.1150 
     13 C13         2.8191  -19.9679  -51.0555 C.ar      23 UNK        -0.0193 
     14 C14         2.6489  -18.7859  -50.3221 C.ar      23 UNK        -0.1150 
     15 C15         3.1034  -21.3248  -50.4064 C.3       23 UNK        -0.0205 
     16 S16         3.0405  -21.3695  -48.5824 S.3       23 UNK        -0.2404 
     17 C17         1.2425  -21.3524  -48.2719 C.3       23 UNK        -0.0398 
     18 CA          0.7817  -22.6655  -47.5953 C.3       11 UNK         0.1400 
     19 N           1.3618  -22.7997  -46.2589 N.am      11 UNK        -0.5000 
     20 C           1.9438  -23.8915  -45.7532 C.2       10 UNK         0.5000 
     21 O           2.0532  -24.9557  -46.3657 O.2       10 UNK        -0.5000 
     22 CA          2.4970  -23.7517  -44.3174 C.3       10 UNK         0.1400 
     23 CB          3.3636  -24.9471  -43.8691 C.3       10 UNK        -0.1800 
     24 N           3.1950  -22.4776  -44.1115 N.am      10 UNK        -0.5000 
     25 C           4.3222  -22.0438  -44.6952 C.2       9 UNK         0.5000 
     26 O           5.0250  -22.7333  -45.4348 O.2       9 UNK        -0.5000 
     27 CA          4.7390  -20.5826  -44.4151 C.3       9 UNK         0.1400 
     28 CB          4.4531  -19.6975  -45.6379 C.3       9 UNK        -0.1800 
     29 N           4.0758  -19.9920  -43.2499 N.am      9 UNK        -0.5000 
     30 C           4.3875  -20.2546  -41.9736 C.2       8 UNK         0.5000 
     31 O           5.3089  -20.9973  -41.6330 O.2       8 UNK        -0.5000 
     32 CA          3.4997  -19.5993  -40.8971 C.3       8 UNK         0.1400 
     33 CB          3.9845  -18.1788  -40.5694 C.3       8 UNK        -0.1800 
     34 N           2.0891  -19.5570  -41.2869 N.am      8 UNK        -0.5000 
     35 C           1.3058  -20.6393  -41.3984 C.2       7 UNK         0.5000 
     36 O           1.6739  -21.7823  -41.1272 O.2       7 UNK        -0.5000 
     37 CA         -0.1126  -20.4165  -41.9496 C.3       7 UNK         0.1400 
     38 CB         -1.0723  -19.9968  -40.8263 C.3       7 UNK        -0.1800 
     39 N          -0.1506  -19.4320  -43.0330 N.am      7 UNK        -0.5000 
     40 C           0.4414  -19.5950  -44.2248 C.2       6 UNK         0.5000 
     41 O           1.0457  -20.6136  -44.5469 O.2       6 UNK        -0.5000 
     42 CA          0.3955  -18.4185  -45.2124 C.3       6 UNK         0.1400 
     43 CB         -0.9082  -18.4393  -46.0121 C.3       6 UNK        -0.1800 
     44 N           0.5440  -17.1235  -44.5578 N.am      6 UNK        -0.5000 
     45 C           1.6290  -16.7312  -43.8785 C.2       5 UNK         0.5000 
     46 O           2.6502  -17.4094  -43.7666 O.2       5 UNK        -0.5000 
     47 CA          1.5241  -15.3788  -43.1557 C.3       5 UNK         0.1400 
     48 CB          1.7732  -14.2119  -44.1237 C.3       5 UNK        -0.1800 
     49 N           0.2180  -15.2165  -42.5161 N.am      5 UNK        -0.5000 
     50 C          -0.1757  -15.8889  -41.4256 C.2       4 UNK         0.5000 
     51 O           0.5445  -16.6787  -40.8136 O.2       4 UNK        -0.5000 
     52 CA         -1.6276  -15.6615  -40.9625 C.3       4 UNK         0.1400 
     53 CB         -1.7295  -14.3923  -40.1035 C.3       4 UNK        -0.1800 
     54 N          -2.5733  -15.5691  -42.0781 N.am      4 UNK        -0.5000 
     55 C          -2.9024  -16.5978  -42.8719 C.2       3 UNK         0.5000 
     56 O          -2.4552  -17.7338  -42.7314 O.2       3 UNK        -0.5000 
     57 CA         -3.8543  -16.3054  -44.0481 C.3       3 UNK         0.1400 
     58 CB         -5.3185  -16.4522  -43.6096 C.3       3 UNK        -0.1800 
     59 N          -3.6577  -14.9934  -44.6724 N.am      3 UNK        -0.5000 
     60 C          -2.5079  -14.5737  -45.2156 C.2       2 UNK         0.5000 
     61 O          -1.4541  -15.2119  -45.1627 O.2       2 UNK        -0.5000 
     62 CA         -2.5252  -13.1873  -45.8828 C.3       2 UNK         0.1400 
     63 CB         -2.3551  -12.0879  -44.8226 C.3       2 UNK        -0.1800 
     64 N          -1.4484  -13.0608  -46.8642 N.am      2 UNK        -0.5000 
     65 C          -1.4060  -13.7047  -48.0381 C.2       1 UNK         0.5000 
     66 O          -2.3373  -14.3781  -48.4872 O.2       1 UNK        -0.5000 
     67 C          -0.7548  -22.7213  -47.4981 C.2       11 UNK         0.5000 
     68 O          -1.3264  -22.3721  -46.4614 O.2       11 UNK        -0.5000 
     69 N          -1.4007  -23.1379  -48.5985 N.am      12 UNK        -0.5000 
     70 CA         -2.8438  -23.3933  -48.6998 C.3       12 UNK         0.1400 
     71 CB         -3.1664  -23.9350  -50.1004 C.3       12 UNK        -0.1800 
     72 C          -3.7457  -22.1869  -48.3820 C.2       12 UNK         0.5000 
     73 O          -4.8659  -22.3844  -47.9084 O.2       12 UNK        -0.5000 
     74 N          -3.2317  -20.9649  -48.5881 N.am      13 UNK        -0.5000 
     75 CA         -3.9158  -19.6938  -48.3238 C.3       13 UNK         0.1400 
     76 CB         -3.0468  -18.5246  -48.8202 C.3       13 UNK        -0.1800 
     77 C          -4.3594  -19.4887  -46.8605 C.2       13 UNK         0.5000 
     78 O          -5.2274  -18.6544  -46.6070 O.2       13 UNK        -0.5000 
     79 N          -3.8029  -20.2837  -45.9360 N.am      14 UNK        -0.5000 
     80 CA         -4.2159  -20.3777  -44.5379 C.3       14 UNK         0.1400 
     81 CB         -3.2447  -21.3174  -43.8118 C.3       14 UNK        -0.1800 
     82 C          -5.6634  -20.8747  -44.3453 C.2       14 UNK         0.5000 
     83 O          -6.2782  -20.5317  -43.3348 O.2       14 UNK        -0.5000 
     84 N          -6.1729  -21.6751  -45.2938 N.am      15 UNK        -0.5000 
     85 CA         -7.5029  -22.2850  -45.2342 C.3       15 UNK         0.1400 
     86 CB         -7.3562  -23.7820  -44.9170 C.3       15 UNK        -0.1800 
     87 C          -8.3010  -22.0851  -46.5322 C.2       15 UNK         0.5000 
     88 O          -9.5091  -21.8565  -46.4652 O.2       15 UNK        -0.5000 
     89 N          -7.6310  -22.1747  -47.6885 N.am      16 UNK        -0.5000 
     90 CA         -8.2497  -22.1012  -49.0142 C.3       16 UNK         0.1400 
     91 CB         -7.4337  -22.9736  -49.9831 C.3       16 UNK        -0.1800 
     92 C          -8.3649  -20.6640  -49.5558 C.2       16 UNK         0.5000 
     93 O          -8.9392  -20.4786  -50.6297 O.2       16 UNK        -0.5000 
     94 N          -7.7925  -19.6830  -48.8405 N.am      17 UNK        -0.5000 
     95 CA         -7.6594  -18.2542  -49.1668 C.3       17 UNK         0.1400 
     96 CB         -9.0289  -17.5792  -49.3722 C.3       17 UNK        -0.1800 
     97 C          -6.7054  -17.9729  -50.3458 C.2       17 UNK         0.5000 
     98 O          -5.8425  -17.1033  -50.2298 O.2       17 UNK        -0.5000 
     99 N          -6.8409  -18.7342  -51.4364 N.am      18 UNK        -0.5000 
    100 CA        -5.8765  -18.8152  -52.5281 C.3       18 UNK         0.1400 
    101 CB        -6.5778  -19.3785  -53.7731 C.3       18 UNK        -0.1800 
    102 C         -4.7011  -19.7191  -52.1192 C.2       18 UNK         0.5000 
    103 O         -4.9138  -20.7348  -51.4549 O.2       18 UNK        -0.5000 
    104 N         -3.4858  -19.3517  -52.5421 N.am      19 UNK        -0.5000 
    105 CA        -2.2450  -20.0622  -52.2128 C.3       19 UNK         0.1400 
    106 CB        -1.0635  -19.0988  -52.3815 C.3       19 UNK        -0.1800 
    107 C         -2.0250  -21.3599  -53.0160 C.2       19 UNK         0.5000 
    108 O         -1.0911  -22.1016  -52.7083 O.2       19 UNK        -0.5000 
    109 N         -2.8780  -21.6106  -54.0205 N.am      20 UNK        -0.5000 
    110 CA        -2.9722  -22.7905  -54.8912 C.3       20 UNK         0.1400 
    111 CB        -3.1951  -24.0790  -54.0757 C.3       20 UNK        -0.1800 
    112 C         -1.8045  -22.9456  -55.8837 C.2       20 UNK         0.5000 
    113 O         -2.0487  -23.1405  -57.0745 O.2       20 UNK        -0.5000 
    114 N         -0.5653  -22.8161  -55.3965 N.am      21 UNK        -0.5000 
    115 CA         0.6725  -22.8957  -56.1785 C.3       21 UNK         0.1400 
    116 CB         1.8561  -23.0151  -55.2080 C.3       21 UNK        -0.1800 
    117 C          0.8803  -21.7060  -57.1393 C.2       21 UNK         0.5000 
    118 O          1.6454  -21.8257  -58.0969 O.2       21 UNK        -0.5000 
    119 N          0.1967  -20.5907  -56.8681 N.am      22 UNK        -0.5000 
    120 CA         0.2082  -19.3478  -57.6534 C.3       22 UNK         0.1400 
    121 C         -1.2191  -18.7677  -57.8821 C.2       22 UNK         0.5000 
    122 N         -2.2805  -19.5507  -57.7211 N.am      22 UNK        -0.7600 
    123 O         -1.3750  -17.6018  -58.2348 O.2       22 UNK        -0.5000 
    124 C124        1.2287  -18.3154  -57.0994 C.3       23 UNK        -0.0398 
    125 S125        1.0111  -17.9387  -55.3233 S.3       23 UNK        -0.2404 
    126 C126        2.5394  -18.6527  -54.6373 C.3       23 UNK        -0.0205 
    127 H127       -0.7337  -13.9501  -52.7505 H         1 UNK         0.0600 
    128 H128       -0.5550  -12.2259  -53.0872 H         1 UNK         0.0600 
    129 H129       -2.1482  -12.8936  -52.7148 H         1 UNK         0.0600 
    130 H130       -0.0944  -14.5229  -50.6938 H         1 UNK         0.3000 
    131 H131        0.3302  -12.5963  -48.5920 H         1 UNK         0.0600 
    132 H132        1.9609  -14.2462  -48.5523 H         1 UNK         0.0800 
    133 H133        0.9328  -14.7529  -47.2595 H         1 UNK         0.0800 
    134 H134        2.2631  -15.4204  -50.8104 H         1 UNK         0.0800 
    135 H135        3.1713  -16.1819  -49.5251 H         1 UNK         0.0800 
    136 H136        2.2096  -16.5886  -52.8726 H         1 UNK         0.1150 
    137 H137        2.9173  -20.8101  -53.0225 H         1 UNK         0.1150 
    138 H138        2.7028  -18.7897  -49.2437 H         1 UNK         0.1150 
    139 H139        2.4127  -22.0704  -50.8036 H         1 UNK         0.0800 
    140 H140        4.1021  -21.6408  -50.7106 H         1 UNK         0.0800 
    141 H141        0.7187  -21.1905  -49.2158 H         1 UNK         0.0800 
    142 H142        1.0116  -20.4904  -47.6442 H         1 UNK         0.0800 
    143 H143        1.1015  -23.5025  -48.2199 H         1 UNK         0.0600 
    144 H144        1.2591  -21.9868  -45.6528 H         1 UNK         0.3000 
    145 H145        1.6249  -23.7200  -43.6626 H         1 UNK         0.0600 
    146 H146        3.7279  -24.8088  -42.8511 H         1 UNK         0.0600 
    147 H147        2.7866  -25.8722  -43.8844 H         1 UNK         0.0600 
    148 H148        4.2270  -25.0922  -44.5186 H         1 UNK         0.0600 
    149 H149        2.6746  -21.7923  -43.5793 H         1 UNK         0.3000 
    150 H150        5.8164  -20.5774  -44.2378 H         1 UNK         0.0600 
    151 H151        4.9899  -20.0590  -46.5157 H         1 UNK         0.0600 
    152 H152        4.7677  -18.6681  -45.4654 H         1 UNK         0.0600 
    153 H153        3.3913  -19.6867  -45.8843 H         1 UNK         0.0600 
    154 H154        3.3459  -19.3129  -43.4394 H         1 UNK         0.3000 
    155 H155        3.5810  -20.2003  -39.9889 H         1 UNK         0.0600 
    156 H156        5.0201  -18.1905  -40.2274 H         1 UNK         0.0600 
    157 H157        3.3844  -17.7307  -39.7771 H         1 UNK         0.0600 
    158 H158        3.9342  -17.5218  -41.4376 H         1 UNK         0.0600 
    159 H159        1.7031  -18.6503  -41.5176 H         1 UNK         0.3000 
    160 H160       -0.4588  -21.3709  -42.3513 H         1 UNK         0.0600 
    161 H161       -0.8053  -19.0256  -40.4094 H         1 UNK         0.0600 
    162 H162       -1.0595  -20.7201  -40.0102 H         1 UNK         0.0600 
    163 H163       -2.0988  -19.9342  -41.1864 H         1 UNK         0.0600 
    164 H164       -0.7116  -18.6012  -42.8717 H         1 UNK         0.3000 
    165 H165        1.2254  -18.5328  -45.9124 H         1 UNK         0.0600 
    166 H166       -0.9321  -17.6305  -46.7424 H         1 UNK         0.0600 
    167 H167       -1.0166  -19.3820  -46.5487 H         1 UNK         0.0600 
    168 H168       -1.7750  -18.3292  -45.3626 H         1 UNK         0.0600 
    169 H169       -0.2386  -16.4781  -44.6419 H         1 UNK         0.3000 
    170 H170        2.2961  -15.3515  -42.3836 H         1 UNK         0.0600 
    171 H171        2.7373  -14.3178  -44.6226 H         1 UNK         0.0600 
    172 H172        1.0074  -14.1553  -44.8968 H         1 UNK         0.0600 
    173 H173        1.7837  -13.2589  -43.5946 H         1 UNK         0.0600 
    174 H174       -0.4548  -14.6396  -42.9990 H         1 UNK         0.3000 
    175 H175       -1.9144  -16.5146  -40.3436 H         1 UNK         0.0600 
    176 H176       -1.0466  -14.4404  -39.2542 H         1 UNK         0.0600 
    177 H177       -1.4811  -13.4966  -40.6743 H         1 UNK         0.0600 
    178 H178       -2.7357  -14.2673  -39.7031 H         1 UNK         0.0600 
    179 H179       -2.9823  -14.6651  -42.2624 H         1 UNK         0.3000 
    180 H180       -3.6605  -17.0554  -44.8163 H         1 UNK         0.0600 
    181 H181       -5.4936  -17.4254  -43.1485 H         1 UNK         0.0600 
    182 H182       -5.6015  -15.6886  -42.8842 H         1 UNK         0.0600 
    183 H183       -5.9933  -16.3761  -44.4625 H         1 UNK         0.0600 
    184 H184       -4.4738  -14.4023  -44.7371 H         1 UNK         0.3000 
    185 H185       -3.4820  -13.0508  -46.3912 H         1 UNK         0.0600 
    186 H186       -3.1589  -12.1230  -44.0861 H         1 UNK         0.0600 
    187 H187       -1.4118  -12.1891  -44.2839 H         1 UNK         0.0600 
    188 H188       -2.3774  -11.0966  -45.2759 H         1 UNK         0.0600 
    189 H189       -0.6372  -12.5424  -46.5618 H         1 UNK         0.3000 
    190 H190       -0.8579  -23.3900  -49.4124 H         1 UNK         0.3000 
    191 H191       -3.0850  -24.1705  -47.9718 H         1 UNK         0.0600 
    192 H192       -2.9413  -23.2027  -50.8752 H         1 UNK         0.0600 
    193 H193       -4.2248  -24.1847  -50.1889 H         1 UNK         0.0600 
    194 H194       -2.6009  -24.8411  -50.3180 H         1 UNK         0.0600 
    195 H195       -2.2926  -20.9069  -48.9482 H         1 UNK         0.3000 
    196 H196       -4.8342  -19.6999  -48.9110 H         1 UNK         0.0600 
    197 H197       -3.3671  -17.5720  -48.3945 H         1 UNK         0.0600 
    198 H198       -3.1181  -18.4172  -49.9005 H         1 UNK         0.0600 
    199 H199       -1.9944  -18.6582  -48.5776 H         1 UNK         0.0600 
    200 H200       -3.0947  -20.9438  -46.2340 H         1 UNK         0.3000 
    201 H201       -4.1382  -19.3845  -44.0949 H         1 UNK         0.0600 
    202 H202       -3.4441  -21.3374  -42.7400 H         1 UNK         0.0600 
    203 H203       -3.3212  -22.3404  -44.1829 H         1 UNK         0.0600 
    204 H204       -2.2151  -20.9956  -43.9512 H         1 UNK         0.0600 
    205 H205       -5.6013  -21.8985  -46.1014 H         1 UNK         0.3000 
    206 H206       -8.0934  -21.8294  -44.4367 H         1 UNK         0.0600 
    207 H207       -6.8726  -23.9330  -43.9517 H         1 UNK         0.0600 
    208 H208       -8.3302  -24.2710  -44.8727 H         1 UNK         0.0600 
    209 H209       -6.7621  -24.2969  -45.6731 H         1 UNK         0.0600 
    210 H210       -6.6287  -22.3539  -47.6850 H         1 UNK         0.3000 
    211 H211       -9.2604  -22.5117  -48.9652 H         1 UNK         0.0600 
    212 H212       -7.9060  -23.0177  -50.9652 H         1 UNK         0.0600 
    213 H213       -7.3478  -23.9972  -49.6184 H         1 UNK         0.0600 
    214 H214       -6.4259  -22.5828  -50.1252 H         1 UNK         0.0600 
    215 H215       -7.3425  -19.9624  -47.9806 H         1 UNK         0.3000 
    216 H216       -7.2068  -17.7965  -48.2859 H         1 UNK         0.0600 
    217 H217       -8.9139  -16.5005  -49.4845 H         1 UNK         0.0600 
    218 H218       -9.6838  -17.7492  -48.5176 H         1 UNK         0.0600 
    219 H219       -9.5387  -17.9435  -50.2642 H         1 UNK         0.0600 
    220 H220       -7.5660  -19.4456  -51.4148 H         1 UNK         0.3000 
    221 H221       -5.5047  -17.8138  -52.7552 H         1 UNK         0.0600 
    222 H222       -6.9653  -20.3831  -53.5966 H         1 UNK         0.0600 
    223 H223       -7.4135  -18.7462  -54.0736 H         1 UNK         0.0600 
    224 H224       -5.8915  -19.4335  -54.6189 H         1 UNK         0.0600 
    225 H225       -3.3878  -18.5109  -53.0934 H         1 UNK         0.3000 
    226 H226       -2.2826  -20.3573  -51.1637 H         1 UNK         0.0600 
    227 H227       -0.1191  -19.5887  -52.1434 H         1 UNK         0.0600 
    228 H228       -0.9968  -18.7284  -53.4033 H         1 UNK         0.0600 
    229 H229       -1.1530  -18.2388  -51.7172 H         1 UNK         0.0600 
    230 H230       -3.5824  -20.9074  -54.1884 H         1 UNK         0.3000 
    231 H231       -3.8696  -22.6340  -55.4921 H         1 UNK         0.0600 
    232 H232       -4.0570  -23.9823  -53.4151 H         1 UNK         0.0600 
    233 H233       -2.3305  -24.3322  -53.4617 H         1 UNK         0.0600 
    234 H234       -3.3835  -24.9273  -54.7348 H         1 UNK         0.0600 
    235 H235       -0.4753  -22.6422  -54.3983 H         1 UNK         0.3000 
    236 H236        0.6334  -23.8021  -56.7860 H         1 UNK         0.0600 
    237 H237        1.7712  -23.9091  -54.5900 H         1 UNK         0.0600 
    238 H238        2.8032  -23.0792  -55.7454 H         1 UNK         0.0600 
    239 H239        1.9095  -22.1533  -54.5443 H         1 UNK         0.0600 
    240 H240       -0.3921  -20.5777  -56.0488 H         1 UNK         0.3000 
    241 H241        0.5361  -19.5923  -58.6652 H         1 UNK         0.0600 
    242 H242       -2.1720  -20.5352  -57.5348 H         1 UNK         0.3800 
    243 H243       -3.1991  -19.1701  -57.8864 H         1 UNK         0.3800 
    244 H244        2.2382  -18.6933  -57.2650 H         1 UNK         0.0800 
    245 H245        1.1818  -17.3809  -57.6605 H         1 UNK         0.0800 
    246 H246        3.3936  -18.0650  -54.9760 H         1 UNK         0.0800 
    247 H247        2.6707  -19.6564  -55.0448 H         1 UNK         0.0800 
@<TRIPOS>BOND
     1    1    2 1    
     2    1  127 1    
     3    1  128 1    
     4    1  129 1    
     5    2    3 2    
     6    2    4 am   BACKBONE|DICT|INTERRES
     7    4    5 1    
     8    4  130 1    
     9    5    6 1    
    10    5   65 1    
    11    5  131 1    
    12    6    7 1    
    13    6  132 1    
    14    6  133 1    
    15    7    8 1    
    16    8    9 1    
    17    8  134 1    
    18    8  135 1    
    19    9   10 ar   
    20    9   14 ar   
    21   10   11 ar   
    22   10  136 1    
    23   11   12 ar   
    24   11  126 1    
    25   12   13 ar   
    26   12  137 1    
    27   13   14 ar   
    28   13   15 1    
    29   14  138 1    
    30   15   16 1    
    31   15  139 1    
    32   15  140 1    
    33   16   17 1    
    34   17   18 1    
    35   17  141 1    
    36   17  142 1    
    37   18   19 1    
    38   18   67 1    
    39   18  143 1    
    40   19   20 am   BACKBONE|DICT|INTERRES
    41   19  144 1    
    42   20   21 2    
    43   20   22 1    
    44   22   23 1    
    45   22   24 1    
    46   22  145 1    
    47   23  146 1    
    48   23  147 1    
    49   23  148 1    
    50   24   25 am   BACKBONE|DICT|INTERRES
    51   24  149 1    
    52   25   26 2    
    53   25   27 1    
    54   27   28 1    
    55   27   29 1    
    56   27  150 1    
    57   28  151 1    
    58   28  152 1    
    59   28  153 1    
    60   29   30 am   BACKBONE|DICT|INTERRES
    61   29  154 1    
    62   30   31 2    
    63   30   32 1    
    64   32   33 1    
    65   32   34 1    
    66   32  155 1    
    67   33  156 1    
    68   33  157 1    
    69   33  158 1    
    70   34   35 am   BACKBONE|DICT|INTERRES
    71   34  159 1    
    72   35   36 2    
    73   35   37 1    
    74   37   38 1    
    75   37   39 1    
    76   37  160 1    
    77   38  161 1    
    78   38  162 1    
    79   38  163 1    
    80   39   40 am   BACKBONE|DICT|INTERRES
    81   39  164 1    
    82   40   41 2    
    83   40   42 1    
    84   42   43 1    
    85   42   44 1    
    86   42  165 1    
    87   43  166 1    
    88   43  167 1    
    89   43  168 1    
    90   44   45 am   BACKBONE|DICT|INTERRES
    91   44  169 1    
    92   45   46 2    
    93   45   47 1    
    94   47   48 1    
    95   47   49 1    
    96   47  170 1    
    97   48  171 1    
    98   48  172 1    
    99   48  173 1    
   100   49   50 am   BACKBONE|DICT|INTERRES
   101   49  174 1    
   102   50   51 2    
   103   50   52 1    
   104   52   53 1    
   105   52   54 1    
   106   52  175 1    
   107   53  176 1    
   108   53  177 1    
   109   53  178 1    
   110   54   55 am   BACKBONE|DICT|INTERRES
   111   54  179 1    
   112   55   56 2    
   113   55   57 1    
   114   57   58 1    
   115   57   59 1    
   116   57  180 1    
   117   58  181 1    
   118   58  182 1    
   119   58  183 1    
   120   59   60 am   BACKBONE|DICT|INTERRES
   121   59  184 1    
   122   60   61 2    
   123   60   62 1    
   124   62   63 1    
   125   62   64 1    
   126   62  185 1    
   127   63  186 1    
   128   63  187 1    
   129   63  188 1    
   130   64   65 am   BACKBONE|DICT|INTERRES
   131   64  189 1    
   132   65   66 2    
   133   67   68 2    
   134   67   69 am   BACKBONE|DICT|INTERRES
   135   69   70 1    
   136   69  190 1    
   137   70   71 1    
   138   70   72 1    
   139   70  191 1    
   140   71  192 1    
   141   71  193 1    
   142   71  194 1    
   143   72   73 2    
   144   72   74 am   BACKBONE|DICT|INTERRES
   145   74   75 1    
   146   74  195 1    
   147   75   76 1    
   148   75   77 1    
   149   75  196 1    
   150   76  197 1    
   151   76  198 1    
   152   76  199 1    
   153   77   78 2    
   154   77   79 am   BACKBONE|DICT|INTERRES
   155   79   80 1    
   156   79  200 1    
   157   80   81 1    
   158   80   82 1    
   159   80  201 1    
   160   81  202 1    
   161   81  203 1    
   162   81  204 1    
   163   82   83 2    
   164   82   84 am   BACKBONE|DICT|INTERRES
   165   84   85 1    
   166   84  205 1    
   167   85   86 1    
   168   85   87 1    
   169   85  206 1    
   170   86  207 1    
   171   86  208 1    
   172   86  209 1    
   173   87   88 2    
   174   87   89 am   BACKBONE|DICT|INTERRES
   175   89   90 1    
   176   89  210 1    
   177   90   91 1    
   178   90   92 1    
   179   90  211 1    
   180   91  212 1    
   181   91  213 1    
   182   91  214 1    
   183   92   93 2    
   184   92   94 am   BACKBONE|DICT|INTERRES
   185   94   95 1    
   186   94  215 1    
   187   95   96 1    
   188   95   97 1    
   189   95  216 1    
   190   96  217 1    
   191   96  218 1    
   192   96  219 1    
   193   97   98 2    
   194   97   99 am   BACKBONE|DICT|INTERRES
   195   99  100 1    
   196   99  220 1    
   197  100  101 1    
   198  100  102 1    
   199  100  221 1    
   200  101  222 1    
   201  101  223 1    
   202  101  224 1    
   203  102  103 2    
   204  102  104 am   BACKBONE|DICT|INTERRES
   205  104  105 1    
   206  104  225 1    
   207  105  106 1    
   208  105  107 1    
   209  105  226 1    
   210  106  227 1    
   211  106  228 1    
   212  106  229 1    
   213  107  108 2    
   214  107  109 am   BACKBONE|DICT|INTERRES
   215  109  110 1    
   216  109  230 1    
   217  110  111 1    
   218  110  112 1    
   219  110  231 1    
   220  111  232 1    
   221  111  233 1    
   222  111  234 1    
   223  112  113 2    
   224  112  114 am   BACKBONE|DICT|INTERRES
   225  114  115 1    
   226  114  235 1    
   227  115  116 1    
   228  115  117 1    
   229  115  236 1    
   230  116  237 1    
   231  116  238 1    
   232  116  239 1    
   233  117  118 2    
   234  117  119 am   BACKBONE|DICT|INTERRES
   235  119  120 1    
   236  119  240 1    
   237  120  121 1    
   238  120  124 1    
   239  120  241 1    
   240  121  122 am   BACKBONE|DICT|INTERRES
   241  121  123 2    
   242  122  242 1    
   243  122  243 1    
   244  124  125 1    
   245  124  244 1    
   246  124  245 1    
   247  125  126 1    
   248  126  246 1    
   249  126  247 1    
@<TRIPOS>SUBSTRUCTURE
     1 UNK         1 GROUP             0       ****    0 ROOT    
