@<TRIPOS>MOLECULE
3R540
247   249    1
SMALL
USER_CHARGES


@<TRIPOS>ATOM
      1 CA          0.0519  -11.4459  -52.5292 C.3       0 UNK        -0.1800 
      2 C           0.2516  -12.1783  -51.2110 C.2       0 UNK         0.5000 
      3 O           0.0504  -11.5953  -50.1453 O.2       0 UNK        -0.5000 
      4 N           0.6235  -13.4645  -51.2773 N.am      1 UNK        -0.5000 
      5 CA          0.9589  -14.3222  -50.1281 C.3       1 UNK         0.1400 
      6 C6          1.5685  -15.6755  -50.5650 C.3       23 UNK        -0.0398 
      7 S7          3.0424  -15.4682  -51.6180 S.3       23 UNK        -0.2404 
      8 C8          4.0192  -16.9342  -51.1508 C.3       23 UNK        -0.0205 
      9 C9          3.2920  -18.2559  -51.3819 C.ar      23 UNK        -0.0193 
     10 C10         2.5966  -18.5011  -52.5715 C.ar      23 UNK        -0.1150 
     11 C11         1.9641  -19.7276  -52.7864 C.ar      23 UNK        -0.0193 
     12 C12         2.0373  -20.7198  -51.8025 C.ar      23 UNK        -0.1150 
     13 C13         2.7348  -20.4950  -50.6123 C.ar      23 UNK        -0.0193 
     14 C14         3.3562  -19.2588  -50.4096 C.ar      23 UNK        -0.1150 
     15 C15         2.8890  -21.6106  -49.5835 C.3       23 UNK        -0.0205 
     16 S16         2.2749  -21.1509  -47.9304 S.3       23 UNK        -0.2404 
     17 C17         0.5003  -21.5525  -48.0402 C.3       23 UNK        -0.0398 
     18 CA          0.1159  -22.7551  -47.1479 C.3       11 UNK         0.1400 
     19 N           0.2537  -22.4509  -45.7165 N.am      11 UNK        -0.5000 
     20 C           0.1390  -23.3532  -44.7315 C.2       10 UNK         0.5000 
     21 O          -0.0525  -24.5518  -44.9273 O.2       10 UNK        -0.5000 
     22 CA          0.1817  -22.8292  -43.2846 C.3       10 UNK         0.1400 
     23 CB          1.6218  -22.5299  -42.8433 C.3       10 UNK        -0.1800 
     24 N          -0.6643  -21.6502  -43.0932 N.am      10 UNK        -0.5000 
     25 C          -1.9994  -21.6541  -43.2232 C.2       9 UNK         0.5000 
     26 O          -2.6557  -22.6675  -43.4567 O.2       9 UNK        -0.5000 
     27 CA         -2.7246  -20.2997  -43.1238 C.3       9 UNK         0.1400 
     28 CB         -3.0063  -19.9341  -41.6594 C.3       9 UNK        -0.1800 
     29 N          -1.9871  -19.2142  -43.7662 N.am      9 UNK        -0.5000 
     30 C          -1.6832  -19.1549  -45.0706 C.2       8 UNK         0.5000 
     31 O          -2.0400  -19.9895  -45.9002 O.2       8 UNK        -0.5000 
     32 CA         -0.7678  -17.9971  -45.5001 C.3       8 UNK         0.1400 
     33 CB         -1.5704  -16.6953  -45.6414 C.3       8 UNK        -0.1800 
     34 N           0.3370  -17.8162  -44.5557 N.am      8 UNK        -0.5000 
     35 C           1.3147  -18.7167  -44.3725 C.2       7 UNK         0.5000 
     36 O           1.4067  -19.7580  -45.0200 O.2       7 UNK        -0.5000 
     37 CA          2.3183  -18.4473  -43.2373 C.3       7 UNK         0.1400 
     38 CB          3.5164  -17.6281  -43.7318 C.3       7 UNK        -0.1800 
     39 N           1.6928  -17.7741  -42.0994 N.am      7 UNK        -0.5000 
     40 C           0.8784  -18.3954  -41.2346 C.2       6 UNK         0.5000 
     41 O           0.6190  -19.5973  -41.2901 O.2       6 UNK        -0.5000 
     42 CA          0.2028  -17.5255  -40.1581 C.3       6 UNK         0.1400 
     43 CB          1.0999  -17.4076  -38.9174 C.3       6 UNK        -0.1800 
     44 N          -0.1479  -16.1847  -40.6307 N.am      6 UNK        -0.5000 
     45 C          -0.9934  -15.9238  -41.6367 C.2       5 UNK         0.5000 
     46 O          -1.5801  -16.8005  -42.2700 O.2       5 UNK        -0.5000 
     47 CA         -1.2095  -14.4484  -42.0246 C.3       5 UNK         0.1400 
     48 CB         -0.8375  -13.4517  -40.9046 C.3       5 UNK        -0.1800 
     49 N          -0.5253  -14.0847  -43.2702 N.am      5 UNK        -0.5000 
     50 C           0.7856  -14.1747  -43.5446 C.2       4 UNK         0.5000 
     51 O           1.5973  -14.7345  -42.8055 O.2       4 UNK        -0.5000 
     52 CA          1.2891  -13.5292  -44.8565 C.3       4 UNK         0.1400 
     53 CB          2.1119  -14.5179  -45.6971 C.3       4 UNK        -0.1800 
     54 N           0.2341  -12.9509  -45.6967 N.am      4 UNK        -0.5000 
     55 C          -0.3639  -11.7697  -45.4732 C.2       3 UNK         0.5000 
     56 O          -0.1255  -11.0745  -44.4853 O.2       3 UNK        -0.5000 
     57 CA         -1.3900  -11.2623  -46.5095 C.3       3 UNK         0.1400 
     58 CB         -0.8921   -9.9684  -47.1734 C.3       3 UNK        -0.1800 
     59 N          -1.6960  -12.2328  -47.5602 N.am      3 UNK        -0.5000 
     60 C          -2.5032  -13.2947  -47.4208 C.2       2 UNK         0.5000 
     61 O          -3.1134  -13.5543  -46.3841 O.2       2 UNK        -0.5000 
     62 CA         -2.6202  -14.2427  -48.6339 C.3       2 UNK         0.1400 
     63 CB         -3.8698  -13.9009  -49.4592 C.3       2 UNK        -0.1800 
     64 N          -1.4449  -14.2019  -49.5088 N.am      2 UNK        -0.5000 
     65 C          -0.2054  -14.5626  -49.1411 C.2       1 UNK         0.5000 
     66 O           0.0465  -15.0453  -48.0402 O.2       1 UNK        -0.5000 
     67 C          -1.2985  -23.2654  -47.4996 C.2       11 UNK         0.5000 
     68 O          -1.4269  -24.1882  -48.3081 O.2       11 UNK        -0.5000 
     69 N          -2.3308  -22.6888  -46.8694 N.am      12 UNK        -0.5000 
     70 CA         -3.7233  -23.1096  -47.0110 C.3       12 UNK         0.1400 
     71 CB         -4.6534  -22.0593  -46.3884 C.3       12 UNK        -0.1800 
     72 C          -3.9788  -24.5055  -46.4139 C.2       12 UNK         0.5000 
     73 O          -4.6818  -25.3064  -47.0275 O.2       12 UNK        -0.5000 
     74 N          -3.3838  -24.7925  -45.2503 N.am      13 UNK        -0.5000 
     75 CA         -3.4555  -26.0975  -44.5955 C.3       13 UNK         0.1400 
     76 CB         -2.9412  -25.9765  -43.1526 C.3       13 UNK        -0.1800 
     77 C          -2.6834  -27.1884  -45.3601 C.2       13 UNK         0.5000 
     78 O          -3.1934  -28.2994  -45.5108 O.2       13 UNK        -0.5000 
     79 N          -1.4672  -26.8586  -45.8136 N.am      14 UNK        -0.5000 
     80 CA         -0.5500  -27.7961  -46.4566 C.3       14 UNK         0.1400 
     81 CB          0.8826  -27.2450  -46.3782 C.3       14 UNK        -0.1800 
     82 C          -0.9144  -28.1160  -47.9150 C.2       14 UNK         0.5000 
     83 O          -0.8506  -29.2840  -48.3019 O.2       14 UNK        -0.5000 
     84 N          -1.2394  -27.0837  -48.7050 N.am      15 UNK        -0.5000 
     85 CA         -1.3140  -27.1762  -50.1659 C.3       15 UNK         0.1400 
     86 CB         -0.0678  -26.4851  -50.7503 C.3       15 UNK        -0.1800 
     87 C          -2.5955  -26.5734  -50.7649 C.2       15 UNK         0.5000 
     88 O          -2.7484  -26.6228  -51.9862 O.2       15 UNK        -0.5000 
     89 N          -3.4741  -25.9941  -49.9302 N.am      16 UNK        -0.5000 
     90 CA         -4.6511  -25.2023  -50.3250 C.3       16 UNK         0.1400 
     91 CB         -5.7098  -26.0837  -51.0217 C.3       16 UNK        -0.1800 
     92 C          -4.2707  -23.9454  -51.1389 C.2       16 UNK         0.5000 
     93 O          -5.0265  -23.5272  -52.0160 O.2       16 UNK        -0.5000 
     94 N          -3.0916  -23.3869  -50.8386 N.am      17 UNK        -0.5000 
     95 CA         -2.4650  -22.2812  -51.5546 C.3       17 UNK         0.1400 
     96 CB         -1.0551  -22.7361  -51.9642 C.3       17 UNK        -0.1800 
     97 C          -2.4266  -21.0119  -50.6844 C.2       17 UNK         0.5000 
     98 O          -2.9558  -21.0047  -49.5718 O.2       17 UNK        -0.5000 
     99 N          -1.8135  -19.9495  -51.2244 N.am      18 UNK        -0.5000 
    100 CA        -1.6765  -18.5881  -50.6920 C.3       18 UNK         0.1400 
    101 CB        -0.8869  -18.5511  -49.3732 C.3       18 UNK        -0.1800 
    102 C         -3.0240  -17.8605  -50.5737 C.2       18 UNK         0.5000 
    103 O         -3.2742  -16.9243  -51.3311 O.2       18 UNK        -0.5000 
    104 N         -3.8859  -18.3321  -49.6664 N.am      19 UNK        -0.5000 
    105 CA        -5.2404  -17.8253  -49.4401 C.3       19 UNK         0.1400 
    106 CB        -5.8138  -18.5006  -48.1854 C.3       19 UNK        -0.1800 
    107 C         -6.1807  -18.0282  -50.6465 C.2       19 UNK         0.5000 
    108 O         -7.1553  -17.2887  -50.7854 O.2       19 UNK        -0.5000 
    109 N         -5.8606  -19.0073  -51.5006 N.am      20 UNK        -0.5000 
    110 CA        -6.5487  -19.3052  -52.7489 C.3       20 UNK         0.1400 
    111 CB        -7.5311  -20.4677  -52.5145 C.3       20 UNK        -0.1800 
    112 C         -5.4875  -19.6327  -53.8184 C.2       20 UNK         0.5000 
    113 O         -5.1623  -20.8035  -54.0015 O.2       20 UNK        -0.5000 
    114 N         -4.8980  -18.6489  -54.5093 N.am      21 UNK        -0.5000 
    115 CA        -5.0722  -17.1990  -54.3743 C.3       21 UNK         0.1400 
    116 CB        -6.2356  -16.7300  -55.2707 C.3       21 UNK        -0.1800 
    117 C         -3.7551  -16.4629  -54.7026 C.2       21 UNK         0.5000 
    118 O         -3.7835  -15.2831  -55.0547 O.2       21 UNK        -0.5000 
    119 N         -2.6248  -17.1768  -54.6073 N.am      22 UNK        -0.5000 
    120 CA        -1.2618  -16.6830  -54.8702 C.3       22 UNK         0.1400 
    121 C         -0.6933  -15.6905  -53.8143 C.2       22 UNK         0.5000 
    122 N         -1.3443  -15.4656  -52.6829 N.am      22 UNK        -0.7600 
    123 O          0.3496  -15.0811  -54.0321 O.2       22 UNK        -0.5000 
    124 C124       -0.2763  -17.8439  -55.1897 C.3       23 UNK        -0.0398 
    125 S125       -0.4413  -19.3048  -54.0990 S.3       23 UNK        -0.2404 
    126 C126        1.2423  -19.9958  -54.0988 C.3       23 UNK        -0.0205 
    127 H127        0.2285  -12.0986  -53.3849 H         1 UNK         0.0600 
    128 H128       -0.9673  -11.0655  -52.5965 H         1 UNK         0.0600 
    129 H129        0.7380  -10.6018  -52.5964 H         1 UNK         0.0600 
    130 H130        0.8258  -13.8679  -52.1867 H         1 UNK         0.3000 
    131 H131        1.7229  -13.7899  -49.5573 H         1 UNK         0.0600 
    132 H132        0.8414  -16.2787  -51.1101 H         1 UNK         0.0800 
    133 H133        1.8514  -16.2616  -49.6880 H         1 UNK         0.0800 
    134 H134        4.3141  -16.8344  -50.1050 H         1 UNK         0.0800 
    135 H135        4.9419  -16.9395  -51.7321 H         1 UNK         0.0800 
    136 H136        2.5533  -17.7385  -53.3363 H         1 UNK         0.1150 
    137 H137        1.5829  -21.6829  -51.9777 H         1 UNK         0.1150 
    138 H138        3.9102  -19.0886  -49.4970 H         1 UNK         0.1150 
    139 H139        2.3990  -22.5275  -49.9147 H         1 UNK         0.0800 
    140 H140        3.9498  -21.8500  -49.4994 H         1 UNK         0.0800 
    141 H141        0.2383  -21.7268  -49.0845 H         1 UNK         0.0800 
    142 H142       -0.0604  -20.6744  -47.7247 H         1 UNK         0.0800 
    143 H143        0.8030  -23.5738  -47.3730 H         1 UNK         0.0600 
    144 H144        0.4582  -21.4851  -45.4774 H         1 UNK         0.3000 
    145 H145       -0.2059  -23.6186  -42.6371 H         1 UNK         0.0600 
    146 H146        1.6556  -22.1929  -41.8071 H         1 UNK         0.0600 
    147 H147        2.2419  -23.4242  -42.9149 H         1 UNK         0.0600 
    148 H148        2.0863  -21.7627  -43.4611 H         1 UNK         0.0600 
    149 H149       -0.1992  -20.7873  -42.8373 H         1 UNK         0.3000 
    150 H150       -3.6820  -20.3957  -43.6390 H         1 UNK         0.0600 
    151 H151       -3.5998  -20.7085  -41.1719 H         1 UNK         0.0600 
    152 H152       -3.5645  -19.0005  -41.5864 H         1 UNK         0.0600 
    153 H153       -2.0856  -19.8181  -41.0880 H         1 UNK         0.0600 
    154 H154       -1.6949  -18.4450  -43.1685 H         1 UNK         0.3000 
    155 H155       -0.3362  -18.2400  -46.4730 H         1 UNK         0.0600 
    156 H156       -0.9204  -15.8423  -45.8242 H         1 UNK         0.0600 
    157 H157       -2.2646  -16.7664  -46.4786 H         1 UNK         0.0600 
    158 H158       -2.1608  -16.4714  -44.7538 H         1 UNK         0.0600 
    159 H159        0.2847  -17.0227  -43.9348 H         1 UNK         0.3000 
    160 H160        2.6994  -19.4141  -42.9016 H         1 UNK         0.0600 
    161 H161        4.2848  -17.5531  -42.9624 H         1 UNK         0.0600 
    162 H162        3.2215  -16.6183  -44.0059 H         1 UNK         0.0600 
    163 H163        3.9744  -18.0900  -44.6075 H         1 UNK         0.0600 
    164 H164        1.8226  -16.7712  -42.0259 H         1 UNK         0.3000 
    165 H165       -0.7223  -18.0256  -39.8642 H         1 UNK         0.0600 
    166 H166        0.5959  -16.8678  -38.1155 H         1 UNK         0.0600 
    167 H167        1.3613  -18.3932  -38.5298 H         1 UNK         0.0600 
    168 H168        2.0308  -16.8852  -39.1417 H         1 UNK         0.0600 
    169 H169        0.3188  -15.4090  -40.1839 H         1 UNK         0.3000 
    170 H170       -2.2780  -14.3408  -42.2167 H         1 UNK         0.0600 
    171 H171       -1.3576  -13.6899  -39.9758 H         1 UNK         0.0600 
    172 H172        0.2328  -13.4414  -40.6955 H         1 UNK         0.0600 
    173 H173       -1.1247  -12.4369  -41.1804 H         1 UNK         0.0600 
    174 H174       -1.1083  -13.6498  -43.9709 H         1 UNK         0.3000 
    175 H175        1.9601  -12.7187  -44.5645 H         1 UNK         0.0600 
    176 H176        1.5821  -15.4574  -45.8573 H         1 UNK         0.0600 
    177 H177        2.3594  -14.1016  -46.6738 H         1 UNK         0.0600 
    178 H178        3.0572  -14.7450  -45.2060 H         1 UNK         0.0600 
    179 H179       -0.0205  -13.4837  -46.5197 H         1 UNK         0.3000 
    180 H180       -2.3105  -11.0333  -45.9685 H         1 UNK         0.0600 
    181 H181        0.0394  -10.1298  -47.7176 H         1 UNK         0.0600 
    182 H182       -0.7086   -9.1902  -46.4314 H         1 UNK         0.0600 
    183 H183       -1.6272   -9.5772  -47.8770 H         1 UNK         0.0600 
    184 H184       -1.2177  -12.0962  -48.4439 H         1 UNK         0.3000 
    185 H185       -2.7256  -15.2615  -48.2575 H         1 UNK         0.0600 
    186 H186       -4.7711  -13.9707  -48.8488 H         1 UNK         0.0600 
    187 H187       -3.8221  -12.8878  -49.8604 H         1 UNK         0.0600 
    188 H188       -3.9940  -14.5861  -50.2972 H         1 UNK         0.0600 
    189 H189       -1.5717  -13.7387  -50.3946 H         1 UNK         0.3000 
    190 H190       -2.1589  -21.8720  -46.2899 H         1 UNK         0.3000 
    191 H191       -3.9473  -23.1548  -48.0771 H         1 UNK         0.0600 
    192 H192       -4.4998  -21.9690  -45.3138 H         1 UNK         0.0600 
    193 H193       -5.6997  -22.3206  -46.5504 H         1 UNK         0.0600 
    194 H194       -4.4889  -21.0783  -46.8343 H         1 UNK         0.0600 
    195 H195       -2.8730  -24.0614  -44.7630 H         1 UNK         0.3000 
    196 H196       -4.5043  -26.3991  -44.5536 H         1 UNK         0.0600 
    197 H197       -2.9925  -26.9361  -42.6368 H         1 UNK         0.0600 
    198 H198       -3.5392  -25.2669  -42.5806 H         1 UNK         0.0600 
    199 H199       -1.9044  -25.6400  -43.1205 H         1 UNK         0.0600 
    200 H200       -1.0953  -25.9359  -45.5985 H         1 UNK         0.3000 
    201 H201       -0.5731  -28.7337  -45.8968 H         1 UNK         0.0600 
    202 H202        1.1908  -27.0958  -45.3432 H         1 UNK         0.0600 
    203 H203        0.9758  -26.2891  -46.8955 H         1 UNK         0.0600 
    204 H204        1.5941  -27.9356  -46.8327 H         1 UNK         0.0600 
    205 H205       -1.2663  -26.1447  -48.3180 H         1 UNK         0.3000 
    206 H206       -1.3024  -28.2192  -50.4883 H         1 UNK         0.0600 
    207 H207        0.8479  -26.9541  -50.3900 H         1 UNK         0.0600 
    208 H208       -0.0533  -26.5448  -51.8392 H         1 UNK         0.0600 
    209 H209       -0.0317  -25.4293  -50.4785 H         1 UNK         0.0600 
    210 H210       -3.2793  -26.0192  -48.9387 H         1 UNK         0.3000 
    211 H211       -5.1108  -24.8256  -49.4146 H         1 UNK         0.0600 
    212 H212       -5.3768  -26.4274  -52.0011 H         1 UNK         0.0600 
    213 H213       -6.6385  -25.5318  -51.1707 H         1 UNK         0.0600 
    214 H214       -5.9486  -26.9608  -50.4203 H         1 UNK         0.0600 
    215 H215       -2.5670  -23.7553  -50.0536 H         1 UNK         0.3000 
    216 H216       -3.0289  -22.0439  -52.4590 H         1 UNK         0.0600 
    217 H217       -0.5881  -22.0126  -52.6303 H         1 UNK         0.0600 
    218 H218       -1.0902  -23.6830  -52.5040 H         1 UNK         0.0600 
    219 H219       -0.4056  -22.8731  -51.0993 H         1 UNK         0.0600 
    220 H220       -1.4140  -20.0629  -52.1478 H         1 UNK         0.3000 
    221 H221       -1.0863  -18.0395  -51.4267 H         1 UNK         0.0600 
    222 H222       -1.4056  -19.0784  -48.5737 H         1 UNK         0.0600 
    223 H223        0.1017  -18.9934  -49.4965 H         1 UNK         0.0600 
    224 H224       -0.7412  -17.5252  -49.0363 H         1 UNK         0.0600 
    225 H225       -3.6193  -19.1755  -49.1667 H         1 UNK         0.3000 
    226 H226       -5.1705  -16.7518  -49.2537 H         1 UNK         0.0600 
    227 H227       -5.1826  -18.3189  -47.3150 H         1 UNK         0.0600 
    228 H228       -6.8075  -18.1156  -47.9532 H         1 UNK         0.0600 
    229 H229       -5.9014  -19.5799  -48.3169 H         1 UNK         0.0600 
    230 H230       -5.0350  -19.5566  -51.3103 H         1 UNK         0.3000 
    231 H231       -7.1312  -18.4463  -53.0823 H         1 UNK         0.0600 
    232 H232       -7.0254  -21.3556  -52.1320 H         1 UNK         0.0600 
    233 H233       -8.3033  -20.1901  -51.7968 H         1 UNK         0.0600 
    234 H234       -8.0330  -20.7472  -53.4415 H         1 UNK         0.0600 
    235 H235       -4.2355  -18.9174  -55.2228 H         1 UNK         0.3000 
    236 H236       -5.3001  -16.9459  -53.3385 H         1 UNK         0.0600 
    237 H237       -6.4312  -15.6657  -55.1345 H         1 UNK         0.0600 
    238 H238       -6.0123  -16.8901  -56.3261 H         1 UNK         0.0600 
    239 H239       -7.1630  -17.2555  -55.0472 H         1 UNK         0.0600 
    240 H240       -2.6760  -18.1249  -54.2664 H         1 UNK         0.3000 
    241 H241       -1.3271  -16.0837  -55.7803 H         1 UNK         0.0600 
    242 H242       -0.9703  -14.7920  -52.0444 H         1 UNK         0.3800 
    243 H243       -2.1968  -15.9672  -52.4449 H         1 UNK         0.3800 
    244 H244        0.7569  -17.4922  -55.1877 H         1 UNK         0.0800 
    245 H245       -0.4594  -18.1899  -56.2077 H         1 UNK         0.0800 
    246 H246        1.1748  -21.0706  -54.2732 H         1 UNK         0.0800 
    247 H247        1.8215  -19.5977  -54.9330 H         1 UNK         0.0800 
@<TRIPOS>BOND
     1    1    2 1    
     2    1  127 1    
     3    1  128 1    
     4    1  129 1    
     5    2    3 2    
     6    2    4 am   BACKBONE|DICT|INTERRES
     7    4    5 1    
     8    4  130 1    
     9    5    6 1    
    10    5   65 1    
    11    5  131 1    
    12    6    7 1    
    13    6  132 1    
    14    6  133 1    
    15    7    8 1    
    16    8    9 1    
    17    8  134 1    
    18    8  135 1    
    19    9   10 ar   
    20    9   14 ar   
    21   10   11 ar   
    22   10  136 1    
    23   11   12 ar   
    24   11  126 1    
    25   12   13 ar   
    26   12  137 1    
    27   13   14 ar   
    28   13   15 1    
    29   14  138 1    
    30   15   16 1    
    31   15  139 1    
    32   15  140 1    
    33   16   17 1    
    34   17   18 1    
    35   17  141 1    
    36   17  142 1    
    37   18   19 1    
    38   18   67 1    
    39   18  143 1    
    40   19   20 am   BACKBONE|DICT|INTERRES
    41   19  144 1    
    42   20   21 2    
    43   20   22 1    
    44   22   23 1    
    45   22   24 1    
    46   22  145 1    
    47   23  146 1    
    48   23  147 1    
    49   23  148 1    
    50   24   25 am   BACKBONE|DICT|INTERRES
    51   24  149 1    
    52   25   26 2    
    53   25   27 1    
    54   27   28 1    
    55   27   29 1    
    56   27  150 1    
    57   28  151 1    
    58   28  152 1    
    59   28  153 1    
    60   29   30 am   BACKBONE|DICT|INTERRES
    61   29  154 1    
    62   30   31 2    
    63   30   32 1    
    64   32   33 1    
    65   32   34 1    
    66   32  155 1    
    67   33  156 1    
    68   33  157 1    
    69   33  158 1    
    70   34   35 am   BACKBONE|DICT|INTERRES
    71   34  159 1    
    72   35   36 2    
    73   35   37 1    
    74   37   38 1    
    75   37   39 1    
    76   37  160 1    
    77   38  161 1    
    78   38  162 1    
    79   38  163 1    
    80   39   40 am   BACKBONE|DICT|INTERRES
    81   39  164 1    
    82   40   41 2    
    83   40   42 1    
    84   42   43 1    
    85   42   44 1    
    86   42  165 1    
    87   43  166 1    
    88   43  167 1    
    89   43  168 1    
    90   44   45 am   BACKBONE|DICT|INTERRES
    91   44  169 1    
    92   45   46 2    
    93   45   47 1    
    94   47   48 1    
    95   47   49 1    
    96   47  170 1    
    97   48  171 1    
    98   48  172 1    
    99   48  173 1    
   100   49   50 am   BACKBONE|DICT|INTERRES
   101   49  174 1    
   102   50   51 2    
   103   50   52 1    
   104   52   53 1    
   105   52   54 1    
   106   52  175 1    
   107   53  176 1    
   108   53  177 1    
   109   53  178 1    
   110   54   55 am   BACKBONE|DICT|INTERRES
   111   54  179 1    
   112   55   56 2    
   113   55   57 1    
   114   57   58 1    
   115   57   59 1    
   116   57  180 1    
   117   58  181 1    
   118   58  182 1    
   119   58  183 1    
   120   59   60 am   BACKBONE|DICT|INTERRES
   121   59  184 1    
   122   60   61 2    
   123   60   62 1    
   124   62   63 1    
   125   62   64 1    
   126   62  185 1    
   127   63  186 1    
   128   63  187 1    
   129   63  188 1    
   130   64   65 am   BACKBONE|DICT|INTERRES
   131   64  189 1    
   132   65   66 2    
   133   67   68 2    
   134   67   69 am   BACKBONE|DICT|INTERRES
   135   69   70 1    
   136   69  190 1    
   137   70   71 1    
   138   70   72 1    
   139   70  191 1    
   140   71  192 1    
   141   71  193 1    
   142   71  194 1    
   143   72   73 2    
   144   72   74 am   BACKBONE|DICT|INTERRES
   145   74   75 1    
   146   74  195 1    
   147   75   76 1    
   148   75   77 1    
   149   75  196 1    
   150   76  197 1    
   151   76  198 1    
   152   76  199 1    
   153   77   78 2    
   154   77   79 am   BACKBONE|DICT|INTERRES
   155   79   80 1    
   156   79  200 1    
   157   80   81 1    
   158   80   82 1    
   159   80  201 1    
   160   81  202 1    
   161   81  203 1    
   162   81  204 1    
   163   82   83 2    
   164   82   84 am   BACKBONE|DICT|INTERRES
   165   84   85 1    
   166   84  205 1    
   167   85   86 1    
   168   85   87 1    
   169   85  206 1    
   170   86  207 1    
   171   86  208 1    
   172   86  209 1    
   173   87   88 2    
   174   87   89 am   BACKBONE|DICT|INTERRES
   175   89   90 1    
   176   89  210 1    
   177   90   91 1    
   178   90   92 1    
   179   90  211 1    
   180   91  212 1    
   181   91  213 1    
   182   91  214 1    
   183   92   93 2    
   184   92   94 am   BACKBONE|DICT|INTERRES
   185   94   95 1    
   186   94  215 1    
   187   95   96 1    
   188   95   97 1    
   189   95  216 1    
   190   96  217 1    
   191   96  218 1    
   192   96  219 1    
   193   97   98 2    
   194   97   99 am   BACKBONE|DICT|INTERRES
   195   99  100 1    
   196   99  220 1    
   197  100  101 1    
   198  100  102 1    
   199  100  221 1    
   200  101  222 1    
   201  101  223 1    
   202  101  224 1    
   203  102  103 2    
   204  102  104 am   BACKBONE|DICT|INTERRES
   205  104  105 1    
   206  104  225 1    
   207  105  106 1    
   208  105  107 1    
   209  105  226 1    
   210  106  227 1    
   211  106  228 1    
   212  106  229 1    
   213  107  108 2    
   214  107  109 am   BACKBONE|DICT|INTERRES
   215  109  110 1    
   216  109  230 1    
   217  110  111 1    
   218  110  112 1    
   219  110  231 1    
   220  111  232 1    
   221  111  233 1    
   222  111  234 1    
   223  112  113 2    
   224  112  114 am   BACKBONE|DICT|INTERRES
   225  114  115 1    
   226  114  235 1    
   227  115  116 1    
   228  115  117 1    
   229  115  236 1    
   230  116  237 1    
   231  116  238 1    
   232  116  239 1    
   233  117  118 2    
   234  117  119 am   BACKBONE|DICT|INTERRES
   235  119  120 1    
   236  119  240 1    
   237  120  121 1    
   238  120  124 1    
   239  120  241 1    
   240  121  122 am   BACKBONE|DICT|INTERRES
   241  121  123 2    
   242  122  242 1    
   243  122  243 1    
   244  124  125 1    
   245  124  244 1    
   246  124  245 1    
   247  125  126 1    
   248  126  246 1    
   249  126  247 1    
@<TRIPOS>SUBSTRUCTURE
     1 UNK         1 GROUP             0       ****    0 ROOT    
