@<TRIPOS>MOLECULE
3R540
247   249    1
SMALL
USER_CHARGES


@<TRIPOS>ATOM
      1 CA          2.0984  -13.9926  -40.9210 C.3       0 UNK        -0.1800 
      2 C           0.5993  -13.8530  -41.1454 C.2       0 UNK         0.5000 
      3 O          -0.1883  -14.2955  -40.3100 O.2       0 UNK        -0.5000 
      4 N           0.2062  -13.2466  -42.2701 N.am      1 UNK        -0.5000 
      5 CA         -1.1847  -13.0155  -42.6631 C.3       1 UNK         0.1400 
      6 C6         -1.9295  -14.3173  -43.0661 C.3       23 UNK        -0.0398 
      7 S7         -3.7419  -14.1072  -43.0976 S.3       23 UNK        -0.2404 
      8 C8         -4.0815  -14.0438  -44.8874 C.3       23 UNK        -0.0205 
      9 C9         -3.8325  -15.3820  -45.5668 C.ar      23 UNK        -0.0193 
     10 C10        -2.8170  -15.5204  -46.5187 C.ar      23 UNK        -0.1150 
     11 C11        -2.5924  -16.7515  -47.1426 C.ar      23 UNK        -0.0193 
     12 C12        -3.3786  -17.8516  -46.7920 C.ar      23 UNK        -0.1150 
     13 C13        -4.4028  -17.7216  -45.8509 C.ar      23 UNK        -0.0193 
     14 C14        -4.6299  -16.4838  -45.2471 C.ar      23 UNK        -0.1150 
     15 C15        -5.2591  -18.9211  -45.4825 C.3       23 UNK        -0.0205 
     16 S16        -4.7883  -19.6396  -43.8733 S.3       23 UNK        -0.2404 
     17 C17        -2.9926  -19.9142  -44.0625 C.3       23 UNK        -0.0398 
     18 CA         -2.6504  -21.0637  -45.0400 C.3       11 UNK         0.1400 
     19 N          -1.3155  -20.9093  -45.6288 N.am      11 UNK        -0.5000 
     20 C          -0.7993  -21.6925  -46.5868 C.2       10 UNK         0.5000 
     21 O          -1.4235  -22.5973  -47.1373 O.2       10 UNK        -0.5000 
     22 CA          0.6751  -21.4760  -46.9565 C.3       10 UNK         0.1400 
     23 CB          0.8283  -20.3955  -48.0343 C.3       10 UNK        -0.1800 
     24 N           1.4768  -21.1499  -45.7774 N.am      10 UNK        -0.5000 
     25 C           1.8318  -22.0545  -44.8524 C.2       9 UNK         0.5000 
     26 O           1.6244  -23.2621  -44.9667 O.2       9 UNK        -0.5000 
     27 CA          2.4771  -21.5199  -43.5610 C.3       9 UNK         0.1400 
     28 CB          4.0072  -21.4882  -43.6808 C.3       9 UNK        -0.1800 
     29 N           1.9739  -20.1931  -43.1960 N.am      9 UNK        -0.5000 
     30 C           0.7449  -19.9805  -42.7010 C.2       8 UNK         0.5000 
     31 O          -0.0626  -20.8846  -42.4884 O.2       8 UNK        -0.5000 
     32 CA          0.3187  -18.5223  -42.4391 C.3       8 UNK         0.1400 
     33 CB          0.6410  -18.1174  -40.9937 C.3       8 UNK        -0.1800 
     34 N           0.9223  -17.5530  -43.3528 N.am      8 UNK        -0.5000 
     35 C           0.7690  -17.5402  -44.6834 C.2       7 UNK         0.5000 
     36 O           0.0857  -18.3651  -45.2921 O.2       7 UNK        -0.5000 
     37 CA          1.5401  -16.4590  -45.4724 C.3       7 UNK         0.1400 
     38 CB          2.3329  -15.4809  -44.5754 C.3       7 UNK        -0.1800 
     39 N           2.4381  -17.0449  -46.4709 N.am      7 UNK        -0.5000 
     40 C           3.4223  -17.9301  -46.2404 C.2       6 UNK         0.5000 
     41 O           3.6549  -18.4087  -45.1292 O.2       6 UNK        -0.5000 
     42 CA          4.2799  -18.3626  -47.4457 C.3       6 UNK         0.1400 
     43 CB          4.7553  -19.8225  -47.3325 C.3       6 UNK        -0.1800 
     44 N           3.5399  -18.1980  -48.6950 N.am      6 UNK        -0.5000 
     45 C           3.9004  -17.4215  -49.7215 C.2       5 UNK         0.5000 
     46 O           4.9566  -16.7892  -49.7713 O.2       5 UNK        -0.5000 
     47 CA          2.9037  -17.3165  -50.8953 C.3       5 UNK         0.1400 
     48 CB          1.7284  -18.3163  -50.8234 C.3       5 UNK        -0.1800 
     49 N           2.3834  -15.9567  -51.0602 N.am      5 UNK        -0.5000 
     50 C           1.7904  -15.1955  -50.1292 C.2       4 UNK         0.5000 
     51 O           1.6104  -15.5380  -48.9567 O.2       4 UNK        -0.5000 
     52 CA          1.2610  -13.8359  -50.6224 C.3       4 UNK         0.1400 
     53 CB         -0.2527  -13.9122  -50.8726 C.3       4 UNK        -0.1800 
     54 N           1.5296  -12.7507  -49.6825 N.am      4 UNK        -0.5000 
     55 C           2.7439  -12.2794  -49.3683 C.2       3 UNK         0.5000 
     56 O           3.7877  -12.6979  -49.8711 O.2       3 UNK        -0.5000 
     57 CA          2.8107  -11.1221  -48.3474 C.3       3 UNK         0.1400 
     58 CB          3.1941   -9.8085  -49.0479 C.3       3 UNK        -0.1800 
     59 N           1.5642  -10.9088  -47.6035 N.am      3 UNK        -0.5000 
     60 C           1.1138  -11.7198  -46.6399 C.2       2 UNK         0.5000 
     61 O           1.7060  -12.7361  -46.2708 O.2       2 UNK        -0.5000 
     62 CA         -0.2295  -11.3481  -45.9968 C.3       2 UNK         0.1400 
     63 CB         -1.3928  -11.5294  -46.9908 C.3       2 UNK        -0.1800 
     64 N          -0.4220  -12.2131  -44.8390 N.am      2 UNK        -0.5000 
     65 C          -1.2068  -11.9639  -43.7852 C.2       1 UNK         0.5000 
     66 O          -1.8940  -10.9490  -43.6662 O.2       1 UNK        -0.5000 
     67 C          -2.8394  -22.4455  -44.3810 C.2       11 UNK         0.5000 
     68 O          -3.8384  -23.1147  -44.6463 O.2       11 UNK        -0.5000 
     69 N          -1.8369  -22.8820  -43.6044 N.am      12 UNK        -0.5000 
     70 CA         -1.7583  -24.2130  -42.9943 C.3       12 UNK         0.1400 
     71 CB         -0.5387  -24.2640  -42.0621 C.3       12 UNK        -0.1800 
     72 C          -1.7035  -25.3643  -44.0209 C.2       12 UNK         0.5000 
     73 O          -2.1202  -26.4786  -43.7046 O.2       12 UNK        -0.5000 
     74 N          -1.2300  -25.0653  -45.2371 N.am      13 UNK        -0.5000 
     75 CA         -1.2116  -25.9573  -46.3947 C.3       13 UNK         0.1400 
     76 CB          0.0893  -25.7160  -47.1814 C.3       13 UNK        -0.1800 
     77 C          -2.4591  -25.7848  -47.2896 C.2       13 UNK         0.5000 
     78 O          -2.4206  -26.1965  -48.4482 O.2       13 UNK        -0.5000 
     79 N          -3.5338  -25.1773  -46.7619 N.am      14 UNK        -0.5000 
     80 CA         -4.8223  -24.9189  -47.4156 C.3       14 UNK         0.1400 
     81 CB         -5.5367  -26.2394  -47.7747 C.3       14 UNK        -0.1800 
     82 C          -4.6925  -23.9550  -48.6114 C.2       14 UNK         0.5000 
     83 O          -5.1509  -24.2614  -49.7126 O.2       14 UNK        -0.5000 
     84 N          -4.0328  -22.8142  -48.3673 N.am      15 UNK        -0.5000 
     85 CA         -3.6905  -21.7626  -49.3333 C.3       15 UNK         0.1400 
     86 CB         -4.9555  -21.0576  -49.8548 C.3       15 UNK        -0.1800 
     87 C          -2.7793  -22.2986  -50.4555 C.2       15 UNK         0.5000 
     88 O          -3.0303  -22.0569  -51.6412 O.2       15 UNK        -0.5000 
     89 N          -1.7571  -23.0549  -50.0255 N.am      16 UNK        -0.5000 
     90 CA         -0.7889  -23.8043  -50.8293 C.3       16 UNK         0.1400 
     91 CB          0.1540  -22.8364  -51.5729 C.3       16 UNK        -0.1800 
     92 C          -1.4855  -24.8108  -51.7668 C.2       16 UNK         0.5000 
     93 O          -1.3160  -24.7406  -52.9831 O.2       16 UNK        -0.5000 
     94 N          -2.3128  -25.6907  -51.1833 N.am      17 UNK        -0.5000 
     95 CA         -3.1787  -26.6730  -51.8500 C.3       17 UNK         0.1400 
     96 CB         -2.3317  -27.8064  -52.4638 C.3       17 UNK        -0.1800 
     97 C          -4.1455  -26.0247  -52.8661 C.2       17 UNK         0.5000 
     98 O          -4.3929  -26.5823  -53.9367 O.2       17 UNK        -0.5000 
     99 N          -4.6319  -24.8266  -52.5138 N.am      18 UNK        -0.5000 
    100 CA        -5.4421  -23.8998  -53.3058 C.3       18 UNK         0.1400 
    101 CB        -6.8316  -24.5021  -53.5965 C.3       18 UNK        -0.1800 
    102 C         -4.7536  -23.3627  -54.5818 C.2       18 UNK         0.5000 
    103 O         -5.4342  -22.7588  -55.4123 O.2       18 UNK        -0.5000 
    104 N         -3.4338  -23.5595  -54.7311 N.am      19 UNK        -0.5000 
    105 CA        -2.6652  -23.0684  -55.8763 C.3       19 UNK         0.1400 
    106 CB        -1.3751  -23.8854  -56.0421 C.3       19 UNK        -0.1800 
    107 C         -2.3454  -21.5704  -55.7514 C.2       19 UNK         0.5000 
    108 O         -2.3289  -20.8747  -56.7678 O.2       19 UNK        -0.5000 
    109 N         -2.1167  -21.0947  -54.5180 N.am      20 UNK        -0.5000 
    110 CA        -1.9648  -19.6698  -54.2249 C.3       20 UNK         0.1400 
    111 CB        -1.1239  -19.4720  -52.9554 C.3       20 UNK        -0.1800 
    112 C         -3.3377  -18.9981  -54.0790 C.2       20 UNK         0.5000 
    113 O         -3.5297  -17.8954  -54.5916 O.2       20 UNK        -0.5000 
    114 N         -4.2610  -19.6871  -53.3875 N.am      21 UNK        -0.5000 
    115 CA        -5.6524  -19.2893  -53.1267 C.3       21 UNK         0.1400 
    116 CB        -6.4620  -19.2490  -54.4393 C.3       21 UNK        -0.1800 
    117 C         -5.7932  -17.9874  -52.3024 C.2       21 UNK         0.5000 
    118 O         -6.8441  -17.3447  -52.3414 O.2       21 UNK        -0.5000 
    119 N         -4.7331  -17.6256  -51.5709 N.am      22 UNK        -0.5000 
    120 CA        -4.6704  -16.4929  -50.6413 C.3       22 UNK         0.1400 
    121 C         -5.5393  -16.6835  -49.3638 C.2       22 UNK         0.5000 
    122 N         -5.8283  -15.6070  -48.6447 N.am      22 UNK        -0.7600 
    123 O         -5.9560  -17.7861  -49.0153 O.2       22 UNK        -0.5000 
    124 C124       -3.1971  -16.1090  -50.3288 C.3       23 UNK        -0.0398 
    125 S125       -2.1337  -17.5000  -49.7908 S.3       23 UNK        -0.2404 
    126 C126       -1.4993  -16.8975  -48.1904 C.3       23 UNK        -0.0205 
    127 H127        2.6744  -13.5720  -41.7457 H         1 UNK         0.0600 
    128 H128        2.3659  -15.0447  -40.8220 H         1 UNK         0.0600 
    129 H129        2.3901  -13.4783  -40.0052 H         1 UNK         0.0600 
    130 H130        0.9000  -12.8352  -42.8793 H         1 UNK         0.3000 
    131 H131       -1.6929  -12.5774  -41.8008 H         1 UNK         0.0600 
    132 H132       -1.5666  -14.7061  -44.0181 H         1 UNK         0.0800 
    133 H133       -1.7286  -15.1056  -42.3404 H         1 UNK         0.0800 
    134 H134       -5.1244  -13.7616  -45.0372 H         1 UNK         0.0800 
    135 H135       -3.4840  -13.2545  -45.3449 H         1 UNK         0.0800 
    136 H136       -2.2037  -14.6699  -46.7765 H         1 UNK         0.1150 
    137 H137       -3.2007  -18.8056  -47.2670 H         1 UNK         0.1150 
    138 H138       -5.4172  -16.3818  -44.5133 H         1 UNK         0.1150 
    139 H139       -6.3054  -18.6156  -45.4387 H         1 UNK         0.0800 
    140 H140       -5.2060  -19.6838  -46.2605 H         1 UNK         0.0800 
    141 H141       -2.5728  -20.1009  -43.0732 H         1 UNK         0.0800 
    142 H142       -2.5340  -18.9811  -44.3898 H         1 UNK         0.0800 
    143 H143       -3.3429  -21.0175  -45.8813 H         1 UNK         0.0600 
    144 H144       -0.7542  -20.1331  -45.2919 H         1 UNK         0.3000 
    145 H145        1.0418  -22.4129  -47.3812 H         1 UNK         0.0600 
    146 H146        1.8245  -20.4333  -48.4714 H         1 UNK         0.0600 
    147 H147        0.1163  -20.5438  -48.8480 H         1 UNK         0.0600 
    148 H148        0.6682  -19.3960  -47.6348 H         1 UNK         0.0600 
    149 H149        1.6324  -20.1709  -45.5802 H         1 UNK         0.3000 
    150 H150        2.2236  -22.2134  -42.7562 H         1 UNK         0.0600 
    151 H151        4.4011  -22.4852  -43.8815 H         1 UNK         0.0600 
    152 H152        4.4686  -21.1357  -42.7582 H         1 UNK         0.0600 
    153 H153        4.3379  -20.8398  -44.4903 H         1 UNK         0.0600 
    154 H154        2.5705  -19.4029  -43.4100 H         1 UNK         0.3000 
    155 H155       -0.7631  -18.4673  -42.5719 H         1 UNK         0.0600 
    156 H156        0.1899  -18.8117  -40.2835 H         1 UNK         0.0600 
    157 H157        0.2516  -17.1249  -40.7659 H         1 UNK         0.0600 
    158 H158        1.7157  -18.1086  -40.8075 H         1 UNK         0.0600 
    159 H159        1.5363  -16.8684  -42.9381 H         1 UNK         0.3000 
    160 H160        0.7952  -15.8838  -46.0246 H         1 UNK         0.0600 
    161 H161        3.0586  -15.9903  -43.9403 H         1 UNK         0.0600 
    162 H162        1.6648  -14.9086  -43.9345 H         1 UNK         0.0600 
    163 H163        2.8893  -14.7652  -45.1795 H         1 UNK         0.0600 
    164 H164        2.3069  -16.6952  -47.4156 H         1 UNK         0.3000 
    165 H165        5.1617  -17.7192  -47.4382 H         1 UNK         0.0600 
    166 H166        5.3227  -20.1209  -48.2140 H         1 UNK         0.0600 
    167 H167        5.4109  -19.9536  -46.4712 H         1 UNK         0.0600 
    168 H168        3.9213  -20.5152  -47.2210 H         1 UNK         0.0600 
    169 H169        2.6391  -18.6506  -48.7394 H         1 UNK         0.3000 
    170 H170        3.4739  -17.5443  -51.7970 H         1 UNK         0.0600 
    171 H171        1.0728  -18.1276  -49.9726 H         1 UNK         0.0600 
    172 H172        1.1198  -18.2423  -51.7222 H         1 UNK         0.0600 
    173 H173        2.0811  -19.3466  -50.7642 H         1 UNK         0.0600 
    174 H174        2.5053  -15.5652  -51.9833 H         1 UNK         0.3000 
    175 H175        1.7519  -13.5871  -51.5656 H         1 UNK         0.0600 
    176 H176       -0.8031  -14.1035  -49.9509 H         1 UNK         0.0600 
    177 H177       -0.6302  -12.9841  -51.3021 H         1 UNK         0.0600 
    178 H178       -0.4916  -14.7145  -51.5718 H         1 UNK         0.0600 
    179 H179        0.7335  -12.3628  -49.2016 H         1 UNK         0.3000 
    180 H180        3.5995  -11.3683  -47.6332 H         1 UNK         0.0600 
    181 H181        2.4383   -9.5039  -49.7729 H         1 UNK         0.0600 
    182 H182        4.1393   -9.9105  -49.5829 H         1 UNK         0.0600 
    183 H183        3.3169   -8.9984  -48.3287 H         1 UNK         0.0600 
    184 H184        1.0249  -10.0926  -47.8551 H         1 UNK         0.3000 
    185 H185       -0.1777  -10.3078  -45.6689 H         1 UNK         0.0600 
    186 H186       -1.4345  -12.5467  -47.3800 H         1 UNK         0.0600 
    187 H187       -2.3527  -11.3089  -46.5240 H         1 UNK         0.0600 
    188 H188       -1.2917  -10.8570  -47.8432 H         1 UNK         0.0600 
    189 H189        0.1623  -13.0392  -44.8670 H         1 UNK         0.3000 
    190 H190       -1.0754  -22.2437  -43.3890 H         1 UNK         0.3000 
    191 H191       -2.6574  -24.3547  -42.3912 H         1 UNK         0.0600 
    192 H192        0.3916  -24.1129  -42.6104 H         1 UNK         0.0600 
    193 H193       -0.5999  -23.4975  -41.2893 H         1 UNK         0.0600 
    194 H194       -0.4706  -25.2291  -41.5585 H         1 UNK         0.0600 
    195 H195       -0.9220  -24.1181  -45.4103 H         1 UNK         0.3000 
    196 H196       -1.2067  -26.9949  -46.0557 H         1 UNK         0.0600 
    197 H197        0.9635  -25.8298  -46.5401 H         1 UNK         0.0600 
    198 H198        0.1219  -24.7162  -47.6125 H         1 UNK         0.0600 
    199 H199        0.1942  -26.4297  -47.9994 H         1 UNK         0.0600 
    200 H200       -3.4535  -24.8042  -45.8231 H         1 UNK         0.3000 
    201 H201       -5.4406  -24.4055  -46.6779 H         1 UNK         0.0600 
    202 H202       -6.5437  -26.0469  -48.1464 H         1 UNK         0.0600 
    203 H203       -5.6311  -26.8860  -46.9024 H         1 UNK         0.0600 
    204 H204       -5.0068  -26.7951  -48.5487 H         1 UNK         0.0600 
    205 H205       -3.5944  -22.7219  -47.4603 H         1 UNK         0.3000 
    206 H206       -3.1046  -21.0193  -48.7905 H         1 UNK         0.0600 
    207 H207       -5.5797  -20.7080  -49.0325 H         1 UNK         0.0600 
    208 H208       -5.5607  -21.7092  -50.4850 H         1 UNK         0.0600 
    209 H209       -4.6838  -20.1832  -50.4426 H         1 UNK         0.0600 
    210 H210       -1.6687  -23.1648  -49.0200 H         1 UNK         0.3000 
    211 H211       -0.1864  -24.3888  -50.1330 H         1 UNK         0.0600 
    212 H212        0.6305  -22.1394  -50.8837 H         1 UNK         0.0600 
    213 H213        0.9468  -23.3830  -52.0845 H         1 UNK         0.0600 
    214 H214       -0.3760  -22.2542  -52.3258 H         1 UNK         0.0600 
    215 H215       -2.3786  -25.6950  -50.1659 H         1 UNK         0.3000 
    216 H216       -3.8034  -27.1084  -51.0687 H         1 UNK         0.0600 
    217 H217       -2.9666  -28.6034  -52.8524 H         1 UNK         0.0600 
    218 H218       -1.7136  -27.4483  -53.2878 H         1 UNK         0.0600 
    219 H219       -1.6726  -28.2520  -51.7188 H         1 UNK         0.0600 
    220 H220       -4.4140  -24.4965  -51.5786 H         1 UNK         0.3000 
    221 H221       -5.5923  -23.0287  -52.6669 H         1 UNK         0.0600 
    222 H222       -6.7719  -25.3432  -54.2876 H         1 UNK         0.0600 
    223 H223       -7.3076  -24.8520  -52.6804 H         1 UNK         0.0600 
    224 H224       -7.4960  -23.7607  -54.0416 H         1 UNK         0.0600 
    225 H225       -2.9132  -24.0526  -54.0124 H         1 UNK         0.3000 
    226 H226       -3.2623  -23.2112  -56.7796 H         1 UNK         0.0600 
    227 H227       -1.5802  -24.9562  -56.0483 H         1 UNK         0.0600 
    228 H228       -0.8829  -23.6410  -56.9840 H         1 UNK         0.0600 
    229 H229       -0.6607  -23.6827  -55.2439 H         1 UNK         0.0600 
    230 H230       -2.1811  -21.7243  -53.7274 H         1 UNK         0.3000 
    231 H231       -1.4365  -19.1839  -55.0482 H         1 UNK         0.0600 
    232 H232       -0.9994  -18.4096  -52.7427 H         1 UNK         0.0600 
    233 H233       -0.1292  -19.9012  -53.0729 H         1 UNK         0.0600 
    234 H234       -1.5838  -19.9235  -52.0774 H         1 UNK         0.0600 
    235 H235       -3.9727  -20.5676  -52.9769 H         1 UNK         0.3000 
    236 H236       -6.0799  -20.0806  -52.5100 H         1 UNK         0.0600 
    237 H237       -6.3536  -20.1781  -54.9984 H         1 UNK         0.0600 
    238 H238       -7.5259  -19.1154  -54.2403 H         1 UNK         0.0600 
    239 H239       -6.1457  -18.4301  -55.0857 H         1 UNK         0.0600 
    240 H240       -3.9181  -18.2194  -51.5807 H         1 UNK         0.3000 
    241 H241       -5.1112  -15.6444  -51.1682 H         1 UNK         0.0600 
    242 H242       -6.3737  -15.7240  -47.8064 H         1 UNK         0.3800 
    243 H243       -5.5111  -14.6874  -48.9052 H         1 UNK         0.3800 
    244 H244       -2.7467  -15.7002  -51.2336 H         1 UNK         0.0800 
    245 H245       -3.1543  -15.3000  -49.5984 H         1 UNK         0.0800 
    246 H246       -0.9793  -15.9520  -48.3453 H         1 UNK         0.0800 
    247 H247       -0.7522  -17.5976  -47.8198 H         1 UNK         0.0800 
@<TRIPOS>BOND
     1    1    2 1    
     2    1  127 1    
     3    1  128 1    
     4    1  129 1    
     5    2    3 2    
     6    2    4 am   BACKBONE|DICT|INTERRES
     7    4    5 1    
     8    4  130 1    
     9    5    6 1    
    10    5   65 1    
    11    5  131 1    
    12    6    7 1    
    13    6  132 1    
    14    6  133 1    
    15    7    8 1    
    16    8    9 1    
    17    8  134 1    
    18    8  135 1    
    19    9   10 ar   
    20    9   14 ar   
    21   10   11 ar   
    22   10  136 1    
    23   11   12 ar   
    24   11  126 1    
    25   12   13 ar   
    26   12  137 1    
    27   13   14 ar   
    28   13   15 1    
    29   14  138 1    
    30   15   16 1    
    31   15  139 1    
    32   15  140 1    
    33   16   17 1    
    34   17   18 1    
    35   17  141 1    
    36   17  142 1    
    37   18   19 1    
    38   18   67 1    
    39   18  143 1    
    40   19   20 am   BACKBONE|DICT|INTERRES
    41   19  144 1    
    42   20   21 2    
    43   20   22 1    
    44   22   23 1    
    45   22   24 1    
    46   22  145 1    
    47   23  146 1    
    48   23  147 1    
    49   23  148 1    
    50   24   25 am   BACKBONE|DICT|INTERRES
    51   24  149 1    
    52   25   26 2    
    53   25   27 1    
    54   27   28 1    
    55   27   29 1    
    56   27  150 1    
    57   28  151 1    
    58   28  152 1    
    59   28  153 1    
    60   29   30 am   BACKBONE|DICT|INTERRES
    61   29  154 1    
    62   30   31 2    
    63   30   32 1    
    64   32   33 1    
    65   32   34 1    
    66   32  155 1    
    67   33  156 1    
    68   33  157 1    
    69   33  158 1    
    70   34   35 am   BACKBONE|DICT|INTERRES
    71   34  159 1    
    72   35   36 2    
    73   35   37 1    
    74   37   38 1    
    75   37   39 1    
    76   37  160 1    
    77   38  161 1    
    78   38  162 1    
    79   38  163 1    
    80   39   40 am   BACKBONE|DICT|INTERRES
    81   39  164 1    
    82   40   41 2    
    83   40   42 1    
    84   42   43 1    
    85   42   44 1    
    86   42  165 1    
    87   43  166 1    
    88   43  167 1    
    89   43  168 1    
    90   44   45 am   BACKBONE|DICT|INTERRES
    91   44  169 1    
    92   45   46 2    
    93   45   47 1    
    94   47   48 1    
    95   47   49 1    
    96   47  170 1    
    97   48  171 1    
    98   48  172 1    
    99   48  173 1    
   100   49   50 am   BACKBONE|DICT|INTERRES
   101   49  174 1    
   102   50   51 2    
   103   50   52 1    
   104   52   53 1    
   105   52   54 1    
   106   52  175 1    
   107   53  176 1    
   108   53  177 1    
   109   53  178 1    
   110   54   55 am   BACKBONE|DICT|INTERRES
   111   54  179 1    
   112   55   56 2    
   113   55   57 1    
   114   57   58 1    
   115   57   59 1    
   116   57  180 1    
   117   58  181 1    
   118   58  182 1    
   119   58  183 1    
   120   59   60 am   BACKBONE|DICT|INTERRES
   121   59  184 1    
   122   60   61 2    
   123   60   62 1    
   124   62   63 1    
   125   62   64 1    
   126   62  185 1    
   127   63  186 1    
   128   63  187 1    
   129   63  188 1    
   130   64   65 am   BACKBONE|DICT|INTERRES
   131   64  189 1    
   132   65   66 2    
   133   67   68 2    
   134   67   69 am   BACKBONE|DICT|INTERRES
   135   69   70 1    
   136   69  190 1    
   137   70   71 1    
   138   70   72 1    
   139   70  191 1    
   140   71  192 1    
   141   71  193 1    
   142   71  194 1    
   143   72   73 2    
   144   72   74 am   BACKBONE|DICT|INTERRES
   145   74   75 1    
   146   74  195 1    
   147   75   76 1    
   148   75   77 1    
   149   75  196 1    
   150   76  197 1    
   151   76  198 1    
   152   76  199 1    
   153   77   78 2    
   154   77   79 am   BACKBONE|DICT|INTERRES
   155   79   80 1    
   156   79  200 1    
   157   80   81 1    
   158   80   82 1    
   159   80  201 1    
   160   81  202 1    
   161   81  203 1    
   162   81  204 1    
   163   82   83 2    
   164   82   84 am   BACKBONE|DICT|INTERRES
   165   84   85 1    
   166   84  205 1    
   167   85   86 1    
   168   85   87 1    
   169   85  206 1    
   170   86  207 1    
   171   86  208 1    
   172   86  209 1    
   173   87   88 2    
   174   87   89 am   BACKBONE|DICT|INTERRES
   175   89   90 1    
   176   89  210 1    
   177   90   91 1    
   178   90   92 1    
   179   90  211 1    
   180   91  212 1    
   181   91  213 1    
   182   91  214 1    
   183   92   93 2    
   184   92   94 am   BACKBONE|DICT|INTERRES
   185   94   95 1    
   186   94  215 1    
   187   95   96 1    
   188   95   97 1    
   189   95  216 1    
   190   96  217 1    
   191   96  218 1    
   192   96  219 1    
   193   97   98 2    
   194   97   99 am   BACKBONE|DICT|INTERRES
   195   99  100 1    
   196   99  220 1    
   197  100  101 1    
   198  100  102 1    
   199  100  221 1    
   200  101  222 1    
   201  101  223 1    
   202  101  224 1    
   203  102  103 2    
   204  102  104 am   BACKBONE|DICT|INTERRES
   205  104  105 1    
   206  104  225 1    
   207  105  106 1    
   208  105  107 1    
   209  105  226 1    
   210  106  227 1    
   211  106  228 1    
   212  106  229 1    
   213  107  108 2    
   214  107  109 am   BACKBONE|DICT|INTERRES
   215  109  110 1    
   216  109  230 1    
   217  110  111 1    
   218  110  112 1    
   219  110  231 1    
   220  111  232 1    
   221  111  233 1    
   222  111  234 1    
   223  112  113 2    
   224  112  114 am   BACKBONE|DICT|INTERRES
   225  114  115 1    
   226  114  235 1    
   227  115  116 1    
   228  115  117 1    
   229  115  236 1    
   230  116  237 1    
   231  116  238 1    
   232  116  239 1    
   233  117  118 2    
   234  117  119 am   BACKBONE|DICT|INTERRES
   235  119  120 1    
   236  119  240 1    
   237  120  121 1    
   238  120  124 1    
   239  120  241 1    
   240  121  122 am   BACKBONE|DICT|INTERRES
   241  121  123 2    
   242  122  242 1    
   243  122  243 1    
   244  124  125 1    
   245  124  244 1    
   246  124  245 1    
   247  125  126 1    
   248  126  246 1    
   249  126  247 1    
@<TRIPOS>SUBSTRUCTURE
     1 UNK         1 GROUP             0       ****    0 ROOT    
