@<TRIPOS>MOLECULE
3R540
247   249    1
SMALL
USER_CHARGES


@<TRIPOS>ATOM
      1 CA         -4.7791  -18.1422  -46.7086 C.3       0 UNK        -0.1800 
      2 C          -4.7847  -16.6241  -46.6049 C.2       0 UNK         0.5000 
      3 O          -5.7102  -16.0456  -46.0347 O.2       0 UNK        -0.5000 
      4 N          -3.7432  -15.9729  -47.1349 N.am      1 UNK        -0.5000 
      5 CA         -3.5346  -14.5206  -47.1213 C.3       1 UNK         0.1400 
      6 C6         -2.6902  -14.0587  -48.3405 C.3       23 UNK        -0.0398 
      7 S7         -1.0411  -14.8378  -48.4744 S.3       23 UNK        -0.2404 
      8 C8         -1.3123  -16.1007  -49.7519 C.3       23 UNK        -0.0205 
      9 C9         -0.0248  -16.8624  -50.0106 C.ar      23 UNK        -0.0193 
     10 C10         0.7843  -16.5232  -51.0967 C.ar      23 UNK        -0.1150 
     11 C11         1.9926  -17.1900  -51.3230 C.ar      23 UNK        -0.0193 
     12 C12         2.3862  -18.2036  -50.4416 C.ar      23 UNK        -0.1150 
     13 C13         1.5918  -18.5426  -49.3400 C.ar      23 UNK        -0.0193 
     14 C14         0.3808  -17.8752  -49.1379 C.ar      23 UNK        -0.1150 
     15 C15         2.0776  -19.5781  -48.3338 C.3       23 UNK        -0.0205 
     16 S16         1.5484  -21.2651  -48.7532 S.3       23 UNK        -0.2404 
     17 C17        -0.1938  -21.2867  -48.2115 C.3       23 UNK        -0.0398 
     18 CA         -0.5196  -22.5791  -47.4337 C.3       11 UNK         0.1400 
     19 N           0.1236  -22.5974  -46.1207 N.am      11 UNK        -0.5000 
     20 C           0.3279  -23.7018  -45.3941 C.2       10 UNK         0.5000 
     21 O           0.0152  -24.8329  -45.7652 O.2       10 UNK        -0.5000 
     22 CA          0.9531  -23.4931  -44.0044 C.3       10 UNK         0.1400 
     23 CB          2.4848  -23.4299  -44.1006 C.3       10 UNK        -0.1800 
     24 N           0.4519  -22.2777  -43.3593 N.am      10 UNK        -0.5000 
     25 C          -0.7917  -22.1512  -42.8734 C.2       9 UNK         0.5000 
     26 O          -1.6280  -23.0539  -42.9032 O.2       9 UNK        -0.5000 
     27 CA         -1.1843  -20.7769  -42.2974 C.3       9 UNK         0.1400 
     28 CB         -0.7718  -20.6731  -40.8218 C.3       9 UNK        -0.1800 
     29 N          -0.6158  -19.6495  -43.0386 N.am      9 UNK        -0.5000 
     30 C          -0.8674  -19.3791  -44.3264 C.2       8 UNK         0.5000 
     31 O          -1.6180  -20.0483  -45.0319 O.2       8 UNK        -0.5000 
     32 CA         -0.1327  -18.1874  -44.9574 C.3       8 UNK         0.1400 
     33 CB         -0.9901  -16.9199  -44.8647 C.3       8 UNK        -0.1800 
     34 N           1.1901  -17.9055  -44.4027 N.am      8 UNK        -0.5000 
     35 C           2.2242  -18.7563  -44.3201 C.2       7 UNK         0.5000 
     36 O           2.1490  -19.9589  -44.5806 O.2       7 UNK        -0.5000 
     37 CA          3.5615  -18.1143  -43.8942 C.3       7 UNK         0.1400 
     38 CB          4.7747  -19.0520  -44.0688 C.3       7 UNK        -0.1800 
     39 N           3.7576  -16.8227  -44.5710 N.am      7 UNK        -0.5000 
     40 C           3.9016  -16.6181  -45.8915 C.2       6 UNK         0.5000 
     41 O           4.0966  -17.5194  -46.7059 O.2       6 UNK        -0.5000 
     42 CA          3.7509  -15.1727  -46.4072 C.3       6 UNK         0.1400 
     43 CB          2.6095  -15.0910  -47.4366 C.3       6 UNK        -0.1800 
     44 N           3.4693  -14.2032  -45.3459 N.am      6 UNK        -0.5000 
     45 C           4.3847  -13.5266  -44.6429 C.2       5 UNK         0.5000 
     46 O           5.5978  -13.6993  -44.7706 O.2       5 UNK        -0.5000 
     47 CA          3.8421  -12.4700  -43.6526 C.3       5 UNK         0.1400 
     48 CB          4.9489  -11.5570  -43.0944 C.3       5 UNK        -0.1800 
     49 N           2.8045  -11.6317  -44.2630 N.am      5 UNK        -0.5000 
     50 C           1.5121  -11.9589  -44.3826 C.2       4 UNK         0.5000 
     51 O           1.0420  -13.0217  -43.9697 O.2       4 UNK        -0.5000 
     52 CA          0.6329  -10.9721  -45.1655 C.3       4 UNK         0.1400 
     53 CB          0.6483  -11.3315  -46.6606 C.3       4 UNK        -0.1800 
     54 N          -0.7457  -11.0196  -44.6859 N.am      4 UNK        -0.5000 
     55 C          -1.2887  -10.1506  -43.8225 C.2       3 UNK         0.5000 
     56 O          -0.6757   -9.1929  -43.3479 O.2       3 UNK        -0.5000 
     57 CA         -2.7664  -10.3600  -43.4250 C.3       3 UNK         0.1400 
     58 CB         -3.6759   -9.4218  -44.2337 C.3       3 UNK        -0.1800 
     59 N          -3.2323  -11.7349  -43.6053 N.am      3 UNK        -0.5000 
     60 C          -2.8720  -12.7688  -42.8348 C.2       2 UNK         0.5000 
     61 O          -2.1919  -12.6491  -41.8149 O.2       2 UNK        -0.5000 
     62 CA         -3.3366  -14.1760  -43.2687 C.3       2 UNK         0.1400 
     63 CB         -4.5006  -14.6534  -42.3868 C.3       2 UNK        -0.1800 
     64 N          -3.7251  -14.3331  -44.6774 N.am      2 UNK        -0.5000 
     65 C          -2.9796  -14.0496  -45.7548 C.2       1 UNK         0.5000 
     66 O          -1.8998  -13.4655  -45.6878 O.2       1 UNK        -0.5000 
     67 C          -2.0396  -22.8274  -47.3300 C.2       11 UNK         0.5000 
     68 O          -2.5979  -23.5192  -48.1819 O.2       11 UNK        -0.5000 
     69 N          -2.6754  -22.3058  -46.2713 N.am      12 UNK        -0.5000 
     70 CA         -4.0716  -22.5600  -45.9142 C.3       12 UNK         0.1400 
     71 CB         -4.4879  -21.6335  -44.7632 C.3       12 UNK        -0.1800 
     72 C          -4.3213  -24.0301  -45.5368 C.2       12 UNK         0.5000 
     73 O          -5.3346  -24.5942  -45.9491 O.2       12 UNK        -0.5000 
     74 N          -3.3758  -24.6358  -44.8010 N.am      13 UNK        -0.5000 
     75 CA         -3.3875  -26.0543  -44.4311 C.3       13 UNK         0.1400 
     76 CB         -2.2576  -26.3407  -43.4314 C.3       13 UNK        -0.1800 
     77 C          -3.3004  -27.0000  -45.6454 C.2       13 UNK         0.5000 
     78 O          -3.8770  -28.0869  -45.6077 O.2       13 UNK        -0.5000 
     79 N          -2.6549  -26.5472  -46.7293 N.am      14 UNK        -0.5000 
     80 CA         -2.6164  -27.2011  -48.0403 C.3       14 UNK         0.1400 
     81 CB         -1.3237  -26.7834  -48.7632 C.3       14 UNK        -0.1800 
     82 C          -3.8868  -26.9048  -48.8727 C.2       14 UNK         0.5000 
     83 O          -3.7935  -26.6024  -50.0642 O.2       14 UNK        -0.5000 
     84 N          -5.0567  -26.9627  -48.2172 N.am      15 UNK        -0.5000 
     85 CA         -6.4137  -26.7503  -48.7412 C.3       15 UNK         0.1400 
     86 CB         -6.7967  -27.9088  -49.6851 C.3       15 UNK        -0.1800 
     87 C          -6.6453  -25.3692  -49.3962 C.2       15 UNK         0.5000 
     88 O          -7.5679  -25.2247  -50.1993 O.2       15 UNK        -0.5000 
     89 N          -5.7812  -24.3945  -49.0749 N.am      16 UNK        -0.5000 
     90 CA         -5.6513  -23.0633  -49.6786 C.3       16 UNK         0.1400 
     91 CB         -6.9171  -22.2144  -49.4503 C.3       16 UNK        -0.1800 
     92 C          -5.2144  -23.0761  -51.1603 C.2       16 UNK         0.5000 
     93 O          -5.1314  -22.0091  -51.7699 O.2       16 UNK        -0.5000 
     94 N          -4.8779  -24.2508  -51.7128 N.am      17 UNK        -0.5000 
     95 CA         -4.4264  -24.4235  -53.0953 C.3       17 UNK         0.1400 
     96 CB         -4.4500  -25.9174  -53.4511 C.3       17 UNK        -0.1800 
     97 C          -3.0279  -23.8272  -53.3301 C.2       17 UNK         0.5000 
     98 O          -2.7374  -23.3625  -54.4315 O.2       17 UNK        -0.5000 
     99 N          -2.2069  -23.8221  -52.2728 N.am      18 UNK        -0.5000 
    100 CA        -0.9029  -23.1668  -52.2333 C.3       18 UNK         0.1400 
    101 CB        -0.0124  -23.9213  -51.2349 C.3       18 UNK        -0.1800 
    102 C         -1.0005  -21.6761  -51.8534 C.2       18 UNK         0.5000 
    103 O          0.0078  -20.9804  -51.9385 O.2       18 UNK        -0.5000 
    104 N         -2.1781  -21.2097  -51.4097 N.am      19 UNK        -0.5000 
    105 CA        -2.4181  -19.8137  -51.0422 C.3       19 UNK         0.1400 
    106 CB        -3.3815  -19.7388  -49.8438 C.3       19 UNK        -0.1800 
    107 C         -2.9682  -19.0276  -52.2393 C.2       19 UNK         0.5000 
    108 O         -2.4734  -17.9374  -52.5271 O.2       19 UNK        -0.5000 
    109 N         -3.9701  -19.6039  -52.9203 N.am      20 UNK        -0.5000 
    110 CA        -4.6374  -19.0614  -54.1037 C.3       20 UNK         0.1400 
    111 CB        -5.7551  -20.0292  -54.5254 C.3       20 UNK        -0.1800 
    112 C         -3.6446  -18.8125  -55.2540 C.2       20 UNK         0.5000 
    113 O         -3.1960  -19.7681  -55.8900 O.2       20 UNK        -0.5000 
    114 N         -3.2683  -17.5386  -55.4435 N.am      21 UNK        -0.5000 
    115 CA        -2.2476  -17.0458  -56.3799 C.3       21 UNK         0.1400 
    116 CB        -2.7502  -17.1700  -57.8335 C.3       21 UNK        -0.1800 
    117 C         -0.8581  -17.6931  -56.1702 C.2       21 UNK         0.5000 
    118 O         -0.1050  -17.8582  -57.1316 O.2       21 UNK        -0.5000 
    119 N         -0.5634  -18.0721  -54.9186 N.am      22 UNK        -0.5000 
    120 CA         0.6020  -18.8700  -54.4984 C.3       22 UNK         0.1400 
    121 C          0.5983  -20.3407  -55.0307 C.2       22 UNK         0.5000 
    122 N         -0.5168  -20.8810  -55.5111 N.am      22 UNK        -0.7600 
    123 O          1.6211  -21.0201  -54.9963 O.2       22 UNK        -0.5000 
    124 C124        1.9699  -18.1686  -54.7343 C.3       23 UNK        -0.0398 
    125 S125        2.0681  -16.4801  -54.0478 S.3       23 UNK        -0.2404 
    126 C126        2.9194  -16.7556  -52.4555 C.3       23 UNK        -0.0205 
    127 H127       -3.7677  -18.5360  -46.8156 H         1 UNK         0.0600 
    128 H128       -5.3699  -18.4641  -47.5661 H         1 UNK         0.0600 
    129 H129       -5.2177  -18.5770  -45.8111 H         1 UNK         0.0600 
    130 H130       -2.9895  -16.5001  -47.5485 H         1 UNK         0.3000 
    131 H131       -4.5093  -14.0392  -47.2264 H         1 UNK         0.0600 
    132 H132       -2.5495  -12.9769  -48.3105 H         1 UNK         0.0800 
    133 H133       -3.2462  -14.2498  -49.2592 H         1 UNK         0.0800 
    134 H134       -1.6659  -15.6276  -50.6696 H         1 UNK         0.0800 
    135 H135       -2.0940  -16.7911  -49.4375 H         1 UNK         0.0800 
    136 H136        0.4827  -15.7204  -51.7544 H         1 UNK         0.1150 
    137 H137        3.3307  -18.7076  -50.5898 H         1 UNK         0.1150 
    138 H138       -0.2353  -18.1175  -48.2859 H         1 UNK         0.1150 
    139 H139        3.1678  -19.5621  -48.2976 H         1 UNK         0.0800 
    140 H140        1.7492  -19.3220  -47.3272 H         1 UNK         0.0800 
    141 H141       -0.8062  -21.2104  -49.1042 H         1 UNK         0.0800 
    142 H142       -0.4220  -20.4078  -47.6084 H         1 UNK         0.0800 
    143 H143       -0.1170  -23.4198  -48.0021 H         1 UNK         0.0600 
    144 H144        0.4162  -21.7089  -45.7399 H         1 UNK         0.3000 
    145 H145        0.6859  -24.3509  -43.3834 H         1 UNK         0.0600 
    146 H146        2.9378  -23.3169  -43.1156 H         1 UNK         0.0600 
    147 H147        2.8848  -24.3445  -44.5401 H         1 UNK         0.0600 
    148 H148        2.8178  -22.5964  -44.7203 H         1 UNK         0.0600 
    149 H149        1.0643  -21.4711  -43.3679 H         1 UNK         0.3000 
    150 H150       -2.2717  -20.6952  -42.3532 H         1 UNK         0.0600 
    151 H151       -1.1983  -21.4908  -40.2390 H         1 UNK         0.0600 
    152 H152       -1.1241  -19.7417  -40.3781 H         1 UNK         0.0600 
    153 H153        0.3115  -20.7145  -40.7022 H         1 UNK         0.0600 
    154 H154        0.0254  -19.0510  -42.5397 H         1 UNK         0.3000 
    155 H155        0.0042  -18.4247  -46.0118 H         1 UNK         0.0600 
    156 H156       -1.0709  -16.5699  -43.8357 H         1 UNK         0.0600 
    157 H157       -2.0011  -17.1020  -45.2283 H         1 UNK         0.0600 
    158 H158       -0.5687  -16.1112  -45.4630 H         1 UNK         0.0600 
    159 H159        1.3593  -16.9428  -44.1530 H         1 UNK         0.3000 
    160 H160        3.4704  -17.8942  -42.8297 H         1 UNK         0.0600 
    161 H161        4.8771  -19.4058  -45.0948 H         1 UNK         0.0600 
    162 H162        4.6756  -19.9333  -43.4341 H         1 UNK         0.0600 
    163 H163        5.7026  -18.5529  -43.7903 H         1 UNK         0.0600 
    164 H164        3.6348  -16.0031  -43.9945 H         1 UNK         0.3000 
    165 H165        4.6830  -14.9046  -46.9087 H         1 UNK         0.0600 
    166 H166        1.6547  -15.3889  -47.0013 H         1 UNK         0.0600 
    167 H167        2.4971  -14.0793  -47.8268 H         1 UNK         0.0600 
    168 H168        2.7957  -15.7455  -48.2894 H         1 UNK         0.0600 
    169 H169        2.4933  -14.0071  -45.1545 H         1 UNK         0.3000 
    170 H170        3.4096  -13.0147  -42.8107 H         1 UNK         0.0600 
    171 H171        5.4448  -10.9944  -43.8864 H         1 UNK         0.0600 
    172 H172        4.5453  -10.8420  -42.3771 H         1 UNK         0.0600 
    173 H173        5.7123  -12.1373  -42.5744 H         1 UNK         0.0600 
    174 H174        3.1248  -10.7657  -44.6726 H         1 UNK         0.3000 
    175 H175        1.0386   -9.9648  -45.0498 H         1 UNK         0.0600 
    176 H176        0.2906  -12.3471  -46.8364 H         1 UNK         0.0600 
    177 H177        0.0193  -10.6524  -47.2363 H         1 UNK         0.0600 
    178 H178        1.6573  -11.2666  -47.0697 H         1 UNK         0.0600 
    179 H179       -1.2754  -11.8405  -44.9709 H         1 UNK         0.3000 
    180 H180       -2.8625  -10.0996  -42.3689 H         1 UNK         0.0600 
    181 H181       -4.7148   -9.5066  -43.9144 H         1 UNK         0.0600 
    182 H182       -3.6322   -9.6413  -45.3013 H         1 UNK         0.0600 
    183 H183       -3.3805   -8.3802  -44.1005 H         1 UNK         0.0600 
    184 H184       -3.7882  -11.9245  -44.4257 H         1 UNK         0.3000 
    185 H185       -2.4906  -14.8425  -43.0974 H         1 UNK         0.0600 
    186 H186       -5.3951  -14.0495  -42.5443 H         1 UNK         0.0600 
    187 H187       -4.7551  -15.6925  -42.5972 H         1 UNK         0.0600 
    188 H188       -4.2441  -14.5919  -41.3282 H         1 UNK         0.0600 
    189 H189       -4.5974  -14.8232  -44.8470 H         1 UNK         0.3000 
    190 H190       -2.1695  -21.6642  -45.6647 H         1 UNK         0.3000 
    191 H191       -4.6904  -22.3220  -46.7807 H         1 UNK         0.0600 
    192 H192       -5.5476  -21.7493  -44.5328 H         1 UNK         0.0600 
    193 H193       -4.3213  -20.5883  -45.0180 H         1 UNK         0.0600 
    194 H194       -3.9285  -21.8451  -43.8521 H         1 UNK         0.0600 
    195 H195       -2.6038  -24.0825  -44.4461 H         1 UNK         0.3000 
    196 H196       -4.3373  -26.2548  -43.9312 H         1 UNK         0.0600 
    197 H197       -1.2764  -26.1417  -43.8611 H         1 UNK         0.0600 
    198 H198       -2.3607  -25.7301  -42.5342 H         1 UNK         0.0600 
    199 H199       -2.2711  -27.3847  -43.1161 H         1 UNK         0.0600 
    200 H200       -2.2173  -25.6374  -46.6739 H         1 UNK         0.3000 
    201 H201       -2.5777  -28.2824  -47.8952 H         1 UNK         0.0600 
    202 H202       -1.3085  -25.7142  -48.9691 H         1 UNK         0.0600 
    203 H203       -1.2187  -27.3036  -49.7160 H         1 UNK         0.0600 
    204 H204       -0.4433  -27.0198  -48.1653 H         1 UNK         0.0600 
    205 H205       -5.0107  -27.2043  -47.2347 H         1 UNK         0.3000 
    206 H206       -7.0802  -26.7879  -47.8786 H         1 UNK         0.0600 
    207 H207       -6.6450  -28.8755  -49.2049 H         1 UNK         0.0600 
    208 H208       -7.8476  -27.8542  -49.9716 H         1 UNK         0.0600 
    209 H209       -6.2061  -27.8934  -50.6019 H         1 UNK         0.0600 
    210 H210       -5.0683  -24.6282  -48.3960 H         1 UNK         0.3000 
    211 H211       -4.8385  -22.5723  -49.1451 H         1 UNK         0.0600 
    212 H212       -6.7564  -21.1813  -49.7608 H         1 UNK         0.0600 
    213 H213       -7.1930  -22.1953  -48.3960 H         1 UNK         0.0600 
    214 H214       -7.7691  -22.5925  -50.0152 H         1 UNK         0.0600 
    215 H215       -4.8885  -25.0824  -51.1335 H         1 UNK         0.3000 
    216 H216       -5.1266  -23.9018  -53.7513 H         1 UNK         0.0600 
    217 H217       -3.7612  -26.4906  -52.8293 H         1 UNK         0.0600 
    218 H218       -4.1624  -26.0750  -54.4913 H         1 UNK         0.0600 
    219 H219       -5.4473  -26.3380  -53.3211 H         1 UNK         0.0600 
    220 H220       -2.5293  -24.2489  -51.4151 H         1 UNK         0.3000 
    221 H221       -0.4346  -23.2233  -53.2184 H         1 UNK         0.0600 
    222 H222        0.1090  -24.9657  -51.5226 H         1 UNK         0.0600 
    223 H223       -0.4354  -23.8962  -50.2323 H         1 UNK         0.0600 
    224 H224        0.9835  -23.4792  -51.1830 H         1 UNK         0.0600 
    225 H225       -2.9811  -21.8225  -51.4234 H         1 UNK         0.3000 
    226 H226       -1.4800  -19.3448  -50.7403 H         1 UNK         0.0600 
    227 H227       -4.3629  -20.1485  -50.0787 H         1 UNK         0.0600 
    228 H228       -2.9948  -20.2788  -48.9805 H         1 UNK         0.0600 
    229 H229       -3.5345  -18.7047  -49.5359 H         1 UNK         0.0600 
    230 H230       -4.3233  -20.4984  -52.5923 H         1 UNK         0.3000 
    231 H231       -5.0994  -18.1125  -53.8242 H         1 UNK         0.0600 
    232 H232       -5.3633  -21.0217  -54.7533 H         1 UNK         0.0600 
    233 H233       -6.2733  -19.6664  -55.4138 H         1 UNK         0.0600 
    234 H234       -6.4987  -20.1399  -53.7358 H         1 UNK         0.0600 
    235 H235       -3.6509  -16.8392  -54.8220 H         1 UNK         0.3000 
    236 H236       -2.1198  -15.9842  -56.1638 H         1 UNK         0.0600 
    237 H237       -3.7237  -16.6954  -57.9561 H         1 UNK         0.0600 
    238 H238       -2.0648  -16.6841  -58.5289 H         1 UNK         0.0600 
    239 H239       -2.8438  -18.2121  -58.1406 H         1 UNK         0.0600 
    240 H240       -1.2477  -17.8956  -54.1906 H         1 UNK         0.3000 
    241 H241        0.4908  -18.9626  -53.4191 H         1 UNK         0.0600 
    242 H242       -0.5015  -21.8347  -55.8340 H         1 UNK         0.3800 
    243 H243       -1.3844  -20.3569  -55.5735 H         1 UNK         0.3800 
    244 H244        2.1838  -18.1086  -55.8021 H         1 UNK         0.0800 
    245 H245        2.7782  -18.7634  -54.3066 H         1 UNK         0.0800 
    246 H246        3.7318  -17.4705  -52.5934 H         1 UNK         0.0800 
    247 H247        3.3909  -15.8186  -52.1572 H         1 UNK         0.0800 
@<TRIPOS>BOND
     1    1    2 1    
     2    1  127 1    
     3    1  128 1    
     4    1  129 1    
     5    2    3 2    
     6    2    4 am   BACKBONE|DICT|INTERRES
     7    4    5 1    
     8    4  130 1    
     9    5    6 1    
    10    5   65 1    
    11    5  131 1    
    12    6    7 1    
    13    6  132 1    
    14    6  133 1    
    15    7    8 1    
    16    8    9 1    
    17    8  134 1    
    18    8  135 1    
    19    9   10 ar   
    20    9   14 ar   
    21   10   11 ar   
    22   10  136 1    
    23   11   12 ar   
    24   11  126 1    
    25   12   13 ar   
    26   12  137 1    
    27   13   14 ar   
    28   13   15 1    
    29   14  138 1    
    30   15   16 1    
    31   15  139 1    
    32   15  140 1    
    33   16   17 1    
    34   17   18 1    
    35   17  141 1    
    36   17  142 1    
    37   18   19 1    
    38   18   67 1    
    39   18  143 1    
    40   19   20 am   BACKBONE|DICT|INTERRES
    41   19  144 1    
    42   20   21 2    
    43   20   22 1    
    44   22   23 1    
    45   22   24 1    
    46   22  145 1    
    47   23  146 1    
    48   23  147 1    
    49   23  148 1    
    50   24   25 am   BACKBONE|DICT|INTERRES
    51   24  149 1    
    52   25   26 2    
    53   25   27 1    
    54   27   28 1    
    55   27   29 1    
    56   27  150 1    
    57   28  151 1    
    58   28  152 1    
    59   28  153 1    
    60   29   30 am   BACKBONE|DICT|INTERRES
    61   29  154 1    
    62   30   31 2    
    63   30   32 1    
    64   32   33 1    
    65   32   34 1    
    66   32  155 1    
    67   33  156 1    
    68   33  157 1    
    69   33  158 1    
    70   34   35 am   BACKBONE|DICT|INTERRES
    71   34  159 1    
    72   35   36 2    
    73   35   37 1    
    74   37   38 1    
    75   37   39 1    
    76   37  160 1    
    77   38  161 1    
    78   38  162 1    
    79   38  163 1    
    80   39   40 am   BACKBONE|DICT|INTERRES
    81   39  164 1    
    82   40   41 2    
    83   40   42 1    
    84   42   43 1    
    85   42   44 1    
    86   42  165 1    
    87   43  166 1    
    88   43  167 1    
    89   43  168 1    
    90   44   45 am   BACKBONE|DICT|INTERRES
    91   44  169 1    
    92   45   46 2    
    93   45   47 1    
    94   47   48 1    
    95   47   49 1    
    96   47  170 1    
    97   48  171 1    
    98   48  172 1    
    99   48  173 1    
   100   49   50 am   BACKBONE|DICT|INTERRES
   101   49  174 1    
   102   50   51 2    
   103   50   52 1    
   104   52   53 1    
   105   52   54 1    
   106   52  175 1    
   107   53  176 1    
   108   53  177 1    
   109   53  178 1    
   110   54   55 am   BACKBONE|DICT|INTERRES
   111   54  179 1    
   112   55   56 2    
   113   55   57 1    
   114   57   58 1    
   115   57   59 1    
   116   57  180 1    
   117   58  181 1    
   118   58  182 1    
   119   58  183 1    
   120   59   60 am   BACKBONE|DICT|INTERRES
   121   59  184 1    
   122   60   61 2    
   123   60   62 1    
   124   62   63 1    
   125   62   64 1    
   126   62  185 1    
   127   63  186 1    
   128   63  187 1    
   129   63  188 1    
   130   64   65 am   BACKBONE|DICT|INTERRES
   131   64  189 1    
   132   65   66 2    
   133   67   68 2    
   134   67   69 am   BACKBONE|DICT|INTERRES
   135   69   70 1    
   136   69  190 1    
   137   70   71 1    
   138   70   72 1    
   139   70  191 1    
   140   71  192 1    
   141   71  193 1    
   142   71  194 1    
   143   72   73 2    
   144   72   74 am   BACKBONE|DICT|INTERRES
   145   74   75 1    
   146   74  195 1    
   147   75   76 1    
   148   75   77 1    
   149   75  196 1    
   150   76  197 1    
   151   76  198 1    
   152   76  199 1    
   153   77   78 2    
   154   77   79 am   BACKBONE|DICT|INTERRES
   155   79   80 1    
   156   79  200 1    
   157   80   81 1    
   158   80   82 1    
   159   80  201 1    
   160   81  202 1    
   161   81  203 1    
   162   81  204 1    
   163   82   83 2    
   164   82   84 am   BACKBONE|DICT|INTERRES
   165   84   85 1    
   166   84  205 1    
   167   85   86 1    
   168   85   87 1    
   169   85  206 1    
   170   86  207 1    
   171   86  208 1    
   172   86  209 1    
   173   87   88 2    
   174   87   89 am   BACKBONE|DICT|INTERRES
   175   89   90 1    
   176   89  210 1    
   177   90   91 1    
   178   90   92 1    
   179   90  211 1    
   180   91  212 1    
   181   91  213 1    
   182   91  214 1    
   183   92   93 2    
   184   92   94 am   BACKBONE|DICT|INTERRES
   185   94   95 1    
   186   94  215 1    
   187   95   96 1    
   188   95   97 1    
   189   95  216 1    
   190   96  217 1    
   191   96  218 1    
   192   96  219 1    
   193   97   98 2    
   194   97   99 am   BACKBONE|DICT|INTERRES
   195   99  100 1    
   196   99  220 1    
   197  100  101 1    
   198  100  102 1    
   199  100  221 1    
   200  101  222 1    
   201  101  223 1    
   202  101  224 1    
   203  102  103 2    
   204  102  104 am   BACKBONE|DICT|INTERRES
   205  104  105 1    
   206  104  225 1    
   207  105  106 1    
   208  105  107 1    
   209  105  226 1    
   210  106  227 1    
   211  106  228 1    
   212  106  229 1    
   213  107  108 2    
   214  107  109 am   BACKBONE|DICT|INTERRES
   215  109  110 1    
   216  109  230 1    
   217  110  111 1    
   218  110  112 1    
   219  110  231 1    
   220  111  232 1    
   221  111  233 1    
   222  111  234 1    
   223  112  113 2    
   224  112  114 am   BACKBONE|DICT|INTERRES
   225  114  115 1    
   226  114  235 1    
   227  115  116 1    
   228  115  117 1    
   229  115  236 1    
   230  116  237 1    
   231  116  238 1    
   232  116  239 1    
   233  117  118 2    
   234  117  119 am   BACKBONE|DICT|INTERRES
   235  119  120 1    
   236  119  240 1    
   237  120  121 1    
   238  120  124 1    
   239  120  241 1    
   240  121  122 am   BACKBONE|DICT|INTERRES
   241  121  123 2    
   242  122  242 1    
   243  122  243 1    
   244  124  125 1    
   245  124  244 1    
   246  124  245 1    
   247  125  126 1    
   248  126  246 1    
   249  126  247 1    
@<TRIPOS>SUBSTRUCTURE
     1 UNK         1 GROUP             0       ****    0 ROOT    
