@<TRIPOS>MOLECULE
3R540
247   249    1
SMALL
USER_CHARGES


@<TRIPOS>ATOM
      1 CA         -3.1694  -14.2232  -49.4288 C.3       0 UNK        -0.1800 
      2 C          -2.1932  -14.2463  -48.2627 C.2       0 UNK         0.5000 
      3 O          -0.9901  -14.4017  -48.4718 O.2       0 UNK        -0.5000 
      4 N          -2.6989  -14.0811  -47.0327 N.am      1 UNK        -0.5000 
      5 CA         -1.9400  -14.2182  -45.7810 C.3       1 UNK         0.1400 
      6 C6         -2.8425  -14.2545  -44.5265 C.3       23 UNK        -0.0398 
      7 S7         -4.2280  -15.4460  -44.6014 S.3       23 UNK        -0.2404 
      8 C8         -3.4163  -17.0791  -44.7080 C.3       23 UNK        -0.0205 
      9 C9         -3.1434  -17.4883  -46.1496 C.ar      23 UNK        -0.0193 
     10 C10        -4.2143  -17.7484  -47.0064 C.ar      23 UNK        -0.1150 
     11 C11        -3.9938  -18.0510  -48.3513 C.ar      23 UNK        -0.0193 
     12 C12        -2.6855  -18.0894  -48.8432 C.ar      23 UNK        -0.1150 
     13 C13        -1.6021  -17.8452  -47.9934 C.ar      23 UNK        -0.0193 
     14 C14        -1.8371  -17.5820  -46.6401 C.ar      23 UNK        -0.1150 
     15 C15        -0.1889  -17.7675  -48.5562 C.3       23 UNK        -0.0205 
     16 S16         0.5361  -19.3962  -48.9176 S.3       23 UNK        -0.2404 
     17 C17         0.8458  -20.0618  -47.2473 C.3       23 UNK        -0.0398 
     18 CA          0.4953  -21.5635  -47.1449 C.3       11 UNK         0.1400 
     19 N           1.0393  -22.1696  -45.9341 N.am      11 UNK        -0.5000 
     20 C           1.9652  -23.1375  -45.9141 C.2       10 UNK         0.5000 
     21 O           2.6330  -23.4612  -46.8958 O.2       10 UNK        -0.5000 
     22 CA          2.1746  -23.9033  -44.5886 C.3       10 UNK         0.1400 
     23 CB          3.5370  -23.5477  -43.9731 C.3       10 UNK        -0.1800 
     24 N           1.1364  -23.6787  -43.5796 N.am      10 UNK        -0.5000 
     25 C          -0.1775  -23.9159  -43.7079 C.2       9 UNK         0.5000 
     26 O          -0.6910  -24.4343  -44.6995 O.2       9 UNK        -0.5000 
     27 CA         -1.0806  -23.3843  -42.5779 C.3       9 UNK         0.1400 
     28 CB         -1.3805  -24.4951  -41.5617 C.3       9 UNK        -0.1800 
     29 N          -0.5074  -22.2293  -41.8768 N.am      9 UNK        -0.5000 
     30 C          -0.1859  -21.0525  -42.4346 C.2       8 UNK         0.5000 
     31 O          -0.3872  -20.7721  -43.6215 O.2       8 UNK        -0.5000 
     32 CA          0.6071  -20.0951  -41.5275 C.3       8 UNK         0.1400 
     33 CB          2.1118  -20.3821  -41.6560 C.3       8 UNK        -0.1800 
     34 N           0.3855  -18.6828  -41.8196 N.am      8 UNK        -0.5000 
     35 C          -0.7504  -18.0127  -41.5901 C.2       7 UNK         0.5000 
     36 O          -1.7899  -18.5427  -41.1944 O.2       7 UNK        -0.5000 
     37 CA         -0.6831  -16.4837  -41.8067 C.3       7 UNK         0.1400 
     38 CB         -1.8479  -15.7294  -41.1317 C.3       7 UNK        -0.1800 
     39 N           0.6102  -15.9067  -41.4147 N.am      7 UNK        -0.5000 
     40 C           1.1686  -15.9042  -40.1921 C.2       6 UNK         0.5000 
     41 O           0.6308  -16.3753  -39.1896 O.2       6 UNK        -0.5000 
     42 CA          2.5826  -15.2980  -40.0672 C.3       6 UNK         0.1400 
     43 CB          3.6117  -16.4027  -39.7777 C.3       6 UNK        -0.1800 
     44 N           3.0054  -14.5795  -41.2701 N.am      6 UNK        -0.5000 
     45 C           2.6429  -13.3372  -41.6084 C.2       5 UNK         0.5000 
     46 O           1.9560  -12.6091  -40.8920 O.2       5 UNK        -0.5000 
     47 CA          3.0793  -12.8435  -43.0016 C.3       5 UNK         0.1400 
     48 CB          4.5310  -12.3298  -42.9956 C.3       5 UNK        -0.1800 
     49 N           2.8496  -13.8252  -44.0709 N.am      5 UNK        -0.5000 
     50 C           3.4584  -14.9979  -44.3036 C.2       4 UNK         0.5000 
     51 O           4.3682  -15.4519  -43.6096 O.2       4 UNK        -0.5000 
     52 CA          2.9243  -15.8278  -45.4837 C.3       4 UNK         0.1400 
     53 CB          1.7925  -16.7552  -45.0125 C.3       4 UNK        -0.1800 
     54 N           2.4426  -14.9866  -46.5805 N.am      4 UNK        -0.5000 
     55 C           3.2406  -14.3933  -47.4801 C.2       3 UNK         0.5000 
     56 O           4.4617  -14.5476  -47.5203 O.2       3 UNK        -0.5000 
     57 CA          2.5612  -13.4616  -48.5002 C.3       3 UNK         0.1400 
     58 CB          2.0959  -14.2578  -49.7293 C.3       3 UNK        -0.1800 
     59 N           1.4249  -12.7425  -47.9200 N.am      3 UNK        -0.5000 
     60 C           1.5464  -11.6999  -47.0820 C.2       2 UNK         0.5000 
     61 O           2.6287  -11.2062  -46.7649 O.2       2 UNK        -0.5000 
     62 CA          0.2533  -11.1176  -46.4717 C.3       2 UNK         0.1400 
     63 CB         -0.2356   -9.9163  -47.2946 C.3       2 UNK        -0.1800 
     64 N          -0.8327  -12.0922  -46.3613 N.am      2 UNK        -0.5000 
     65 C          -0.7934  -13.2021  -45.6123 C.2       1 UNK         0.5000 
     66 O           0.1374  -13.4758  -44.8546 O.2       1 UNK        -0.5000 
     67 C          -1.0216  -21.8183  -47.2135 C.2       11 UNK         0.5000 
     68 O          -1.5008  -22.3107  -48.2368 O.2       11 UNK        -0.5000 
     69 N          -1.7403  -21.4954  -46.1270 N.am      12 UNK        -0.5000 
     70 CA         -3.2037  -21.4428  -46.0865 C.3       12 UNK         0.1400 
     71 CB         -3.6386  -20.8257  -44.7488 C.3       12 UNK        -0.1800 
     72 C          -3.9094  -22.7952  -46.2991 C.2       12 UNK         0.5000 
     73 O          -4.9662  -22.8292  -46.9291 O.2       12 UNK        -0.5000 
     74 N          -3.3282  -23.8768  -45.7654 N.am      13 UNK        -0.5000 
     75 CA         -3.8550  -25.2379  -45.8832 C.3       13 UNK         0.1400 
     76 CB         -3.7580  -25.9425  -44.5208 C.3       13 UNK        -0.1800 
     77 C          -3.0943  -26.0322  -46.9557 C.2       13 UNK         0.5000 
     78 O          -3.6978  -26.8589  -47.6401 O.2       13 UNK        -0.5000 
     79 N          -1.7882  -25.7625  -47.0909 N.am      14 UNK        -0.5000 
     80 CA         -0.8949  -26.4025  -48.0576 C.3       14 UNK         0.1400 
     81 CB          0.5530  -26.0570  -47.6901 C.3       14 UNK        -0.1800 
     82 C          -1.1695  -26.0096  -49.5223 C.2       14 UNK         0.5000 
     83 O          -0.7651  -26.7503  -50.4190 O.2       14 UNK        -0.5000 
     84 N          -1.8278  -24.8585  -49.7353 N.am      15 UNK        -0.5000 
     85 CA         -2.1597  -24.2549  -51.0308 C.3       15 UNK         0.1400 
     86 CB         -3.1116  -25.1635  -51.8386 C.3       15 UNK        -0.1800 
     87 C          -0.9035  -23.8257  -51.8178 C.2       15 UNK         0.5000 
     88 O          -0.8459  -23.9772  -53.0394 O.2       15 UNK        -0.5000 
     89 N           0.0946  -23.3033  -51.0904 N.am      16 UNK        -0.5000 
     90 CA          1.4094  -22.9377  -51.6255 C.3       16 UNK         0.1400 
     91 CB          2.3996  -22.7624  -50.4646 C.3       16 UNK        -0.1800 
     92 C           1.3942  -21.6782  -52.5127 C.2       16 UNK         0.5000 
     93 O           2.3183  -21.4926  -53.3056 O.2       16 UNK        -0.5000 
     94 N           0.3594  -20.8381  -52.3697 N.am      17 UNK        -0.5000 
     95 CA          0.1652  -19.6210  -53.1592 C.3       17 UNK         0.1400 
     96 CB         -0.9302  -18.7630  -52.5061 C.3       17 UNK        -0.1800 
     97 C          -0.1882  -19.8980  -54.6325 C.2       17 UNK         0.5000 
     98 O           0.0971  -19.0542  -55.4832 O.2       17 UNK        -0.5000 
     99 N          -0.8186  -21.0543  -54.8964 N.am      18 UNK        -0.5000 
    100 CA        -1.3943  -21.4759  -56.1793 C.3       18 UNK         0.1400 
    101 CB        -0.2888  -21.7336  -57.2242 C.3       18 UNK        -0.1800 
    102 C         -2.4897  -20.5037  -56.6723 C.2       18 UNK         0.5000 
    103 O         -2.5904  -20.2216  -57.8683 O.2       18 UNK        -0.5000 
    104 N         -3.2739  -19.9910  -55.7172 N.am      19 UNK        -0.5000 
    105 CA        -4.3727  -19.0535  -55.9257 C.3       19 UNK         0.1400 
    106 CB        -4.5840  -18.2763  -54.6133 C.3       19 UNK        -0.1800 
    107 C         -5.6626  -19.7742  -56.3649 C.2       19 UNK         0.5000 
    108 O         -5.6988  -21.0042  -56.4454 O.2       19 UNK        -0.5000 
    109 N         -6.7200  -18.9903  -56.6174 N.am      20 UNK        -0.5000 
    110 CA        -8.0672  -19.4948  -56.9045 C.3       20 UNK         0.1400 
    111 CB        -8.9481  -18.3367  -57.3981 C.3       20 UNK        -0.1800 
    112 C         -8.7130  -20.1898  -55.6877 C.2       20 UNK         0.5000 
    113 O         -9.4658  -21.1485  -55.8641 O.2       20 UNK        -0.5000 
    114 N         -8.3887  -19.7007  -54.4828 N.am      21 UNK        -0.5000 
    115 CA        -8.7361  -20.3174  -53.2063 C.3       21 UNK         0.1400 
    116 CB        -8.9949  -19.2169  -52.1595 C.3       21 UNK        -0.1800 
    117 C         -7.6073  -21.2762  -52.7922 C.2       21 UNK         0.5000 
    118 O         -7.7317  -22.4874  -52.9812 O.2       21 UNK        -0.5000 
    119 N         -6.5139  -20.7130  -52.2630 N.am      22 UNK        -0.5000 
    120 CA        -5.3075  -21.4253  -51.8068 C.3       22 UNK         0.1400 
    121 C         -4.4178  -21.8997  -52.9909 C.2       22 UNK         0.5000 
    122 N         -4.9493  -22.7204  -53.8827 N.am      22 UNK        -0.7600 
    123 O         -3.2595  -21.5118  -53.1218 O.2       22 UNK        -0.5000 
    124 C124       -4.5131  -20.6083  -50.7523 C.3       23 UNK        -0.0398 
    125 S125       -5.5616  -20.0798  -49.3545 S.3       23 UNK        -0.2404 
    126 C126       -5.1802  -18.3051  -49.2651 C.3       23 UNK        -0.0205 
    127 H127       -4.1973  -14.0839  -49.0935 H         1 UNK         0.0600 
    128 H128       -3.1156  -15.1646  -49.9758 H         1 UNK         0.0600 
    129 H129       -2.9183  -13.4134  -50.1134 H         1 UNK         0.0600 
    130 H130       -3.6961  -13.9655  -46.9206 H         1 UNK         0.3000 
    131 H131       -1.4268  -15.1736  -45.8310 H         1 UNK         0.0600 
    132 H132       -3.2752  -13.2679  -44.3520 H         1 UNK         0.0800 
    133 H133       -2.2491  -14.4790  -43.6410 H         1 UNK         0.0800 
    134 H134       -2.5031  -17.0893  -44.1169 H         1 UNK         0.0800 
    135 H135       -4.0807  -17.8146  -44.2534 H         1 UNK         0.0800 
    136 H136       -5.2250  -17.6917  -46.6271 H         1 UNK         0.1150 
    137 H137       -2.5100  -18.2909  -49.8897 H         1 UNK         0.1150 
    138 H138       -1.0033  -17.3913  -45.9812 H         1 UNK         0.1150 
    139 H139       -0.2125  -17.1840  -49.4775 H         1 UNK         0.0800 
    140 H140        0.4676  -17.2160  -47.8832 H         1 UNK         0.0800 
    141 H141        0.3085  -19.4857  -46.4935 H         1 UNK         0.0800 
    142 H142        1.9060  -19.9167  -47.0357 H         1 UNK         0.0800 
    143 H143        0.9200  -22.0651  -48.0144 H         1 UNK         0.0600 
    144 H144        0.5655  -21.9404  -45.0691 H         1 UNK         0.3000 
    145 H145        2.1716  -24.9677  -44.8308 H         1 UNK         0.0600 
    146 H146        3.7354  -24.1416  -43.0807 H         1 UNK         0.0600 
    147 H147        4.3481  -23.7425  -44.6762 H         1 UNK         0.0600 
    148 H148        3.5898  -22.4942  -43.6958 H         1 UNK         0.0600 
    149 H149        1.4465  -23.2484  -42.7219 H         1 UNK         0.3000 
    150 H150       -2.0223  -23.0711  -43.0295 H         1 UNK         0.0600 
    151 H151       -0.4763  -24.8306  -41.0523 H         1 UNK         0.0600 
    152 H152       -1.8234  -25.3646  -42.0485 H         1 UNK         0.0600 
    153 H153       -2.0871  -24.1557  -40.8041 H         1 UNK         0.0600 
    154 H154       -0.2957  -22.3718  -40.8994 H         1 UNK         0.3000 
    155 H155        0.3076  -20.2693  -40.4917 H         1 UNK         0.0600 
    156 H156        2.4678  -20.2144  -42.6737 H         1 UNK         0.0600 
    157 H157        2.3416  -21.4155  -41.3938 H         1 UNK         0.0600 
    158 H158        2.6936  -19.7459  -40.9885 H         1 UNK         0.0600 
    159 H159        1.1839  -18.1678  -42.1550 H         1 UNK         0.3000 
    160 H160       -0.7611  -16.3223  -42.8810 H         1 UNK         0.0600 
    161 H161       -1.8899  -15.9245  -40.0598 H         1 UNK         0.0600 
    162 H162       -2.8066  -16.0318  -41.5550 H         1 UNK         0.0600 
    163 H163       -1.7558  -14.6522  -41.2693 H         1 UNK         0.0600 
    164 H164        1.1385  -15.4687  -42.1544 H         1 UNK         0.3000 
    165 H165        2.5724  -14.6049  -39.2235 H         1 UNK         0.0600 
    166 H166        4.6083  -15.9846  -39.6348 H         1 UNK         0.0600 
    167 H167        3.3571  -16.9493  -38.8687 H         1 UNK         0.0600 
    168 H168        3.6654  -17.1263  -40.5923 H         1 UNK         0.0600 
    169 H169        3.5917  -15.0856  -41.9292 H         1 UNK         0.3000 
    170 H170        2.4367  -11.9962  -43.2474 H         1 UNK         0.0600 
    171 H171        4.6509  -11.5179  -42.2773 H         1 UNK         0.0600 
    172 H172        5.2428  -13.1097  -42.7242 H         1 UNK         0.0600 
    173 H173        4.8137  -11.9426  -43.9746 H         1 UNK         0.0600 
    174 H174        2.0339  -13.6181  -44.6399 H         1 UNK         0.3000 
    175 H175        3.7434  -16.4526  -45.8465 H         1 UNK         0.0600 
    176 H176        0.9071  -16.1947  -44.7129 H         1 UNK         0.0600 
    177 H177        1.5040  -17.4473  -45.8012 H         1 UNK         0.0600 
    178 H178        2.1086  -17.3588  -44.1609 H         1 UNK         0.0600 
    179 H179        1.4542  -14.7856  -46.6101 H         1 UNK         0.3000 
    180 H180        3.3011  -12.7306  -48.8334 H         1 UNK         0.0600 
    181 H181        1.3934  -15.0467  -49.4591 H         1 UNK         0.0600 
    182 H182        2.9420  -14.7327  -50.2273 H         1 UNK         0.0600 
    183 H183        1.6092  -13.6108  -50.4592 H         1 UNK         0.0600 
    184 H184        0.5029  -13.1162  -48.1256 H         1 UNK         0.3000 
    185 H185        0.4939  -10.7696  -45.4650 H         1 UNK         0.0600 
    186 H186        0.5417   -9.1552  -47.3750 H         1 UNK         0.0600 
    187 H187       -0.5141  -10.2096  -48.3076 H         1 UNK         0.0600 
    188 H188       -1.1022   -9.4456  -46.8300 H         1 UNK         0.0600 
    189 H189       -1.6263  -11.9598  -46.9712 H         1 UNK         0.3000 
    190 H190       -1.2674  -21.1177  -45.3116 H         1 UNK         0.3000 
    191 H191       -3.5213  -20.7729  -46.8887 H         1 UNK         0.0600 
    192 H192       -3.0746  -19.9209  -44.5289 H         1 UNK         0.0600 
    193 H193       -4.6960  -20.5597  -44.7699 H         1 UNK         0.0600 
    194 H194       -3.4893  -21.5114  -43.9155 H         1 UNK         0.0600 
    195 H195       -2.4281  -23.7821  -45.3095 H         1 UNK         0.3000 
    196 H196       -4.9086  -25.2148  -46.1695 H         1 UNK         0.0600 
    197 H197       -4.2251  -26.9272  -44.5608 H         1 UNK         0.0600 
    198 H198       -4.2663  -25.3722  -43.7433 H         1 UNK         0.0600 
    199 H199       -2.7234  -26.0874  -44.2103 H         1 UNK         0.0600 
    200 H200       -1.3585  -25.1239  -46.4305 H         1 UNK         0.3000 
    201 H201       -1.0237  -27.4835  -47.9726 H         1 UNK         0.0600 
    202 H202        1.2584  -26.6031  -48.3176 H         1 UNK         0.0600 
    203 H203        0.7751  -26.3076  -46.6526 H         1 UNK         0.0600 
    204 H204        0.7444  -24.9945  -47.8334 H         1 UNK         0.0600 
    205 H205       -2.0513  -24.2889  -48.9274 H         1 UNK         0.3000 
    206 H206       -2.6984  -23.3348  -50.8056 H         1 UNK         0.0600 
    207 H207       -4.0200  -25.3797  -51.2765 H         1 UNK         0.0600 
    208 H208       -3.4120  -24.6892  -52.7715 H         1 UNK         0.0600 
    209 H209       -2.6470  -26.1124  -52.1052 H         1 UNK         0.0600 
    210 H210       -0.0474  -23.1913  -50.0966 H         1 UNK         0.3000 
    211 H211        1.7588  -23.7683  -52.2426 H         1 UNK         0.0600 
    212 H212        2.1855  -21.8650  -49.8851 H         1 UNK         0.0600 
    213 H213        3.4192  -22.6651  -50.8392 H         1 UNK         0.0600 
    214 H214        2.3833  -23.6180  -49.7889 H         1 UNK         0.0600 
    215 H215       -0.3529  -21.0625  -51.6910 H         1 UNK         0.3000 
    216 H216        1.0973  -19.0522  -53.1445 H         1 UNK         0.0600 
    217 H217       -1.1076  -17.8512  -53.0778 H         1 UNK         0.0600 
    218 H218       -0.6440  -18.4603  -51.5009 H         1 UNK         0.0600 
    219 H219       -1.8778  -19.2974  -52.4406 H         1 UNK         0.0600 
    220 H220       -1.0349  -21.6564  -54.1113 H         1 UNK         0.3000 
    221 H221       -1.8952  -22.4258  -55.9878 H         1 UNK         0.0600 
    222 H222        0.2184  -20.8136  -57.5157 H         1 UNK         0.0600 
    223 H223        0.4623  -22.4236  -56.8396 H         1 UNK         0.0600 
    224 H224       -0.7043  -22.1779  -58.1292 H         1 UNK         0.0600 
    225 H225       -3.1581  -20.3482  -54.7747 H         1 UNK         0.3000 
    226 H226       -4.0944  -18.3472  -56.7106 H         1 UNK         0.0600 
    227 H227       -3.6647  -17.7808  -54.2999 H         1 UNK         0.0600 
    228 H228       -5.3421  -17.5004  -54.7224 H         1 UNK         0.0600 
    229 H229       -4.8971  -18.9333  -53.8026 H         1 UNK         0.0600 
    230 H230       -6.6163  -17.9874  -56.5603 H         1 UNK         0.3000 
    231 H231       -7.9919  -20.2320  -57.7067 H         1 UNK         0.0600 
    232 H232       -9.0470  -17.5546  -56.6443 H         1 UNK         0.0600 
    233 H233       -9.9522  -18.6872  -57.6410 H         1 UNK         0.0600 
    234 H234       -8.5362  -17.8845  -58.3004 H         1 UNK         0.0600 
    235 H235       -7.7554  -18.9165  -54.4487 H         1 UNK         0.3000 
    236 H236       -9.6521  -20.9037  -53.3067 H         1 UNK         0.0600 
    237 H237       -9.8795  -18.6358  -52.4205 H         1 UNK         0.0600 
    238 H238       -9.1721  -19.6492  -51.1737 H         1 UNK         0.0600 
    239 H239       -8.1604  -18.5206  -52.0703 H         1 UNK         0.0600 
    240 H240       -6.5038  -19.7134  -52.1345 H         1 UNK         0.3000 
    241 H241       -5.6332  -22.3375  -51.3028 H         1 UNK         0.0600 
    242 H242       -5.9272  -22.9732  -53.8014 H         1 UNK         0.3800 
    243 H243       -4.4161  -23.0179  -54.6820 H         1 UNK         0.3800 
    244 H244       -3.6915  -21.1995  -50.3450 H         1 UNK         0.0800 
    245 H245       -4.0530  -19.7388  -51.2226 H         1 UNK         0.0800 
    246 H246       -4.9980  -17.8914  -50.2577 H         1 UNK         0.0800 
    247 H247       -6.0585  -17.7825  -48.8831 H         1 UNK         0.0800 
@<TRIPOS>BOND
     1    1    2 1    
     2    1  127 1    
     3    1  128 1    
     4    1  129 1    
     5    2    3 2    
     6    2    4 am   BACKBONE|DICT|INTERRES
     7    4    5 1    
     8    4  130 1    
     9    5    6 1    
    10    5   65 1    
    11    5  131 1    
    12    6    7 1    
    13    6  132 1    
    14    6  133 1    
    15    7    8 1    
    16    8    9 1    
    17    8  134 1    
    18    8  135 1    
    19    9   10 ar   
    20    9   14 ar   
    21   10   11 ar   
    22   10  136 1    
    23   11   12 ar   
    24   11  126 1    
    25   12   13 ar   
    26   12  137 1    
    27   13   14 ar   
    28   13   15 1    
    29   14  138 1    
    30   15   16 1    
    31   15  139 1    
    32   15  140 1    
    33   16   17 1    
    34   17   18 1    
    35   17  141 1    
    36   17  142 1    
    37   18   19 1    
    38   18   67 1    
    39   18  143 1    
    40   19   20 am   BACKBONE|DICT|INTERRES
    41   19  144 1    
    42   20   21 2    
    43   20   22 1    
    44   22   23 1    
    45   22   24 1    
    46   22  145 1    
    47   23  146 1    
    48   23  147 1    
    49   23  148 1    
    50   24   25 am   BACKBONE|DICT|INTERRES
    51   24  149 1    
    52   25   26 2    
    53   25   27 1    
    54   27   28 1    
    55   27   29 1    
    56   27  150 1    
    57   28  151 1    
    58   28  152 1    
    59   28  153 1    
    60   29   30 am   BACKBONE|DICT|INTERRES
    61   29  154 1    
    62   30   31 2    
    63   30   32 1    
    64   32   33 1    
    65   32   34 1    
    66   32  155 1    
    67   33  156 1    
    68   33  157 1    
    69   33  158 1    
    70   34   35 am   BACKBONE|DICT|INTERRES
    71   34  159 1    
    72   35   36 2    
    73   35   37 1    
    74   37   38 1    
    75   37   39 1    
    76   37  160 1    
    77   38  161 1    
    78   38  162 1    
    79   38  163 1    
    80   39   40 am   BACKBONE|DICT|INTERRES
    81   39  164 1    
    82   40   41 2    
    83   40   42 1    
    84   42   43 1    
    85   42   44 1    
    86   42  165 1    
    87   43  166 1    
    88   43  167 1    
    89   43  168 1    
    90   44   45 am   BACKBONE|DICT|INTERRES
    91   44  169 1    
    92   45   46 2    
    93   45   47 1    
    94   47   48 1    
    95   47   49 1    
    96   47  170 1    
    97   48  171 1    
    98   48  172 1    
    99   48  173 1    
   100   49   50 am   BACKBONE|DICT|INTERRES
   101   49  174 1    
   102   50   51 2    
   103   50   52 1    
   104   52   53 1    
   105   52   54 1    
   106   52  175 1    
   107   53  176 1    
   108   53  177 1    
   109   53  178 1    
   110   54   55 am   BACKBONE|DICT|INTERRES
   111   54  179 1    
   112   55   56 2    
   113   55   57 1    
   114   57   58 1    
   115   57   59 1    
   116   57  180 1    
   117   58  181 1    
   118   58  182 1    
   119   58  183 1    
   120   59   60 am   BACKBONE|DICT|INTERRES
   121   59  184 1    
   122   60   61 2    
   123   60   62 1    
   124   62   63 1    
   125   62   64 1    
   126   62  185 1    
   127   63  186 1    
   128   63  187 1    
   129   63  188 1    
   130   64   65 am   BACKBONE|DICT|INTERRES
   131   64  189 1    
   132   65   66 2    
   133   67   68 2    
   134   67   69 am   BACKBONE|DICT|INTERRES
   135   69   70 1    
   136   69  190 1    
   137   70   71 1    
   138   70   72 1    
   139   70  191 1    
   140   71  192 1    
   141   71  193 1    
   142   71  194 1    
   143   72   73 2    
   144   72   74 am   BACKBONE|DICT|INTERRES
   145   74   75 1    
   146   74  195 1    
   147   75   76 1    
   148   75   77 1    
   149   75  196 1    
   150   76  197 1    
   151   76  198 1    
   152   76  199 1    
   153   77   78 2    
   154   77   79 am   BACKBONE|DICT|INTERRES
   155   79   80 1    
   156   79  200 1    
   157   80   81 1    
   158   80   82 1    
   159   80  201 1    
   160   81  202 1    
   161   81  203 1    
   162   81  204 1    
   163   82   83 2    
   164   82   84 am   BACKBONE|DICT|INTERRES
   165   84   85 1    
   166   84  205 1    
   167   85   86 1    
   168   85   87 1    
   169   85  206 1    
   170   86  207 1    
   171   86  208 1    
   172   86  209 1    
   173   87   88 2    
   174   87   89 am   BACKBONE|DICT|INTERRES
   175   89   90 1    
   176   89  210 1    
   177   90   91 1    
   178   90   92 1    
   179   90  211 1    
   180   91  212 1    
   181   91  213 1    
   182   91  214 1    
   183   92   93 2    
   184   92   94 am   BACKBONE|DICT|INTERRES
   185   94   95 1    
   186   94  215 1    
   187   95   96 1    
   188   95   97 1    
   189   95  216 1    
   190   96  217 1    
   191   96  218 1    
   192   96  219 1    
   193   97   98 2    
   194   97   99 am   BACKBONE|DICT|INTERRES
   195   99  100 1    
   196   99  220 1    
   197  100  101 1    
   198  100  102 1    
   199  100  221 1    
   200  101  222 1    
   201  101  223 1    
   202  101  224 1    
   203  102  103 2    
   204  102  104 am   BACKBONE|DICT|INTERRES
   205  104  105 1    
   206  104  225 1    
   207  105  106 1    
   208  105  107 1    
   209  105  226 1    
   210  106  227 1    
   211  106  228 1    
   212  106  229 1    
   213  107  108 2    
   214  107  109 am   BACKBONE|DICT|INTERRES
   215  109  110 1    
   216  109  230 1    
   217  110  111 1    
   218  110  112 1    
   219  110  231 1    
   220  111  232 1    
   221  111  233 1    
   222  111  234 1    
   223  112  113 2    
   224  112  114 am   BACKBONE|DICT|INTERRES
   225  114  115 1    
   226  114  235 1    
   227  115  116 1    
   228  115  117 1    
   229  115  236 1    
   230  116  237 1    
   231  116  238 1    
   232  116  239 1    
   233  117  118 2    
   234  117  119 am   BACKBONE|DICT|INTERRES
   235  119  120 1    
   236  119  240 1    
   237  120  121 1    
   238  120  124 1    
   239  120  241 1    
   240  121  122 am   BACKBONE|DICT|INTERRES
   241  121  123 2    
   242  122  242 1    
   243  122  243 1    
   244  124  125 1    
   245  124  244 1    
   246  124  245 1    
   247  125  126 1    
   248  126  246 1    
   249  126  247 1    
@<TRIPOS>SUBSTRUCTURE
     1 UNK         1 GROUP             0       ****    0 ROOT    
