@<TRIPOS>MOLECULE
3R540
247   249    1
SMALL
USER_CHARGES


@<TRIPOS>ATOM
      1 CA         -2.4459  -17.3531  -48.8489 C.3       0 UNK        -0.1800 
      2 C          -2.4070  -15.8448  -48.6491 C.2       0 UNK         0.5000 
      3 O          -3.4458  -15.2337  -48.3952 O.2       0 UNK        -0.5000 
      4 N          -1.2154  -15.2437  -48.7629 N.am      1 UNK        -0.5000 
      5 CA         -0.9575  -13.8296  -48.4699 C.3       1 UNK         0.1400 
      6 C6          0.3852  -13.3515  -49.0829 C.3       23 UNK        -0.0398 
      7 S7          1.8704  -14.2025  -48.4340 S.3       23 UNK        -0.2404 
      8 C8          2.6244  -14.8667  -49.9512 C.3       23 UNK        -0.0205 
      9 C9          1.8968  -16.1023  -50.4574 C.ar      23 UNK        -0.0193 
     10 C10         0.9397  -15.9981  -51.4702 C.ar      23 UNK        -0.1150 
     11 C11         0.2865  -17.1361  -51.9508 C.ar      23 UNK        -0.0193 
     12 C12         0.5985  -18.3872  -51.4080 C.ar      23 UNK        -0.1150 
     13 C13         1.5554  -18.5067  -50.3945 C.ar      23 UNK        -0.0193 
     14 C14         2.2022  -17.3585  -49.9274 C.ar      23 UNK        -0.1150 
     15 C15         1.9199  -19.8771  -49.8330 C.3       23 UNK        -0.0205 
     16 S16         1.7191  -19.9812  -48.0230 S.3       23 UNK        -0.2404 
     17 C17        -0.0929  -19.9069  -47.8408 C.3       23 UNK        -0.0398 
     18 CA         -0.6744  -21.2122  -47.2526 C.3       11 UNK         0.1400 
     19 N          -0.3191  -21.4189  -45.8464 N.am      11 UNK        -0.5000 
     20 C          -0.5412  -22.5552  -45.1696 C.2       10 UNK         0.5000 
     21 O          -1.0483  -23.5596  -45.6692 O.2       10 UNK        -0.5000 
     22 CA         -0.1933  -22.5531  -43.6703 C.3       10 UNK         0.1400 
     23 CB          1.3250  -22.6280  -43.4528 C.3       10 UNK        -0.1800 
     24 N          -0.7408  -21.3879  -42.9751 N.am      10 UNK        -0.5000 
     25 C          -2.0507  -21.1247  -42.8590 C.2       9 UNK         0.5000 
     26 O          -2.9400  -21.8540  -43.2961 O.2       9 UNK        -0.5000 
     27 CA         -2.4333  -19.8015  -42.1787 C.3       9 UNK         0.1400 
     28 CB         -2.4506  -19.9542  -40.6505 C.3       9 UNK        -0.1800 
     29 N          -1.5370  -18.7107  -42.5530 N.am      9 UNK        -0.5000 
     30 C          -1.4603  -18.1755  -43.7796 C.2       8 UNK         0.5000 
     31 O          -2.1386  -18.5449  -44.7383 O.2       8 UNK        -0.5000 
     32 CA         -0.4098  -17.0679  -43.9624 C.3       8 UNK         0.1400 
     33 CB         -0.8717  -15.7923  -43.2439 C.3       8 UNK        -0.1800 
     34 N           0.9091  -17.4549  -43.4572 N.am      8 UNK        -0.5000 
     35 C           1.6054  -18.5246  -43.8739 C.2       7 UNK         0.5000 
     36 O           1.2333  -19.2707  -44.7767 O.2       7 UNK        -0.5000 
     37 CA          2.9054  -18.8627  -43.1172 C.3       7 UNK         0.1400 
     38 CB          4.1100  -18.2001  -43.8012 C.3       7 UNK        -0.1800 
     39 N           2.8808  -18.4713  -41.7079 N.am      7 UNK        -0.5000 
     40 C           1.9638  -18.8424  -40.8023 C.2       6 UNK         0.5000 
     41 O           1.0767  -19.6664  -41.0318 O.2       6 UNK        -0.5000 
     42 CA          2.0124  -18.1399  -39.4280 C.3       6 UNK         0.1400 
     43 CB          2.4956  -19.1163  -38.3451 C.3       6 UNK        -0.1800 
     44 N           2.8470  -16.9302  -39.3850 N.am      6 UNK        -0.5000 
     45 C           2.6513  -15.8127  -40.0996 C.2       5 UNK         0.5000 
     46 O           1.7322  -15.6688  -40.9119 O.2       5 UNK        -0.5000 
     47 CA          3.7000  -14.7048  -39.9203 C.3       5 UNK         0.1400 
     48 CB          5.0379  -15.1170  -40.5669 C.3       5 UNK        -0.1800 
     49 N           3.2080  -13.4824  -40.5436 N.am      5 UNK        -0.5000 
     50 C           3.6824  -12.2448  -40.3544 C.2       4 UNK         0.5000 
     51 O           4.5821  -11.9761  -39.5559 O.2       4 UNK        -0.5000 
     52 CA          3.0402  -11.1288  -41.2097 C.3       4 UNK         0.1400 
     53 CB          3.9212   -9.8677  -41.3310 C.3       4 UNK        -0.1800 
     54 N           2.6173  -11.6142  -42.5284 N.am      4 UNK        -0.5000 
     55 C           3.3817  -12.1101  -43.5100 C.2       3 UNK         0.5000 
     56 O           4.6127  -12.0837  -43.4980 O.2       3 UNK        -0.5000 
     57 CA          2.6675  -12.7941  -44.6963 C.3       3 UNK         0.1400 
     58 CB          2.5740  -14.3100  -44.4393 C.3       3 UNK        -0.1800 
     59 N           1.3533  -12.2621  -45.0957 N.am      3 UNK        -0.5000 
     60 C           0.2047  -12.1664  -44.4067 C.2       2 UNK         0.5000 
     61 O           0.0946  -12.3913  -43.2016 O.2       2 UNK        -0.5000 
     62 CA         -1.0475  -11.7591  -45.2096 C.3       2 UNK         0.1400 
     63 CB         -1.2188  -10.2326  -45.2003 C.3       2 UNK        -0.1800 
     64 N          -1.0385  -12.2371  -46.5970 N.am      2 UNK        -0.5000 
     65 C          -1.0403  -13.5307  -46.9537 C.2       1 UNK         0.5000 
     66 O          -1.0779  -14.4551  -46.1393 O.2       1 UNK        -0.5000 
     67 C          -2.1962  -21.2764  -47.4755 C.2       11 UNK         0.5000 
     68 O          -2.6208  -21.8814  -48.4583 O.2       11 UNK        -0.5000 
     69 N          -2.9920  -20.6954  -46.5656 N.am      12 UNK        -0.5000 
     70 CA         -4.4545  -20.7554  -46.6076 C.3       12 UNK         0.1400 
     71 CB         -5.0512  -19.8375  -45.5311 C.3       12 UNK        -0.1800 
     72 C          -4.9928  -22.1918  -46.4710 C.2       12 UNK         0.5000 
     73 O          -5.8364  -22.5975  -47.2708 O.2       12 UNK        -0.5000 
     74 N          -4.4617  -22.9501  -45.5005 N.am      13 UNK        -0.5000 
     75 CA         -4.7982  -24.3564  -45.2609 C.3       13 UNK         0.1400 
     76 CB         -4.1425  -24.8246  -43.9532 C.3       13 UNK        -0.1800 
     77 C          -4.4006  -25.2815  -46.4264 C.2       13 UNK         0.5000 
     78 O          -5.1449  -26.2073  -46.7504 O.2       13 UNK        -0.5000 
     79 N          -3.2528  -24.9951  -47.0542 N.am      14 UNK        -0.5000 
     80 CA         -2.7425  -25.6983  -48.2322 C.3       14 UNK         0.1400 
     81 CB         -1.2233  -25.4766  -48.3109 C.3       14 UNK        -0.1800 
     82 C          -3.4141  -25.2660  -49.5524 C.2       14 UNK         0.5000 
     83 O          -3.0876  -25.8317  -50.5969 O.2       14 UNK        -0.5000 
     84 N          -4.2863  -24.2469  -49.5086 N.am      15 UNK        -0.5000 
     85 CA         -4.9491  -23.5969  -50.6446 C.3       15 UNK         0.1400 
     86 CB         -5.9820  -24.5418  -51.2916 C.3       15 UNK        -0.1800 
     87 C          -3.9388  -23.0285  -51.6621 C.2       15 UNK         0.5000 
     88 O          -4.1088  -23.2045  -52.8701 O.2       15 UNK        -0.5000 
     89 N          -2.8961  -22.3672  -51.1414 N.am      16 UNK        -0.5000 
     90 CA         -1.7308  -21.8254  -51.8476 C.3       16 UNK         0.1400 
     91 CB         -2.1482  -20.7179  -52.8342 C.3       16 UNK        -0.1800 
     92 C          -0.8536  -22.9217  -52.4868 C.2       16 UNK         0.5000 
     93 O          -0.2587  -22.6980  -53.5400 O.2       16 UNK        -0.5000 
     94 N          -0.7974  -24.0876  -51.8246 N.am      17 UNK        -0.5000 
     95 CA         -0.1875  -25.3411  -52.2811 C.3       17 UNK         0.1400 
     96 CB          1.3377  -25.1977  -52.4689 C.3       17 UNK        -0.1800 
     97 C          -0.9214  -25.8897  -53.5206 C.2       17 UNK         0.5000 
     98 O          -0.2968  -26.1709  -54.5451 O.2       17 UNK        -0.5000 
     99 N          -2.2513  -26.0066  -53.3840 N.am      18 UNK        -0.5000 
    100 CA        -3.2223  -26.4203  -54.4005 C.3       18 UNK         0.1400 
    101 CB        -3.0488  -27.9151  -54.7411 C.3       18 UNK        -0.1800 
    102 C         -3.2056  -25.5044  -55.6433 C.2       18 UNK         0.5000 
    103 O         -3.1175  -25.9879  -56.7739 O.2       18 UNK        -0.5000 
    104 N         -3.2938  -24.1914  -55.4020 N.am      19 UNK        -0.5000 
    105 CA        -3.3137  -23.1399  -56.4188 C.3       19 UNK         0.1400 
    106 CB        -1.9450  -22.4397  -56.4766 C.3       19 UNK        -0.1800 
    107 C         -4.4797  -22.1714  -56.1551 C.2       19 UNK         0.5000 
    108 O         -4.3230  -20.9564  -56.2903 O.2       19 UNK        -0.5000 
    109 N         -5.6332  -22.7423  -55.7741 N.am      20 UNK        -0.5000 
    110 CA        -6.9385  -22.0947  -55.5989 C.3       20 UNK         0.1400 
    111 CB        -7.5165  -21.7012  -56.9745 C.3       20 UNK        -0.1800 
    112 C         -6.9348  -20.9177  -54.6004 C.2       20 UNK         0.5000 
    113 O         -7.6293  -19.9238  -54.8234 O.2       20 UNK        -0.5000 
    114 N         -6.1335  -21.0389  -53.5299 N.am      21 UNK        -0.5000 
    115 CA        -5.9560  -20.0489  -52.4570 C.3       21 UNK         0.1400 
    116 CB        -7.2109  -19.9919  -51.5628 C.3       21 UNK        -0.1800 
    117 C         -5.5148  -18.6652  -52.9823 C.2       21 UNK         0.5000 
    118 O         -6.0187  -17.6352  -52.5321 O.2       21 UNK        -0.5000 
    119 N         -4.5883  -18.6940  -53.9485 N.am      22 UNK        -0.5000 
    120 CA        -4.0199  -17.5503  -54.6808 C.3       22 UNK         0.1400 
    121 C         -4.9499  -16.9807  -55.7954 C.2       22 UNK         0.5000 
    122 N         -6.1173  -17.5556  -56.0633 N.am      22 UNK        -0.7600 
    123 O         -4.5943  -16.0074  -56.4548 O.2       22 UNK        -0.5000 
    124 C124       -3.4372  -16.4151  -53.7839 C.3       23 UNK        -0.0398 
    125 S125       -2.4268  -16.9723  -52.3669 S.3       23 UNK        -0.2404 
    126 C126       -0.7490  -17.0066  -53.0590 C.3       23 UNK        -0.0205 
    127 H127       -1.5595  -17.7012  -49.3780 H         1 UNK         0.0600 
    128 H128       -3.3197  -17.6370  -49.4355 H         1 UNK         0.0600 
    129 H129       -2.5019  -17.8587  -47.8848 H         1 UNK         0.0600 
    130 H130       -0.3930  -15.7974  -48.9572 H         1 UNK         0.3000 
    131 H131       -1.7534  -13.2519  -48.9447 H         1 UNK         0.0600 
    132 H132        0.3413  -13.4662  -50.1654 H         1 UNK         0.0800 
    133 H133        0.5184  -12.2805  -48.9241 H         1 UNK         0.0800 
    134 H134        2.6560  -14.0929  -50.7198 H         1 UNK         0.0800 
    135 H135        3.6640  -15.1215  -49.7398 H         1 UNK         0.0800 
    136 H136        0.7052  -15.0310  -51.8916 H         1 UNK         0.1150 
    137 H137        0.1002  -19.2681  -51.7816 H         1 UNK         0.1150 
    138 H138        2.9481  -17.4440  -49.1494 H         1 UNK         0.1150 
    139 H139        1.3316  -20.6657  -50.3046 H         1 UNK         0.0800 
    140 H140        2.9618  -20.0853  -50.0793 H         1 UNK         0.0800 
    141 H141       -0.5268  -19.7052  -48.8208 H         1 UNK         0.0800 
    142 H142       -0.3447  -19.0526  -47.2096 H         1 UNK         0.0800 
    143 H143       -0.2481  -22.0459  -47.8151 H         1 UNK         0.0600 
    144 H144        0.1388  -20.6387  -45.3788 H         1 UNK         0.3000 
    145 H145       -0.6419  -23.4426  -43.2229 H         1 UNK         0.0600 
    146 H146        1.7294  -23.5515  -43.8687 H         1 UNK         0.0600 
    147 H147        1.8438  -21.8011  -43.9360 H         1 UNK         0.0600 
    148 H148        1.5760  -22.6097  -42.3920 H         1 UNK         0.0600 
    149 H149       -0.0798  -20.7380  -42.5665 H         1 UNK         0.3000 
    150 H150       -3.4412  -19.5366  -42.5042 H         1 UNK         0.0600 
    151 H151       -2.7737  -19.0330  -40.1655 H         1 UNK         0.0600 
    152 H152       -1.4671  -20.2136  -40.2573 H         1 UNK         0.0600 
    153 H153       -3.1422  -20.7411  -40.3467 H         1 UNK         0.0600 
    154 H154       -0.8905  -18.3936  -41.8452 H         1 UNK         0.3000 
    155 H155       -0.3172  -16.8588  -45.0300 H         1 UNK         0.0600 
    156 H156       -0.9141  -15.9213  -42.1619 H         1 UNK         0.0600 
    157 H157       -1.8630  -15.4880  -43.5822 H         1 UNK         0.0600 
    158 H158       -0.1970  -14.9671  -43.4531 H         1 UNK         0.0600 
    159 H159        1.2769  -16.9038  -42.6909 H         1 UNK         0.3000 
    160 H160        3.0416  -19.9443  -43.1545 H         1 UNK         0.0600 
    161 H161        4.1628  -18.4790  -44.8547 H         1 UNK         0.0600 
    162 H162        5.0470  -18.5083  -43.3371 H         1 UNK         0.0600 
    163 H163        4.0520  -17.1124  -43.7518 H         1 UNK         0.0600 
    164 H164        3.5710  -17.7951  -41.4195 H         1 UNK         0.3000 
    165 H165        0.9893  -17.8430  -39.1886 H         1 UNK         0.0600 
    166 H166        2.4438  -18.6649  -37.3542 H         1 UNK         0.0600 
    167 H167        1.8769  -20.0146  -38.3227 H         1 UNK         0.0600 
    168 H168        3.5253  -19.4314  -38.5189 H         1 UNK         0.0600 
    169 H169        3.6358  -16.9655  -38.7550 H         1 UNK         0.3000 
    170 H170        3.8392  -14.5315  -38.8513 H         1 UNK         0.0600 
    171 H171        5.8006  -14.3508  -40.4275 H         1 UNK         0.0600 
    172 H172        5.4276  -16.0359  -40.1277 H         1 UNK         0.0600 
    173 H173        4.9285  -15.2837  -41.6395 H         1 UNK         0.0600 
    174 H174        2.4291  -13.6290  -41.1742 H         1 UNK         0.3000 
    175 H175        2.1264  -10.8400  -40.6889 H         1 UNK         0.0600 
    176 H176        4.8955  -10.0911  -41.7660 H         1 UNK         0.0600 
    177 H177        3.4418   -9.1102  -41.9508 H         1 UNK         0.0600 
    178 H178        4.0977   -9.4206  -40.3521 H         1 UNK         0.0600 
    179 H179        1.6131  -11.7479  -42.6435 H         1 UNK         0.3000 
    180 H180        3.3095  -12.6507  -45.5669 H         1 UNK         0.0600 
    181 H181        2.0630  -14.8248  -45.2534 H         1 UNK         0.0600 
    182 H182        2.0408  -14.5284  -43.5147 H         1 UNK         0.0600 
    183 H183        3.5681  -14.7485  -44.3485 H         1 UNK         0.0600 
    184 H184        1.2984  -12.0085  -46.0714 H         1 UNK         0.3000 
    185 H185       -1.9121  -12.2025  -44.7110 H         1 UNK         0.0600 
    186 H186       -0.3964   -9.7309  -45.7119 H         1 UNK         0.0600 
    187 H187       -2.1485   -9.9364  -45.6865 H         1 UNK         0.0600 
    188 H188       -1.2521   -9.8498  -44.1793 H         1 UNK         0.0600 
    189 H189       -1.0239  -11.5261  -47.3137 H         1 UNK         0.3000 
    190 H190       -2.5791  -20.1684  -45.8017 H         1 UNK         0.3000 
    191 H191       -4.7713  -20.3765  -47.5817 H         1 UNK         0.0600 
    192 H192       -4.7414  -20.1351  -44.5296 H         1 UNK         0.0600 
    193 H193       -6.1413  -19.8606  -45.5584 H         1 UNK         0.0600 
    194 H194       -4.7447  -18.8024  -45.6830 H         1 UNK         0.0600 
    195 H195       -3.7896  -22.5330  -44.8607 H         1 UNK         0.3000 
    196 H196       -5.8815  -24.4234  -45.1411 H         1 UNK         0.0600 
    197 H197       -4.3828  -25.8679  -43.7451 H         1 UNK         0.0600 
    198 H198       -4.4915  -24.2352  -43.1051 H         1 UNK         0.0600 
    199 H199       -3.0560  -24.7380  -43.9953 H         1 UNK         0.0600 
    200 H200       -2.6659  -24.2553  -46.6809 H         1 UNK         0.3000 
    201 H201       -2.9244  -26.7678  -48.1098 H         1 UNK         0.0600 
    202 H202       -0.7315  -25.7942  -47.3913 H         1 UNK         0.0600 
    203 H203       -0.9779  -24.4266  -48.4744 H         1 UNK         0.0600 
    204 H204       -0.7813  -26.0524  -49.1240 H         1 UNK         0.0600 
    205 H205       -4.4691  -23.8256  -48.6063 H         1 UNK         0.3000 
    206 H206       -5.4899  -22.7413  -50.2378 H         1 UNK         0.0600 
    207 H207       -6.5580  -24.0242  -52.0597 H         1 UNK         0.0600 
    208 H208       -5.5070  -25.4025  -51.7632 H         1 UNK         0.0600 
    209 H209       -6.6904  -24.9140  -50.5517 H         1 UNK         0.0600 
    210 H210       -2.8649  -22.2621  -50.1257 H         1 UNK         0.3000 
    211 H211       -1.1069  -21.3602  -51.0834 H         1 UNK         0.0600 
    212 H212       -2.8197  -21.0864  -53.6078 H         1 UNK         0.0600 
    213 H213       -1.2859  -20.2836  -53.3396 H         1 UNK         0.0600 
    214 H214       -2.6521  -19.9113  -52.3050 H         1 UNK         0.0600 
    215 H215       -1.3606  -24.1672  -50.9908 H         1 UNK         0.3000 
    216 H216       -0.3470  -26.0712  -51.4870 H         1 UNK         0.0600 
    217 H217        1.7931  -26.1656  -52.6806 H         1 UNK         0.0600 
    218 H218        1.8101  -24.8064  -51.5679 H         1 UNK         0.0600 
    219 H219        1.5906  -24.5342  -53.2960 H         1 UNK         0.0600 
    220 H220       -2.6465  -25.7804  -52.4748 H         1 UNK         0.3000 
    221 H221       -4.2069  -26.2999  -53.9465 H         1 UNK         0.0600 
    222 H222       -2.0940  -28.1132  -55.2291 H         1 UNK         0.0600 
    223 H223       -3.1007  -28.5313  -53.8436 H         1 UNK         0.0600 
    224 H224       -3.8366  -28.2558  -55.4139 H         1 UNK         0.0600 
    225 H225       -3.4191  -23.8756  -54.4413 H         1 UNK         0.3000 
    226 H226       -3.5058  -23.5746  -57.4016 H         1 UNK         0.0600 
    227 H227       -1.1383  -23.1591  -56.6175 H         1 UNK         0.0600 
    228 H228       -1.9022  -21.7338  -57.3066 H         1 UNK         0.0600 
    229 H229       -1.7395  -21.8825  -55.5641 H         1 UNK         0.0600 
    230 H230       -5.6275  -23.7443  -55.6470 H         1 UNK         0.3000 
    231 H231       -7.5985  -22.8487  -55.1679 H         1 UNK         0.0600 
    232 H232       -6.9303  -20.9116  -57.4462 H         1 UNK         0.0600 
    233 H233       -7.5366  -22.5543  -57.6527 H         1 UNK         0.0600 
    234 H234       -8.5412  -21.3391  -56.8829 H         1 UNK         0.0600 
    235 H235       -5.5549  -21.8702  -53.4683 H         1 UNK         0.3000 
    236 H236       -5.1331  -20.4010  -51.8357 H         1 UNK         0.0600 
    237 H237       -8.0751  -19.6041  -52.1030 H         1 UNK         0.0600 
    238 H238       -7.4686  -20.9804  -51.1825 H         1 UNK         0.0600 
    239 H239       -7.0471  -19.3458  -50.6995 H         1 UNK         0.0600 
    240 H240       -4.3083  -19.5979  -54.3045 H         1 UNK         0.3000 
    241 H241       -3.1770  -17.9779  -55.2245 H         1 UNK         0.0600 
    242 H242       -6.6955  -17.1759  -56.7956 H         1 UNK         0.3800 
    243 H243       -6.4458  -18.3533  -55.5322 H         1 UNK         0.3800 
    244 H244       -2.8423  -15.7275  -54.3869 H         1 UNK         0.0800 
    245 H245       -4.2504  -15.8132  -53.3758 H         1 UNK         0.0800 
    246 H246       -0.5696  -16.0973  -53.6345 H         1 UNK         0.0800 
    247 H247       -0.6600  -17.8396  -53.7576 H         1 UNK         0.0800 
@<TRIPOS>BOND
     1    1    2 1    
     2    1  127 1    
     3    1  128 1    
     4    1  129 1    
     5    2    3 2    
     6    2    4 am   BACKBONE|DICT|INTERRES
     7    4    5 1    
     8    4  130 1    
     9    5    6 1    
    10    5   65 1    
    11    5  131 1    
    12    6    7 1    
    13    6  132 1    
    14    6  133 1    
    15    7    8 1    
    16    8    9 1    
    17    8  134 1    
    18    8  135 1    
    19    9   10 ar   
    20    9   14 ar   
    21   10   11 ar   
    22   10  136 1    
    23   11   12 ar   
    24   11  126 1    
    25   12   13 ar   
    26   12  137 1    
    27   13   14 ar   
    28   13   15 1    
    29   14  138 1    
    30   15   16 1    
    31   15  139 1    
    32   15  140 1    
    33   16   17 1    
    34   17   18 1    
    35   17  141 1    
    36   17  142 1    
    37   18   19 1    
    38   18   67 1    
    39   18  143 1    
    40   19   20 am   BACKBONE|DICT|INTERRES
    41   19  144 1    
    42   20   21 2    
    43   20   22 1    
    44   22   23 1    
    45   22   24 1    
    46   22  145 1    
    47   23  146 1    
    48   23  147 1    
    49   23  148 1    
    50   24   25 am   BACKBONE|DICT|INTERRES
    51   24  149 1    
    52   25   26 2    
    53   25   27 1    
    54   27   28 1    
    55   27   29 1    
    56   27  150 1    
    57   28  151 1    
    58   28  152 1    
    59   28  153 1    
    60   29   30 am   BACKBONE|DICT|INTERRES
    61   29  154 1    
    62   30   31 2    
    63   30   32 1    
    64   32   33 1    
    65   32   34 1    
    66   32  155 1    
    67   33  156 1    
    68   33  157 1    
    69   33  158 1    
    70   34   35 am   BACKBONE|DICT|INTERRES
    71   34  159 1    
    72   35   36 2    
    73   35   37 1    
    74   37   38 1    
    75   37   39 1    
    76   37  160 1    
    77   38  161 1    
    78   38  162 1    
    79   38  163 1    
    80   39   40 am   BACKBONE|DICT|INTERRES
    81   39  164 1    
    82   40   41 2    
    83   40   42 1    
    84   42   43 1    
    85   42   44 1    
    86   42  165 1    
    87   43  166 1    
    88   43  167 1    
    89   43  168 1    
    90   44   45 am   BACKBONE|DICT|INTERRES
    91   44  169 1    
    92   45   46 2    
    93   45   47 1    
    94   47   48 1    
    95   47   49 1    
    96   47  170 1    
    97   48  171 1    
    98   48  172 1    
    99   48  173 1    
   100   49   50 am   BACKBONE|DICT|INTERRES
   101   49  174 1    
   102   50   51 2    
   103   50   52 1    
   104   52   53 1    
   105   52   54 1    
   106   52  175 1    
   107   53  176 1    
   108   53  177 1    
   109   53  178 1    
   110   54   55 am   BACKBONE|DICT|INTERRES
   111   54  179 1    
   112   55   56 2    
   113   55   57 1    
   114   57   58 1    
   115   57   59 1    
   116   57  180 1    
   117   58  181 1    
   118   58  182 1    
   119   58  183 1    
   120   59   60 am   BACKBONE|DICT|INTERRES
   121   59  184 1    
   122   60   61 2    
   123   60   62 1    
   124   62   63 1    
   125   62   64 1    
   126   62  185 1    
   127   63  186 1    
   128   63  187 1    
   129   63  188 1    
   130   64   65 am   BACKBONE|DICT|INTERRES
   131   64  189 1    
   132   65   66 2    
   133   67   68 2    
   134   67   69 am   BACKBONE|DICT|INTERRES
   135   69   70 1    
   136   69  190 1    
   137   70   71 1    
   138   70   72 1    
   139   70  191 1    
   140   71  192 1    
   141   71  193 1    
   142   71  194 1    
   143   72   73 2    
   144   72   74 am   BACKBONE|DICT|INTERRES
   145   74   75 1    
   146   74  195 1    
   147   75   76 1    
   148   75   77 1    
   149   75  196 1    
   150   76  197 1    
   151   76  198 1    
   152   76  199 1    
   153   77   78 2    
   154   77   79 am   BACKBONE|DICT|INTERRES
   155   79   80 1    
   156   79  200 1    
   157   80   81 1    
   158   80   82 1    
   159   80  201 1    
   160   81  202 1    
   161   81  203 1    
   162   81  204 1    
   163   82   83 2    
   164   82   84 am   BACKBONE|DICT|INTERRES
   165   84   85 1    
   166   84  205 1    
   167   85   86 1    
   168   85   87 1    
   169   85  206 1    
   170   86  207 1    
   171   86  208 1    
   172   86  209 1    
   173   87   88 2    
   174   87   89 am   BACKBONE|DICT|INTERRES
   175   89   90 1    
   176   89  210 1    
   177   90   91 1    
   178   90   92 1    
   179   90  211 1    
   180   91  212 1    
   181   91  213 1    
   182   91  214 1    
   183   92   93 2    
   184   92   94 am   BACKBONE|DICT|INTERRES
   185   94   95 1    
   186   94  215 1    
   187   95   96 1    
   188   95   97 1    
   189   95  216 1    
   190   96  217 1    
   191   96  218 1    
   192   96  219 1    
   193   97   98 2    
   194   97   99 am   BACKBONE|DICT|INTERRES
   195   99  100 1    
   196   99  220 1    
   197  100  101 1    
   198  100  102 1    
   199  100  221 1    
   200  101  222 1    
   201  101  223 1    
   202  101  224 1    
   203  102  103 2    
   204  102  104 am   BACKBONE|DICT|INTERRES
   205  104  105 1    
   206  104  225 1    
   207  105  106 1    
   208  105  107 1    
   209  105  226 1    
   210  106  227 1    
   211  106  228 1    
   212  106  229 1    
   213  107  108 2    
   214  107  109 am   BACKBONE|DICT|INTERRES
   215  109  110 1    
   216  109  230 1    
   217  110  111 1    
   218  110  112 1    
   219  110  231 1    
   220  111  232 1    
   221  111  233 1    
   222  111  234 1    
   223  112  113 2    
   224  112  114 am   BACKBONE|DICT|INTERRES
   225  114  115 1    
   226  114  235 1    
   227  115  116 1    
   228  115  117 1    
   229  115  236 1    
   230  116  237 1    
   231  116  238 1    
   232  116  239 1    
   233  117  118 2    
   234  117  119 am   BACKBONE|DICT|INTERRES
   235  119  120 1    
   236  119  240 1    
   237  120  121 1    
   238  120  124 1    
   239  120  241 1    
   240  121  122 am   BACKBONE|DICT|INTERRES
   241  121  123 2    
   242  122  242 1    
   243  122  243 1    
   244  124  125 1    
   245  124  244 1    
   246  124  245 1    
   247  125  126 1    
   248  126  246 1    
   249  126  247 1    
@<TRIPOS>SUBSTRUCTURE
     1 UNK         1 GROUP             0       ****    0 ROOT    
