@<TRIPOS>MOLECULE
3R540
247   249    1
SMALL
USER_CHARGES


@<TRIPOS>ATOM
      1 CA          4.7816  -10.6264  -51.0743 C.3       0 UNK        -0.1800 
      2 C           4.2707  -11.8456  -50.3195 C.2       0 UNK         0.5000 
      3 O           3.0641  -11.9710  -50.1116 O.2       0 UNK        -0.5000 
      4 N           5.1878  -12.7335  -49.9089 N.am      1 UNK        -0.5000 
      5 CA          4.9308  -13.9860  -49.1770 C.3       1 UNK         0.1400 
      6 C6          4.0983  -15.0321  -49.9780 C.3       23 UNK        -0.0398 
      7 S7          4.7590  -15.3530  -51.6505 S.3       23 UNK        -0.2404 
      8 C8          5.7475  -16.8598  -51.3911 C.3       23 UNK        -0.0205 
      9 C9          4.9051  -18.1293  -51.3743 C.ar      23 UNK        -0.0193 
     10 C10         4.2263  -18.5385  -52.5266 C.ar      23 UNK        -0.1150 
     11 C11         3.5075  -19.7378  -52.5440 C.ar      23 UNK        -0.0193 
     12 C12         3.4804  -20.5378  -51.3978 C.ar      23 UNK        -0.1150 
     13 C13         4.1423  -20.1347  -50.2358 C.ar      23 UNK        -0.0193 
     14 C14         4.8500  -18.9281  -50.2283 C.ar      23 UNK        -0.1150 
     15 C15         4.1235  -21.0161  -48.9971 C.3       23 UNK        -0.0205 
     16 S16         2.8677  -20.4694  -47.8031 S.3       23 UNK        -0.2404 
     17 C17         1.3755  -21.3493  -48.3770 C.3       23 UNK        -0.0398 
     18 CA          0.1664  -21.0346  -47.4546 C.3       11 UNK         0.1400 
     19 N          -0.2925  -19.6459  -47.5363 N.am      11 UNK        -0.5000 
     20 C          -0.8583  -19.0423  -48.5919 C.2       10 UNK         0.5000 
     21 O          -0.9960  -19.5670  -49.6959 O.2       10 UNK        -0.5000 
     22 CA         -1.3950  -17.6156  -48.3707 C.3       10 UNK         0.1400 
     23 CB         -2.9191  -17.6567  -48.1768 C.3       10 UNK        -0.1800 
     24 N          -0.7868  -16.9429  -47.2219 N.am      10 UNK        -0.5000 
     25 C           0.4817  -16.5125  -47.1786 C.2       9 UNK         0.5000 
     26 O           1.2496  -16.5686  -48.1384 O.2       9 UNK        -0.5000 
     27 CA          0.9738  -15.9640  -45.8262 C.3       9 UNK         0.1400 
     28 CB          0.5444  -14.5003  -45.6351 C.3       9 UNK        -0.1800 
     29 N           0.5002  -16.7606  -44.6939 N.am      9 UNK        -0.5000 
     30 C           0.9115  -18.0049  -44.4120 C.2       8 UNK         0.5000 
     31 O           1.7475  -18.6179  -45.0716 O.2       8 UNK        -0.5000 
     32 CA          0.2514  -18.6983  -43.2082 C.3       8 UNK         0.1400 
     33 CB          0.9459  -18.3109  -41.8928 C.3       8 UNK        -0.1800 
     34 N          -1.1753  -18.3930  -43.1243 N.am      8 UNK        -0.5000 
     35 C          -2.0984  -18.8802  -43.9649 C.2       7 UNK         0.5000 
     36 O          -1.8506  -19.6908  -44.8586 O.2       7 UNK        -0.5000 
     37 CA         -3.5318  -18.3434  -43.7995 C.3       7 UNK         0.1400 
     38 CB         -4.3075  -19.1823  -42.7736 C.3       7 UNK        -0.1800 
     39 N          -3.5642  -16.9346  -43.3988 N.am      7 UNK        -0.5000 
     40 C          -3.1683  -15.9201  -44.1805 C.2       6 UNK         0.5000 
     41 O          -2.7544  -16.0661  -45.3290 O.2       6 UNK        -0.5000 
     42 CA         -3.1883  -14.5135  -43.5565 C.3       6 UNK         0.1400 
     43 CB         -4.5887  -13.8927  -43.6664 C.3       6 UNK        -0.1800 
     44 N          -2.7532  -14.4950  -42.1571 N.am      6 UNK        -0.5000 
     45 C          -1.5277  -14.8348  -41.7384 C.2       5 UNK         0.5000 
     46 O          -0.6363  -15.2474  -42.4847 O.2       5 UNK        -0.5000 
     47 CA         -1.2696  -14.7410  -40.2309 C.3       5 UNK         0.1400 
     48 CB         -1.6904  -16.0414  -39.5263 C.3       5 UNK        -0.1800 
     49 N           0.1533  -14.5079  -40.0078 N.am      5 UNK        -0.5000 
     50 C           0.6688  -13.7191  -39.0582 C.2       4 UNK         0.5000 
     51 O          -0.0171  -13.1245  -38.2251 O.2       4 UNK        -0.5000 
     52 CA          2.2044  -13.5658  -39.0071 C.3       4 UNK         0.1400 
     53 CB          2.7752  -14.3185  -37.7943 C.3       4 UNK        -0.1800 
     54 N           2.9082  -14.0220  -40.2100 N.am      4 UNK        -0.5000 
     55 C           2.8912  -13.4020  -41.3962 C.2       3 UNK         0.5000 
     56 O           2.2386  -12.3802  -41.6277 O.2       3 UNK        -0.5000 
     57 CA          3.7413  -14.0425  -42.5056 C.3       3 UNK         0.1400 
     58 CB          3.2500  -15.4641  -42.8348 C.3       3 UNK        -0.1800 
     59 N           3.6726  -13.2030  -43.6971 N.am      3 UNK        -0.5000 
     60 C           4.5742  -13.1628  -44.6822 C.2       2 UNK         0.5000 
     61 O           5.6076  -13.8368  -44.6996 O.2       2 UNK        -0.5000 
     62 CA          4.2804  -12.1678  -45.8231 C.3       2 UNK         0.1400 
     63 CB          4.8996  -10.7957  -45.5146 C.3       2 UNK        -0.1800 
     64 N           4.7651  -12.6209  -47.1293 N.am      2 UNK        -0.5000 
     65 C           4.3464  -13.7242  -47.7675 C.2       1 UNK         0.5000 
     66 O           3.5201  -14.4998  -47.2927 O.2       1 UNK        -0.5000 
     67 C          -1.0312  -21.9875  -47.6400 C.2       11 UNK         0.5000 
     68 O          -1.0347  -22.8306  -48.5388 O.2       11 UNK        -0.5000 
     69 N          -2.0448  -21.8042  -46.7797 N.am      12 UNK        -0.5000 
     70 CA         -3.3570  -22.4579  -46.7938 C.3       12 UNK         0.1400 
     71 CB         -4.1589  -21.9755  -45.5770 C.3       12 UNK        -0.1800 
     72 C          -3.3407  -23.9973  -46.8542 C.2       12 UNK         0.5000 
     73 O          -4.2813  -24.5824  -47.3903 O.2       12 UNK        -0.5000 
     74 N          -2.2748  -24.6251  -46.3411 N.am      13 UNK        -0.5000 
     75 CA         -2.0421  -26.0684  -46.4290 C.3       13 UNK         0.1400 
     76 CB         -0.8514  -26.4400  -45.5324 C.3       13 UNK        -0.1800 
     77 C          -1.8053  -26.5601  -47.8723 C.2       13 UNK         0.5000 
     78 O          -2.1994  -27.6795  -48.2005 O.2       13 UNK        -0.5000 
     79 N          -1.1825  -25.7153  -48.7051 N.am      14 UNK        -0.5000 
     80 CA         -0.9461  -25.9658  -50.1266 C.3       14 UNK         0.1400 
     81 CB          0.4247  -25.3902  -50.5175 C.3       14 UNK        -0.1800 
     82 C          -2.0549  -25.3407  -50.9896 C.2       14 UNK         0.5000 
     83 O          -2.4661  -25.9407  -51.9815 O.2       14 UNK        -0.5000 
     84 N          -2.5309  -24.1555  -50.5850 N.am      15 UNK        -0.5000 
     85 CA         -3.5394  -23.3531  -51.2801 C.3       15 UNK         0.1400 
     86 CB         -3.3154  -21.8763  -50.9162 C.3       15 UNK        -0.1800 
     87 C          -4.9973  -23.7934  -51.0229 C.2       15 UNK         0.5000 
     88 O          -5.9148  -23.0433  -51.3561 O.2       15 UNK        -0.5000 
     89 N          -5.1972  -24.9803  -50.4303 N.am      16 UNK        -0.5000 
     90 CA         -6.4805  -25.6481  -50.1783 C.3       16 UNK         0.1400 
     91 CB         -7.1156  -26.0993  -51.5102 C.3       16 UNK        -0.1800 
     92 C          -7.4348  -24.7871  -49.3284 C.2       16 UNK         0.5000 
     93 O          -8.4976  -24.3818  -49.7998 O.2       16 UNK        -0.5000 
     94 N          -6.9914  -24.4627  -48.1063 N.am      17 UNK        -0.5000 
     95 CA         -7.6353  -23.5566  -47.1447 C.3       17 UNK         0.1400 
     96 CB         -9.0204  -24.0826  -46.7123 C.3       17 UNK        -0.1800 
     97 C          -7.6736  -22.0933  -47.6393 C.2       17 UNK         0.5000 
     98 O          -8.5341  -21.3209  -47.2160 O.2       17 UNK        -0.5000 
     99 N          -6.7370  -21.7563  -48.5397 N.am      18 UNK        -0.5000 
    100 CA        -6.5944  -20.4919  -49.2689 C.3       18 UNK         0.1400 
    101 CB        -6.3244  -19.3179  -48.3044 C.3       18 UNK        -0.1800 
    102 C         -7.7440  -20.2153  -50.2643 C.2       18 UNK         0.5000 
    103 O         -7.9336  -19.0664  -50.6674 O.2       18 UNK        -0.5000 
    104 N         -8.4825  -21.2627  -50.6603 N.am      19 UNK        -0.5000 
    105 CA        -9.5523  -21.1899  -51.6561 C.3       19 UNK         0.1400 
    106 CB       -10.5909  -22.2824  -51.3594 C.3       19 UNK        -0.1800 
    107 C         -9.0261  -21.3292  -53.0973 C.2       19 UNK         0.5000 
    108 O         -9.7123  -20.9030  -54.0278 O.2       19 UNK        -0.5000 
    109 N         -7.8379  -21.9221  -53.2621 N.am      20 UNK        -0.5000 
    110 CA        -7.1509  -22.1177  -54.5354 C.3       20 UNK         0.1400 
    111 CB        -6.8875  -23.6245  -54.7126 C.3       20 UNK        -0.1800 
    112 C         -5.8347  -21.3201  -54.5499 C.2       20 UNK         0.5000 
    113 O         -5.4965  -20.6487  -53.5719 O.2       20 UNK        -0.5000 
    114 N         -5.1041  -21.4104  -55.6676 N.am      21 UNK        -0.5000 
    115 CA        -3.7367  -20.9067  -55.7934 C.3       21 UNK         0.1400 
    116 CB        -3.3547  -20.8602  -57.2809 C.3       21 UNK        -0.1800 
    117 C         -2.7532  -21.7957  -55.0086 C.2       21 UNK         0.5000 
    118 O         -2.9588  -23.0094  -54.9258 O.2       21 UNK        -0.5000 
    119 N         -1.7038  -21.1772  -54.4590 N.am      22 UNK        -0.5000 
    120 CA        -0.6277  -21.8507  -53.7182 C.3       22 UNK         0.1400 
    121 C          0.2713  -22.7739  -54.5943 C.2       22 UNK         0.5000 
    122 N          1.0278  -23.6730  -53.9780 N.am      22 UNK        -0.7600 
    123 O          0.3175  -22.6691  -55.8183 O.2       22 UNK        -0.5000 
    124 C124        0.1951  -20.8349  -52.8831 C.3       23 UNK        -0.0398 
    125 S125        1.0745  -19.5741  -53.8757 S.3       23 UNK        -0.2404 
    126 C126        2.7923  -20.1784  -53.8130 C.3       23 UNK        -0.0205 
    127 H127        5.8659  -10.6429  -51.1870 H         1 UNK         0.0600 
    128 H128        4.5087   -9.7146  -50.5430 H         1 UNK         0.0600 
    129 H129        4.3376  -10.5886  -52.0691 H         1 UNK         0.0600 
    130 H130        6.1593  -12.5603  -50.1262 H         1 UNK         0.3000 
    131 H131        5.9120  -14.4293  -49.0013 H         1 UNK         0.0600 
    132 H132        3.0668  -14.6935  -50.0868 H         1 UNK         0.0800 
    133 H133        4.0413  -15.9770  -49.4344 H         1 UNK         0.0800 
    134 H134        6.3287  -16.7597  -50.4731 H         1 UNK         0.0800 
    135 H135        6.4741  -16.9391  -52.2008 H         1 UNK         0.0800 
    136 H136        4.2674  -17.9246  -53.4156 H         1 UNK         0.1150 
    137 H137        2.9535  -21.4803  -51.4077 H         1 UNK         0.1150 
    138 H138        5.3736  -18.6234  -49.3329 H         1 UNK         0.1150 
    139 H139        3.9577  -22.0610  -49.2637 H         1 UNK         0.0800 
    140 H140        5.1014  -20.9797  -48.5148 H         1 UNK         0.0800 
    141 H141        1.5976  -22.4178  -48.3684 H         1 UNK         0.0800 
    142 H142        1.1663  -21.0836  -49.4139 H         1 UNK         0.0800 
    143 H143        0.4937  -21.1823  -46.4239 H         1 UNK         0.0600 
    144 H144       -0.2360  -19.1208  -46.6753 H         1 UNK         0.3000 
    145 H145       -1.1757  -17.0345  -49.2687 H         1 UNK         0.0600 
    146 H146       -3.3330  -16.6528  -48.0809 H         1 UNK         0.0600 
    147 H147       -3.1938  -18.2194  -47.2836 H         1 UNK         0.0600 
    148 H148       -3.4096  -18.1311  -49.0279 H         1 UNK         0.0600 
    149 H149       -1.3872  -16.7882  -46.4157 H         1 UNK         0.3000 
    150 H150        2.0639  -16.0066  -45.8219 H         1 UNK         0.0600 
    151 H151        0.9231  -13.8758  -46.4449 H         1 UNK         0.0600 
    152 H152        0.9317  -14.0925  -44.7017 H         1 UNK         0.0600 
    153 H153       -0.5405  -14.3970  -45.6206 H         1 UNK         0.0600 
    154 H154       -0.1444  -16.3047  -44.0559 H         1 UNK         0.3000 
    155 H155        0.3640  -19.7765  -43.3420 H         1 UNK         0.0600 
    156 H156        2.0075  -18.5587  -41.9275 H         1 UNK         0.0600 
    157 H157        0.5149  -18.8473  -41.0474 H         1 UNK         0.0600 
    158 H158        0.8675  -17.2443  -41.6867 H         1 UNK         0.0600 
    159 H159       -1.4540  -17.6989  -42.4477 H         1 UNK         0.3000 
    160 H160       -4.0325  -18.4352  -44.7657 H         1 UNK         0.0600 
    161 H161       -3.8724  -19.1042  -41.7765 H         1 UNK         0.0600 
    162 H162       -4.3074  -20.2374  -43.0491 H         1 UNK         0.0600 
    163 H163       -5.3485  -18.8646  -42.7120 H         1 UNK         0.0600 
    164 H164       -3.8912  -16.7286  -42.4664 H         1 UNK         0.3000 
    165 H165       -2.4961  -13.8912  -44.1275 H         1 UNK         0.0600 
    166 H166       -4.5921  -12.8619  -43.3116 H         1 UNK         0.0600 
    167 H167       -4.9289  -13.8788  -44.7029 H         1 UNK         0.0600 
    168 H168       -5.3251  -14.4504  -43.0866 H         1 UNK         0.0600 
    169 H169       -3.4325  -14.1778  -41.4804 H         1 UNK         0.3000 
    170 H170       -1.8542  -13.9069  -39.8370 H         1 UNK         0.0600 
    171 H171       -1.1289  -16.9002  -39.8961 H         1 UNK         0.0600 
    172 H172       -1.5267  -15.9751  -38.4505 H         1 UNK         0.0600 
    173 H173       -2.7501  -16.2483  -39.6802 H         1 UNK         0.0600 
    174 H174        0.7647  -14.9073  -40.7065 H         1 UNK         0.3000 
    175 H175        2.4154  -12.5024  -38.8759 H         1 UNK         0.0600 
    176 H176        2.6070  -15.3934  -37.8732 H         1 UNK         0.0600 
    177 H177        3.8478  -14.1515  -37.6941 H         1 UNK         0.0600 
    178 H178        2.3090  -13.9811  -36.8676 H         1 UNK         0.0600 
    179 H179        3.4645  -14.8583  -40.1056 H         1 UNK         0.3000 
    180 H180        4.7753  -14.0829  -42.1567 H         1 UNK         0.0600 
    181 H181        2.1813  -15.4673  -43.0419 H         1 UNK         0.0600 
    182 H182        3.4242  -16.1476  -42.0037 H         1 UNK         0.0600 
    183 H183        3.7614  -15.8789  -43.7037 H         1 UNK         0.0600 
    184 H184        2.8894  -12.5609  -43.6958 H         1 UNK         0.3000 
    185 H185        3.1977  -12.0481  -45.9025 H         1 UNK         0.0600 
    186 H186        5.9873  -10.8509  -45.4541 H         1 UNK         0.0600 
    187 H187        4.6415  -10.0640  -46.2805 H         1 UNK         0.0600 
    188 H188        4.5374  -10.4076  -44.5616 H         1 UNK         0.0600 
    189 H189        5.4563  -12.0411  -47.5808 H         1 UNK         0.3000 
    190 H190       -1.9383  -21.0664  -46.0852 H         1 UNK         0.3000 
    191 H191       -3.8774  -22.1146  -47.6872 H         1 UNK         0.0600 
    192 H192       -4.3398  -20.9020  -45.6287 H         1 UNK         0.0600 
    193 H193       -3.6332  -22.1835  -44.6443 H         1 UNK         0.0600 
    194 H194       -5.1315  -22.4617  -45.5188 H         1 UNK         0.0600 
    195 H195       -1.5506  -24.0692  -45.9114 H         1 UNK         0.3000 
    196 H196       -2.9298  -26.5776  -46.0477 H         1 UNK         0.0600 
    197 H197       -1.0392  -26.1671  -44.4938 H         1 UNK         0.0600 
    198 H198        0.0645  -25.9410  -45.8516 H         1 UNK         0.0600 
    199 H199       -0.6653  -27.5146  -45.5562 H         1 UNK         0.0600 
    200 H200       -0.9438  -24.7879  -48.3708 H         1 UNK         0.3000 
    201 H201       -0.9291  -27.0404  -50.3208 H         1 UNK         0.0600 
    202 H202        1.2216  -25.8374  -49.9231 H         1 UNK         0.0600 
    203 H203        0.4683  -24.3096  -50.3747 H         1 UNK         0.0600 
    204 H204        0.6470  -25.5968  -51.5648 H         1 UNK         0.0600 
    205 H205       -2.0987  -23.7196  -49.7745 H         1 UNK         0.3000 
    206 H206       -3.3771  -23.4572  -52.3533 H         1 UNK         0.0600 
    207 H207       -2.2874  -21.5734  -51.1090 H         1 UNK         0.0600 
    208 H208       -3.5190  -21.6809  -49.8656 H         1 UNK         0.0600 
    209 H209       -3.9556  -21.2206  -51.5054 H         1 UNK         0.0600 
    210 H210       -4.3754  -25.4953  -50.1494 H         1 UNK         0.3000 
    211 H211       -6.2600  -26.5435  -49.5953 H         1 UNK         0.0600 
    212 H212       -7.3920  -25.2508  -52.1369 H         1 UNK         0.0600 
    213 H213       -8.0210  -26.6805  -51.3322 H         1 UNK         0.0600 
    214 H214       -6.4317  -26.7277  -52.0806 H         1 UNK         0.0600 
    215 H215       -6.0567  -24.7712  -47.8422 H         1 UNK         0.3000 
    216 H216       -7.0013  -23.5632  -46.2587 H         1 UNK         0.0600 
    217 H217       -9.4095  -23.5081  -45.8711 H         1 UNK         0.0600 
    218 H218       -8.9658  -25.1238  -46.3946 H         1 UNK         0.0600 
    219 H219       -9.7531  -24.0139  -47.5167 H         1 UNK         0.0600 
    220 H220       -6.1289  -22.4989  -48.8527 H         1 UNK         0.3000 
    221 H221       -5.7052  -20.6047  -49.8878 H         1 UNK         0.0600 
    222 H222       -7.1998  -19.0768  -47.7014 H         1 UNK         0.0600 
    223 H223       -5.5010  -19.5452  -47.6273 H         1 UNK         0.0600 
    224 H224       -6.0508  -18.4163  -48.8533 H         1 UNK         0.0600 
    225 H225       -8.2601  -22.1852  -50.3052 H         1 UNK         0.3000 
    226 H226      -10.0528  -20.2227  -51.5756 H         1 UNK         0.0600 
    227 H227      -10.9506  -22.2200  -50.3322 H         1 UNK         0.0600 
    228 H228      -11.4565  -22.1836  -52.0154 H         1 UNK         0.0600 
    229 H229      -10.1798  -23.2807  -51.5122 H         1 UNK         0.0600 
    230 H230       -7.2969  -22.1871  -52.4429 H         1 UNK         0.3000 
    231 H231       -7.7646  -21.7659  -55.3668 H         1 UNK         0.0600 
    232 H232       -6.4731  -23.8437  -55.6969 H         1 UNK         0.0600 
    233 H233       -7.8088  -24.1995  -54.6172 H         1 UNK         0.0600 
    234 H234       -6.1817  -23.9995  -53.9705 H         1 UNK         0.0600 
    235 H235       -5.4309  -22.0006  -56.4182 H         1 UNK         0.3000 
    236 H236       -3.6983  -19.8915  -55.3920 H         1 UNK         0.0600 
    237 H237       -3.3819  -21.8518  -57.7347 H         1 UNK         0.0600 
    238 H238       -4.0298  -20.2141  -57.8424 H         1 UNK         0.0600 
    239 H239       -2.3453  -20.4681  -57.4121 H         1 UNK         0.0600 
    240 H240       -1.5773  -20.1867  -54.6071 H         1 UNK         0.3000 
    241 H241       -1.1204  -22.5170  -53.0082 H         1 UNK         0.0600 
    242 H242        1.6190  -24.2698  -54.5357 H         1 UNK         0.3800 
    243 H243        1.0222  -23.7822  -52.9778 H         1 UNK         0.3800 
    244 H244        0.8911  -21.3593  -52.2314 H         1 UNK         0.0800 
    245 H245       -0.4740  -20.3022  -52.2072 H         1 UNK         0.0800 
    246 H246        3.3253  -19.7951  -54.6844 H         1 UNK         0.0800 
    247 H247        2.8143  -21.2650  -53.9053 H         1 UNK         0.0800 
@<TRIPOS>BOND
     1    1    2 1    
     2    1  127 1    
     3    1  128 1    
     4    1  129 1    
     5    2    3 2    
     6    2    4 am   BACKBONE|DICT|INTERRES
     7    4    5 1    
     8    4  130 1    
     9    5    6 1    
    10    5   65 1    
    11    5  131 1    
    12    6    7 1    
    13    6  132 1    
    14    6  133 1    
    15    7    8 1    
    16    8    9 1    
    17    8  134 1    
    18    8  135 1    
    19    9   10 ar   
    20    9   14 ar   
    21   10   11 ar   
    22   10  136 1    
    23   11   12 ar   
    24   11  126 1    
    25   12   13 ar   
    26   12  137 1    
    27   13   14 ar   
    28   13   15 1    
    29   14  138 1    
    30   15   16 1    
    31   15  139 1    
    32   15  140 1    
    33   16   17 1    
    34   17   18 1    
    35   17  141 1    
    36   17  142 1    
    37   18   19 1    
    38   18   67 1    
    39   18  143 1    
    40   19   20 am   BACKBONE|DICT|INTERRES
    41   19  144 1    
    42   20   21 2    
    43   20   22 1    
    44   22   23 1    
    45   22   24 1    
    46   22  145 1    
    47   23  146 1    
    48   23  147 1    
    49   23  148 1    
    50   24   25 am   BACKBONE|DICT|INTERRES
    51   24  149 1    
    52   25   26 2    
    53   25   27 1    
    54   27   28 1    
    55   27   29 1    
    56   27  150 1    
    57   28  151 1    
    58   28  152 1    
    59   28  153 1    
    60   29   30 am   BACKBONE|DICT|INTERRES
    61   29  154 1    
    62   30   31 2    
    63   30   32 1    
    64   32   33 1    
    65   32   34 1    
    66   32  155 1    
    67   33  156 1    
    68   33  157 1    
    69   33  158 1    
    70   34   35 am   BACKBONE|DICT|INTERRES
    71   34  159 1    
    72   35   36 2    
    73   35   37 1    
    74   37   38 1    
    75   37   39 1    
    76   37  160 1    
    77   38  161 1    
    78   38  162 1    
    79   38  163 1    
    80   39   40 am   BACKBONE|DICT|INTERRES
    81   39  164 1    
    82   40   41 2    
    83   40   42 1    
    84   42   43 1    
    85   42   44 1    
    86   42  165 1    
    87   43  166 1    
    88   43  167 1    
    89   43  168 1    
    90   44   45 am   BACKBONE|DICT|INTERRES
    91   44  169 1    
    92   45   46 2    
    93   45   47 1    
    94   47   48 1    
    95   47   49 1    
    96   47  170 1    
    97   48  171 1    
    98   48  172 1    
    99   48  173 1    
   100   49   50 am   BACKBONE|DICT|INTERRES
   101   49  174 1    
   102   50   51 2    
   103   50   52 1    
   104   52   53 1    
   105   52   54 1    
   106   52  175 1    
   107   53  176 1    
   108   53  177 1    
   109   53  178 1    
   110   54   55 am   BACKBONE|DICT|INTERRES
   111   54  179 1    
   112   55   56 2    
   113   55   57 1    
   114   57   58 1    
   115   57   59 1    
   116   57  180 1    
   117   58  181 1    
   118   58  182 1    
   119   58  183 1    
   120   59   60 am   BACKBONE|DICT|INTERRES
   121   59  184 1    
   122   60   61 2    
   123   60   62 1    
   124   62   63 1    
   125   62   64 1    
   126   62  185 1    
   127   63  186 1    
   128   63  187 1    
   129   63  188 1    
   130   64   65 am   BACKBONE|DICT|INTERRES
   131   64  189 1    
   132   65   66 2    
   133   67   68 2    
   134   67   69 am   BACKBONE|DICT|INTERRES
   135   69   70 1    
   136   69  190 1    
   137   70   71 1    
   138   70   72 1    
   139   70  191 1    
   140   71  192 1    
   141   71  193 1    
   142   71  194 1    
   143   72   73 2    
   144   72   74 am   BACKBONE|DICT|INTERRES
   145   74   75 1    
   146   74  195 1    
   147   75   76 1    
   148   75   77 1    
   149   75  196 1    
   150   76  197 1    
   151   76  198 1    
   152   76  199 1    
   153   77   78 2    
   154   77   79 am   BACKBONE|DICT|INTERRES
   155   79   80 1    
   156   79  200 1    
   157   80   81 1    
   158   80   82 1    
   159   80  201 1    
   160   81  202 1    
   161   81  203 1    
   162   81  204 1    
   163   82   83 2    
   164   82   84 am   BACKBONE|DICT|INTERRES
   165   84   85 1    
   166   84  205 1    
   167   85   86 1    
   168   85   87 1    
   169   85  206 1    
   170   86  207 1    
   171   86  208 1    
   172   86  209 1    
   173   87   88 2    
   174   87   89 am   BACKBONE|DICT|INTERRES
   175   89   90 1    
   176   89  210 1    
   177   90   91 1    
   178   90   92 1    
   179   90  211 1    
   180   91  212 1    
   181   91  213 1    
   182   91  214 1    
   183   92   93 2    
   184   92   94 am   BACKBONE|DICT|INTERRES
   185   94   95 1    
   186   94  215 1    
   187   95   96 1    
   188   95   97 1    
   189   95  216 1    
   190   96  217 1    
   191   96  218 1    
   192   96  219 1    
   193   97   98 2    
   194   97   99 am   BACKBONE|DICT|INTERRES
   195   99  100 1    
   196   99  220 1    
   197  100  101 1    
   198  100  102 1    
   199  100  221 1    
   200  101  222 1    
   201  101  223 1    
   202  101  224 1    
   203  102  103 2    
   204  102  104 am   BACKBONE|DICT|INTERRES
   205  104  105 1    
   206  104  225 1    
   207  105  106 1    
   208  105  107 1    
   209  105  226 1    
   210  106  227 1    
   211  106  228 1    
   212  106  229 1    
   213  107  108 2    
   214  107  109 am   BACKBONE|DICT|INTERRES
   215  109  110 1    
   216  109  230 1    
   217  110  111 1    
   218  110  112 1    
   219  110  231 1    
   220  111  232 1    
   221  111  233 1    
   222  111  234 1    
   223  112  113 2    
   224  112  114 am   BACKBONE|DICT|INTERRES
   225  114  115 1    
   226  114  235 1    
   227  115  116 1    
   228  115  117 1    
   229  115  236 1    
   230  116  237 1    
   231  116  238 1    
   232  116  239 1    
   233  117  118 2    
   234  117  119 am   BACKBONE|DICT|INTERRES
   235  119  120 1    
   236  119  240 1    
   237  120  121 1    
   238  120  124 1    
   239  120  241 1    
   240  121  122 am   BACKBONE|DICT|INTERRES
   241  121  123 2    
   242  122  242 1    
   243  122  243 1    
   244  124  125 1    
   245  124  244 1    
   246  124  245 1    
   247  125  126 1    
   248  126  246 1    
   249  126  247 1    
@<TRIPOS>SUBSTRUCTURE
     1 UNK         1 GROUP             0       ****    0 ROOT    
