@<TRIPOS>MOLECULE
3R540
247   249    1
SMALL
USER_CHARGES


@<TRIPOS>ATOM
      1 CA         -3.6748  -16.6715  -47.7081 C.3       0 UNK        -0.1800 
      2 C          -2.3427  -15.9855  -47.4387 C.2       0 UNK         0.5000 
      3 O          -1.3591  -16.6593  -47.1460 O.2       0 UNK        -0.5000 
      4 N          -2.3160  -14.6467  -47.5145 N.am      1 UNK        -0.5000 
      5 CA         -1.1337  -13.7852  -47.3326 C.3       1 UNK         0.1400 
      6 C6         -0.0924  -13.9129  -48.4793 C.3       23 UNK        -0.0398 
      7 S7         -0.7864  -13.4384  -50.1002 S.3       23 UNK        -0.2404 
      8 C8         -0.0809  -14.7058  -51.2024 C.3       23 UNK        -0.0205 
      9 C9         -0.6720  -16.0854  -50.9546 C.ar      23 UNK        -0.0193 
     10 C10        -2.0181  -16.3302  -51.2348 C.ar      23 UNK        -0.1150 
     11 C11        -2.5693  -17.5959  -51.0215 C.ar      23 UNK        -0.0193 
     12 C12        -1.7630  -18.6224  -50.5185 C.ar      23 UNK        -0.1150 
     13 C13        -0.4107  -18.3943  -50.2441 C.ar      23 UNK        -0.0193 
     14 C14         0.1281  -17.1232  -50.4686 C.ar      23 UNK        -0.1150 
     15 C15         0.4826  -19.5294  -49.7581 C.3       23 UNK        -0.0205 
     16 S16         1.2594  -19.1815  -48.1462 S.3       23 UNK        -0.2404 
     17 C17        -0.0820  -19.5971  -46.9778 C.3       23 UNK        -0.0398 
     18 CA          0.1490  -20.9617  -46.2796 C.3       11 UNK         0.1400 
     19 N           1.4080  -20.9869  -45.5318 N.am      11 UNK        -0.5000 
     20 C           2.3387  -21.9437  -45.6057 C.2       10 UNK         0.5000 
     21 O           2.2212  -22.9656  -46.2824 O.2       10 UNK        -0.5000 
     22 CA          3.6019  -21.7359  -44.7517 C.3       10 UNK         0.1400 
     23 CB          4.5591  -20.7466  -45.4339 C.3       10 UNK        -0.1800 
     24 N           3.2999  -21.2740  -43.3951 N.am      10 UNK        -0.5000 
     25 C           2.6611  -22.0070  -42.4718 C.2       9 UNK         0.5000 
     26 O           2.2742  -23.1594  -42.6668 O.2       9 UNK        -0.5000 
     27 CA          2.4073  -21.3477  -41.1042 C.3       9 UNK         0.1400 
     28 CB          3.6637  -21.4221  -40.2234 C.3       9 UNK        -0.1800 
     29 N           1.9759  -19.9561  -41.2243 N.am      9 UNK        -0.5000 
     30 C           0.7684  -19.5700  -41.6599 C.2       8 UNK         0.5000 
     31 O          -0.1403  -20.3505  -41.9379 O.2       8 UNK        -0.5000 
     32 CA          0.5413  -18.0560  -41.8348 C.3       8 UNK         0.1400 
     33 CB          0.1272  -17.4145  -40.5019 C.3       8 UNK        -0.1800 
     34 N           1.7155  -17.3610  -42.3623 N.am      8 UNK        -0.5000 
     35 C           2.2738  -17.6001  -43.5574 C.2       7 UNK         0.5000 
     36 O           1.8347  -18.4131  -44.3689 O.2       7 UNK        -0.5000 
     37 CA          3.5777  -16.8472  -43.8689 C.3       7 UNK         0.1400 
     38 CB          3.2889  -15.4256  -44.3716 C.3       7 UNK        -0.1800 
     39 N           4.4627  -16.7913  -42.7055 N.am      7 UNK        -0.5000 
     40 C           5.1035  -17.8526  -42.1953 C.2       6 UNK         0.5000 
     41 O           5.0362  -18.9855  -42.6706 O.2       6 UNK        -0.5000 
     42 CA          5.9181  -17.6140  -40.9112 C.3       6 UNK         0.1400 
     43 CB          7.2876  -17.0016  -41.2408 C.3       6 UNK        -0.1800 
     44 N           5.2160  -16.7536  -39.9581 N.am      6 UNK        -0.5000 
     45 C           4.0816  -17.0920  -39.3291 C.2       5 UNK         0.5000 
     46 O           3.5309  -18.1845  -39.4560 O.2       5 UNK        -0.5000 
     47 CA          3.4277  -16.0117  -38.4474 C.3       5 UNK         0.1400 
     48 CB          3.9928  -16.0668  -37.0204 C.3       5 UNK        -0.1800 
     49 N           3.5745  -14.6520  -38.9765 N.am      5 UNK        -0.5000 
     50 C           3.1021  -14.2379  -40.1588 C.2       4 UNK         0.5000 
     51 O           2.5224  -14.9733  -40.9639 O.2       4 UNK        -0.5000 
     52 CA          3.3546  -12.7695  -40.5193 C.3       4 UNK         0.1400 
     53 CB          4.7876  -12.5716  -41.0413 C.3       4 UNK        -0.1800 
     54 N           2.4068  -12.3891  -41.5571 N.am      4 UNK        -0.5000 
     55 C           1.8234  -11.1954  -41.6985 C.2       3 UNK         0.5000 
     56 O           2.0709  -10.2249  -40.9814 O.2       3 UNK        -0.5000 
     57 CA          0.7910  -11.0551  -42.8349 C.3       3 UNK         0.1400 
     58 CB          1.3818  -10.2470  -44.0008 C.3       3 UNK        -0.1800 
     59 N           0.3211  -12.3413  -43.3546 N.am      3 UNK        -0.5000 
     60 C          -0.5708  -13.1461  -42.7659 C.2       2 UNK         0.5000 
     61 O          -1.1150  -12.8799  -41.6932 O.2       2 UNK        -0.5000 
     62 CA         -0.9140  -14.4533  -43.5179 C.3       2 UNK         0.1400 
     63 CB         -2.0322  -15.2597  -42.8329 C.3       2 UNK        -0.1800 
     64 N          -1.3039  -14.2263  -44.9127 N.am      2 UNK        -0.5000 
     65 C          -0.4865  -13.9243  -45.9318 C.2       1 UNK         0.5000 
     66 O           0.7223  -13.7349  -45.7853 O.2       1 UNK        -0.5000 
     67 C          -1.0236  -21.3666  -45.3607 C.2       11 UNK         0.5000 
     68 O          -2.1254  -20.8316  -45.4921 O.2       11 UNK        -0.5000 
     69 N          -0.7880  -22.3341  -44.4597 N.am      12 UNK        -0.5000 
     70 CA         -1.7714  -22.8649  -43.5056 C.3       12 UNK         0.1400 
     71 CB         -1.0657  -23.8139  -42.5258 C.3       12 UNK        -0.1800 
     72 C          -2.9761  -23.5675  -44.1652 C.2       12 UNK         0.5000 
     73 O          -4.0333  -23.6760  -43.5436 O.2       12 UNK        -0.5000 
     74 N          -2.8071  -23.9980  -45.4228 N.am      13 UNK        -0.5000 
     75 CA         -3.8590  -24.5289  -46.2912 C.3       13 UNK         0.1400 
     76 CB         -3.1924  -25.3115  -47.4337 C.3       13 UNK        -0.1800 
     77 C          -4.8116  -23.4453  -46.8478 C.2       13 UNK         0.5000 
     78 O          -5.7753  -23.7961  -47.5318 O.2       13 UNK        -0.5000 
     79 N          -4.5304  -22.1619  -46.5661 N.am      14 UNK        -0.5000 
     80 CA         -5.2677  -20.9697  -46.9864 C.3       14 UNK         0.1400 
     81 CB         -6.6528  -20.9117  -46.3034 C.3       14 UNK        -0.1800 
     82 C          -5.3072  -20.8650  -48.5210 C.2       14 UNK         0.5000 
     83 O          -4.2617  -20.6334  -49.1265 O.2       14 UNK        -0.5000 
     84 N          -6.4887  -21.0654  -49.1205 N.am      15 UNK        -0.5000 
     85 CA         -6.7005  -21.0914  -50.5685 C.3       15 UNK         0.1400 
     86 CB         -8.2098  -21.1126  -50.8545 C.3       15 UNK        -0.1800 
     87 C          -6.0038  -22.2680  -51.2802 C.2       15 UNK         0.5000 
     88 O          -5.7550  -22.1682  -52.4803 O.2       15 UNK        -0.5000 
     89 N          -5.7040  -23.3511  -50.5445 N.am      16 UNK        -0.5000 
     90 CA         -4.9851  -24.5471  -50.9910 C.3       16 UNK         0.1400 
     91 CB         -3.4857  -24.2167  -51.1681 C.3       16 UNK        -0.1800 
     92 C          -5.6402  -25.1952  -52.2311 C.2       16 UNK         0.5000 
     93 O          -6.7574  -25.7027  -52.1238 O.2       16 UNK        -0.5000 
     94 N          -4.9532  -25.1486  -53.3804 N.am      17 UNK        -0.5000 
     95 CA         -5.4168  -25.6614  -54.6724 C.3       17 UNK         0.1400 
     96 CB         -4.1988  -26.1374  -55.4818 C.3       17 UNK        -0.1800 
     97 C          -6.2723  -24.6485  -55.4684 C.2       17 UNK         0.5000 
     98 O          -6.5310  -24.8808  -56.6510 O.2       17 UNK        -0.5000 
     99 N          -6.6957  -23.5499  -54.8253 N.am      18 UNK        -0.5000 
    100 CA        -7.5533  -22.4828  -55.3431 C.3       18 UNK         0.1400 
    101 CB        -8.9770  -23.0109  -55.6302 C.3       18 UNK        -0.1800 
    102 C         -6.8889  -21.7604  -56.5282 C.2       18 UNK         0.5000 
    103 O         -5.8686  -21.1045  -56.3272 O.2       18 UNK        -0.5000 
    104 N         -7.4472  -21.9027  -57.7377 N.am      19 UNK        -0.5000 
    105 CA        -6.9506  -21.2928  -58.9752 C.3       19 UNK         0.1400 
    106 CB        -7.9607  -21.5637  -60.1008 C.3       19 UNK        -0.1800 
    107 C         -5.5397  -21.7583  -59.3929 C.2       19 UNK         0.5000 
    108 O         -4.8595  -21.0362  -60.1226 O.2       19 UNK        -0.5000 
    109 N         -5.1216  -22.9410  -58.9221 N.am      20 UNK        -0.5000 
    110 CA        -3.7860  -23.4990  -59.1384 C.3       20 UNK         0.1400 
    111 CB        -3.9044  -25.0294  -59.2176 C.3       20 UNK        -0.1800 
    112 C         -2.7654  -23.0678  -58.0616 C.2       20 UNK         0.5000 
    113 O         -1.6027  -23.4649  -58.1521 O.2       20 UNK        -0.5000 
    114 N         -3.1967  -22.2818  -57.0672 N.am      21 UNK        -0.5000 
    115 CA        -2.3782  -21.7497  -55.9798 C.3       21 UNK         0.1400 
    116 CB        -2.8238  -22.4189  -54.6657 C.3       21 UNK        -0.1800 
    117 C         -2.5103  -20.2160  -55.9142 C.2       21 UNK         0.5000 
    118 O         -3.1252  -19.6043  -56.7915 O.2       21 UNK        -0.5000 
    119 N         -1.9151  -19.6236  -54.8707 N.am      22 UNK        -0.5000 
    120 CA        -2.0276  -18.2011  -54.4931 C.3       22 UNK         0.1400 
    121 C         -1.3394  -17.1958  -55.4672 C.2       22 UNK         0.5000 
    122 N         -0.4597  -17.6363  -56.3583 N.am      22 UNK        -0.7600 
    123 O         -1.5763  -15.9928  -55.3972 O.2       22 UNK        -0.5000 
    124 C124       -3.4840  -17.7815  -54.1314 C.3       23 UNK        -0.0398 
    125 S125       -4.2393  -18.8500  -52.8536 S.3       23 UNK        -0.2404 
    126 C126       -4.0336  -17.8513  -51.3449 C.3       23 UNK        -0.0205 
    127 H127       -3.5125  -17.6327  -48.1963 H         1 UNK         0.0600 
    128 H128       -4.2007  -16.8526  -46.7708 H         1 UNK         0.0600 
    129 H129       -4.3119  -16.0672  -48.3544 H         1 UNK         0.0600 
    130 H130       -3.1658  -14.1570  -47.7568 H         1 UNK         0.3000 
    131 H131       -1.5122  -12.7623  -47.3582 H         1 UNK         0.0600 
    132 H132        0.3042  -14.9282  -48.5187 H         1 UNK         0.0800 
    133 H133        0.7638  -13.2597  -48.3035 H         1 UNK         0.0800 
    134 H134       -0.2770  -14.4205  -52.2370 H         1 UNK         0.0800 
    135 H135        1.0043  -14.7176  -51.0890 H         1 UNK         0.0800 
    136 H136       -2.6343  -15.5306  -51.6211 H         1 UNK         0.1150 
    137 H137       -2.1889  -19.6033  -50.3610 H         1 UNK         0.1150 
    138 H138        1.1741  -16.9455  -50.2621 H         1 UNK         0.1150 
    139 H139       -0.0695  -20.4688  -49.7000 H         1 UNK         0.0800 
    140 H140        1.2712  -19.6854  -50.4951 H         1 UNK         0.0800 
    141 H141       -1.0337  -19.5811  -47.5125 H         1 UNK         0.0800 
    142 H142       -0.1404  -18.8020  -46.2332 H         1 UNK         0.0800 
    143 H143        0.1754  -21.7170  -47.0675 H         1 UNK         0.0600 
    144 H144        1.5947  -20.1610  -44.9663 H         1 UNK         0.3000 
    145 H145        4.1121  -22.6981  -44.6727 H         1 UNK         0.0600 
    146 H146        5.4943  -20.6577  -44.8811 H         1 UNK         0.0600 
    147 H147        4.8077  -21.0761  -46.4435 H         1 UNK         0.0600 
    148 H148        4.1202  -19.7515  -45.5125 H         1 UNK         0.0600 
    149 H149        3.6412  -20.3522  -43.1425 H         1 UNK         0.3000 
    150 H150        1.6139  -21.9093  -40.6063 H         1 UNK         0.0600 
    151 H151        4.0026  -22.4527  -40.1113 H         1 UNK         0.0600 
    152 H152        3.4664  -21.0341  -39.2240 H         1 UNK         0.0600 
    153 H153        4.4884  -20.8481  -40.6470 H         1 UNK         0.0600 
    154 H154        2.6412  -19.2466  -40.9360 H         1 UNK         0.3000 
    155 H155       -0.2709  -17.9180  -42.5514 H         1 UNK         0.0600 
    156 H156        0.8557  -17.6146  -39.7166 H         1 UNK         0.0600 
    157 H157       -0.8326  -17.8071  -40.1645 H         1 UNK         0.0600 
    158 H158        0.0276  -16.3330  -40.5911 H         1 UNK         0.0600 
    159 H159        2.1250  -16.6432  -41.7704 H         1 UNK         0.3000 
    160 H160        4.0956  -17.3868  -44.6645 H         1 UNK         0.0600 
    161 H161        4.2106  -14.8898  -44.5983 H         1 UNK         0.0600 
    162 H162        2.7286  -14.8384  -43.6443 H         1 UNK         0.0600 
    163 H163        2.7002  -15.4587  -45.2887 H         1 UNK         0.0600 
    164 H164        4.5212  -15.9088  -42.2203 H         1 UNK         0.3000 
    165 H165        6.0827  -18.5838  -40.4365 H         1 UNK         0.0600 
    166 H166        7.9007  -16.9028  -40.3449 H         1 UNK         0.0600 
    167 H167        7.8373  -17.6313  -41.9417 H         1 UNK         0.0600 
    168 H168        7.1913  -16.0136  -41.6927 H         1 UNK         0.0600 
    169 H169        5.6024  -15.8357  -39.7952 H         1 UNK         0.3000 
    170 H170        2.3597  -16.2316  -38.3974 H         1 UNK         0.0600 
    171 H171        3.8778  -17.0640  -36.5933 H         1 UNK         0.0600 
    172 H172        5.0550  -15.8201  -36.9972 H         1 UNK         0.0600 
    173 H173        3.4714  -15.3715  -36.3622 H         1 UNK         0.0600 
    174 H174        4.0487  -13.9890  -38.3801 H         1 UNK         0.3000 
    175 H175        3.1965  -12.1624  -39.6254 H         1 UNK         0.0600 
    176 H176        4.9799  -13.1770  -41.9282 H         1 UNK         0.0600 
    177 H177        4.9690  -11.5293  -41.3041 H         1 UNK         0.0600 
    178 H178        5.5247  -12.8476  -40.2864 H         1 UNK         0.0600 
    179 H179        2.0951  -13.1560  -42.1374 H         1 UNK         0.3000 
    180 H180       -0.0647  -10.5066  -42.4358 H         1 UNK         0.0600 
    181 H181        2.2377  -10.7545  -44.4478 H         1 UNK         0.0600 
    182 H182        1.7191   -9.2650  -43.6665 H         1 UNK         0.0600 
    183 H183        0.6409  -10.0857  -44.7842 H         1 UNK         0.0600 
    184 H184        0.7041  -12.6462  -44.2460 H         1 UNK         0.3000 
    185 H185       -0.0113  -15.0680  -43.5086 H         1 UNK         0.0600 
    186 H186       -1.7912  -15.4696  -41.7911 H         1 UNK         0.0600 
    187 H187       -2.9803  -14.7207  -42.8449 H         1 UNK         0.0600 
    188 H188       -2.1849  -16.2189  -43.3282 H         1 UNK         0.0600 
    189 H189       -2.2850  -14.3385  -45.1217 H         1 UNK         0.3000 
    190 H190        0.1481  -22.7090  -44.3947 H         1 UNK         0.3000 
    191 H191       -2.1676  -22.0218  -42.9361 H         1 UNK         0.0600 
    192 H192       -0.5592  -24.6278  -43.0458 H         1 UNK         0.0600 
    193 H193       -1.7754  -24.2588  -41.8270 H         1 UNK         0.0600 
    194 H194       -0.3253  -23.2797  -41.9312 H         1 UNK         0.0600 
    195 H195       -1.8972  -23.8767  -45.8420 H         1 UNK         0.3000 
    196 H196       -4.4687  -25.2250  -45.7118 H         1 UNK         0.0600 
    197 H197       -2.5600  -24.6678  -48.0455 H         1 UNK         0.0600 
    198 H198       -3.9374  -25.7645  -48.0883 H         1 UNK         0.0600 
    199 H199       -2.5721  -26.1203  -47.0471 H         1 UNK         0.0600 
    200 H200       -3.6803  -21.9606  -46.0502 H         1 UNK         0.3000 
    201 H201       -4.6923  -20.1109  -46.6369 H         1 UNK         0.0600 
    202 H202       -6.5467  -20.9022  -45.2185 H         1 UNK         0.0600 
    203 H203       -7.2834  -21.7628  -46.5616 H         1 UNK         0.0600 
    204 H204       -7.1887  -20.0027  -46.5797 H         1 UNK         0.0600 
    205 H205       -7.2884  -21.2783  -48.5424 H         1 UNK         0.3000 
    206 H206       -6.2881  -20.1704  -50.9841 H         1 UNK         0.0600 
    207 H207       -8.7052  -20.2406  -50.4273 H         1 UNK         0.0600 
    208 H208       -8.4038  -21.1015  -51.9280 H         1 UNK         0.0600 
    209 H209       -8.6841  -22.0052  -50.4447 H         1 UNK         0.0600 
    210 H210       -5.9630  -23.3468  -49.5636 H         1 UNK         0.3000 
    211 H211       -5.0713  -25.2773  -50.1858 H         1 UNK         0.0600 
    212 H212       -3.3172  -23.4607  -51.9350 H         1 UNK         0.0600 
    213 H213       -2.9124  -25.1050  -51.4363 H         1 UNK         0.0600 
    214 H214       -3.0637  -23.8297  -50.2411 H         1 UNK         0.0600 
    215 H215       -4.0605  -24.6782  -53.3798 H         1 UNK         0.3000 
    216 H216       -6.0500  -26.5327  -54.4933 H         1 UNK         0.0600 
    217 H217       -4.5157  -26.7161  -56.3496 H         1 UNK         0.0600 
    218 H218       -3.5541  -26.7850  -54.8875 H         1 UNK         0.0600 
    219 H219       -3.5983  -25.3034  -55.8441 H         1 UNK         0.0600 
    220 H220       -6.3397  -23.3776  -53.8896 H         1 UNK         0.3000 
    221 H221       -7.6348  -21.7421  -54.5463 H         1 UNK         0.0600 
    222 H222       -8.9891  -23.7873  -56.3956 H         1 UNK         0.0600 
    223 H223       -9.4198  -23.4343  -54.7285 H         1 UNK         0.0600 
    224 H224       -9.6348  -22.2062  -55.9609 H         1 UNK         0.0600 
    225 H225       -8.2669  -22.4864  -57.8200 H         1 UNK         0.3000 
    226 H226       -6.8991  -20.2141  -58.8139 H         1 UNK         0.0600 
    227 H227       -8.9427  -21.1578  -59.8572 H         1 UNK         0.0600 
    228 H228       -7.6411  -21.0980  -61.0341 H         1 UNK         0.0600 
    229 H229       -8.0746  -22.6320  -60.2893 H         1 UNK         0.0600 
    230 H230       -5.7388  -23.4691  -58.3166 H         1 UNK         0.3000 
    231 H231       -3.3972  -23.1500  -60.0972 H         1 UNK         0.0600 
    232 H232       -4.5444  -25.3300  -60.0473 H         1 UNK         0.0600 
    233 H233       -4.3274  -25.4458  -58.3053 H         1 UNK         0.0600 
    234 H234       -2.9314  -25.4964  -59.3748 H         1 UNK         0.0600 
    235 H235       -4.1455  -21.9209  -57.0919 H         1 UNK         0.3000 
    236 H236       -1.3223  -21.9708  -56.1466 H         1 UNK         0.0600 
    237 H237       -2.2452  -22.0665  -53.8117 H         1 UNK         0.0600 
    238 H238       -3.8752  -22.2192  -54.4551 H         1 UNK         0.0600 
    239 H239       -2.6867  -23.4977  -54.7124 H         1 UNK         0.0600 
    240 H240       -1.4123  -20.2003  -54.2127 H         1 UNK         0.3000 
    241 H241       -1.4390  -18.1132  -53.5803 H         1 UNK         0.0600 
    242 H242       -0.0101  -16.9814  -56.9787 H         1 UNK         0.3800 
    243 H243       -0.2517  -18.6194  -56.4290 H         1 UNK         0.3800 
    244 H244       -3.5151  -16.7479  -53.7842 H         1 UNK         0.0800 
    245 H245       -4.1182  -17.8148  -55.0181 H         1 UNK         0.0800 
    246 H246       -4.5006  -18.3715  -50.5088 H         1 UNK         0.0800 
    247 H247       -4.5767  -16.9118  -51.4578 H         1 UNK         0.0800 
@<TRIPOS>BOND
     1    1    2 1    
     2    1  127 1    
     3    1  128 1    
     4    1  129 1    
     5    2    3 2    
     6    2    4 am   BACKBONE|DICT|INTERRES
     7    4    5 1    
     8    4  130 1    
     9    5    6 1    
    10    5   65 1    
    11    5  131 1    
    12    6    7 1    
    13    6  132 1    
    14    6  133 1    
    15    7    8 1    
    16    8    9 1    
    17    8  134 1    
    18    8  135 1    
    19    9   10 ar   
    20    9   14 ar   
    21   10   11 ar   
    22   10  136 1    
    23   11   12 ar   
    24   11  126 1    
    25   12   13 ar   
    26   12  137 1    
    27   13   14 ar   
    28   13   15 1    
    29   14  138 1    
    30   15   16 1    
    31   15  139 1    
    32   15  140 1    
    33   16   17 1    
    34   17   18 1    
    35   17  141 1    
    36   17  142 1    
    37   18   19 1    
    38   18   67 1    
    39   18  143 1    
    40   19   20 am   BACKBONE|DICT|INTERRES
    41   19  144 1    
    42   20   21 2    
    43   20   22 1    
    44   22   23 1    
    45   22   24 1    
    46   22  145 1    
    47   23  146 1    
    48   23  147 1    
    49   23  148 1    
    50   24   25 am   BACKBONE|DICT|INTERRES
    51   24  149 1    
    52   25   26 2    
    53   25   27 1    
    54   27   28 1    
    55   27   29 1    
    56   27  150 1    
    57   28  151 1    
    58   28  152 1    
    59   28  153 1    
    60   29   30 am   BACKBONE|DICT|INTERRES
    61   29  154 1    
    62   30   31 2    
    63   30   32 1    
    64   32   33 1    
    65   32   34 1    
    66   32  155 1    
    67   33  156 1    
    68   33  157 1    
    69   33  158 1    
    70   34   35 am   BACKBONE|DICT|INTERRES
    71   34  159 1    
    72   35   36 2    
    73   35   37 1    
    74   37   38 1    
    75   37   39 1    
    76   37  160 1    
    77   38  161 1    
    78   38  162 1    
    79   38  163 1    
    80   39   40 am   BACKBONE|DICT|INTERRES
    81   39  164 1    
    82   40   41 2    
    83   40   42 1    
    84   42   43 1    
    85   42   44 1    
    86   42  165 1    
    87   43  166 1    
    88   43  167 1    
    89   43  168 1    
    90   44   45 am   BACKBONE|DICT|INTERRES
    91   44  169 1    
    92   45   46 2    
    93   45   47 1    
    94   47   48 1    
    95   47   49 1    
    96   47  170 1    
    97   48  171 1    
    98   48  172 1    
    99   48  173 1    
   100   49   50 am   BACKBONE|DICT|INTERRES
   101   49  174 1    
   102   50   51 2    
   103   50   52 1    
   104   52   53 1    
   105   52   54 1    
   106   52  175 1    
   107   53  176 1    
   108   53  177 1    
   109   53  178 1    
   110   54   55 am   BACKBONE|DICT|INTERRES
   111   54  179 1    
   112   55   56 2    
   113   55   57 1    
   114   57   58 1    
   115   57   59 1    
   116   57  180 1    
   117   58  181 1    
   118   58  182 1    
   119   58  183 1    
   120   59   60 am   BACKBONE|DICT|INTERRES
   121   59  184 1    
   122   60   61 2    
   123   60   62 1    
   124   62   63 1    
   125   62   64 1    
   126   62  185 1    
   127   63  186 1    
   128   63  187 1    
   129   63  188 1    
   130   64   65 am   BACKBONE|DICT|INTERRES
   131   64  189 1    
   132   65   66 2    
   133   67   68 2    
   134   67   69 am   BACKBONE|DICT|INTERRES
   135   69   70 1    
   136   69  190 1    
   137   70   71 1    
   138   70   72 1    
   139   70  191 1    
   140   71  192 1    
   141   71  193 1    
   142   71  194 1    
   143   72   73 2    
   144   72   74 am   BACKBONE|DICT|INTERRES
   145   74   75 1    
   146   74  195 1    
   147   75   76 1    
   148   75   77 1    
   149   75  196 1    
   150   76  197 1    
   151   76  198 1    
   152   76  199 1    
   153   77   78 2    
   154   77   79 am   BACKBONE|DICT|INTERRES
   155   79   80 1    
   156   79  200 1    
   157   80   81 1    
   158   80   82 1    
   159   80  201 1    
   160   81  202 1    
   161   81  203 1    
   162   81  204 1    
   163   82   83 2    
   164   82   84 am   BACKBONE|DICT|INTERRES
   165   84   85 1    
   166   84  205 1    
   167   85   86 1    
   168   85   87 1    
   169   85  206 1    
   170   86  207 1    
   171   86  208 1    
   172   86  209 1    
   173   87   88 2    
   174   87   89 am   BACKBONE|DICT|INTERRES
   175   89   90 1    
   176   89  210 1    
   177   90   91 1    
   178   90   92 1    
   179   90  211 1    
   180   91  212 1    
   181   91  213 1    
   182   91  214 1    
   183   92   93 2    
   184   92   94 am   BACKBONE|DICT|INTERRES
   185   94   95 1    
   186   94  215 1    
   187   95   96 1    
   188   95   97 1    
   189   95  216 1    
   190   96  217 1    
   191   96  218 1    
   192   96  219 1    
   193   97   98 2    
   194   97   99 am   BACKBONE|DICT|INTERRES
   195   99  100 1    
   196   99  220 1    
   197  100  101 1    
   198  100  102 1    
   199  100  221 1    
   200  101  222 1    
   201  101  223 1    
   202  101  224 1    
   203  102  103 2    
   204  102  104 am   BACKBONE|DICT|INTERRES
   205  104  105 1    
   206  104  225 1    
   207  105  106 1    
   208  105  107 1    
   209  105  226 1    
   210  106  227 1    
   211  106  228 1    
   212  106  229 1    
   213  107  108 2    
   214  107  109 am   BACKBONE|DICT|INTERRES
   215  109  110 1    
   216  109  230 1    
   217  110  111 1    
   218  110  112 1    
   219  110  231 1    
   220  111  232 1    
   221  111  233 1    
   222  111  234 1    
   223  112  113 2    
   224  112  114 am   BACKBONE|DICT|INTERRES
   225  114  115 1    
   226  114  235 1    
   227  115  116 1    
   228  115  117 1    
   229  115  236 1    
   230  116  237 1    
   231  116  238 1    
   232  116  239 1    
   233  117  118 2    
   234  117  119 am   BACKBONE|DICT|INTERRES
   235  119  120 1    
   236  119  240 1    
   237  120  121 1    
   238  120  124 1    
   239  120  241 1    
   240  121  122 am   BACKBONE|DICT|INTERRES
   241  121  123 2    
   242  122  242 1    
   243  122  243 1    
   244  124  125 1    
   245  124  244 1    
   246  124  245 1    
   247  125  126 1    
   248  126  246 1    
   249  126  247 1    
@<TRIPOS>SUBSTRUCTURE
     1 UNK         1 GROUP             0       ****    0 ROOT    
