@<TRIPOS>MOLECULE
3R540
247   249    1
SMALL
USER_CHARGES


@<TRIPOS>ATOM
      1 CA          1.0667  -11.8523  -48.7792 C.3       0 UNK        -0.1800 
      2 C           2.3399  -11.6187  -49.5947 C.2       0 UNK         0.5000 
      3 O           2.2889  -10.8463  -50.5494 O.2       0 UNK        -0.5000 
      4 N           3.4938  -12.2406  -49.3017 N.am      1 UNK        -0.5000 
      5 CA          3.8185  -13.1696  -48.2081 C.3       1 UNK         0.1400 
      6 C6          3.0777  -14.5359  -48.2750 C.3       23 UNK        -0.0398 
      7 S7          3.4678  -15.4743  -49.7928 S.3       23 UNK        -0.2404 
      8 C8          1.9750  -15.2384  -50.8094 C.3       23 UNK        -0.0205 
      9 C9          0.8663  -16.2220  -50.4615 C.ar      23 UNK        -0.0193 
     10 C10         0.7432  -17.4222  -51.1688 C.ar      23 UNK        -0.1150 
     11 C11        -0.3139  -18.3002  -50.9047 C.ar      23 UNK        -0.0193 
     12 C12        -1.2331  -17.9836  -49.9009 C.ar      23 UNK        -0.1150 
     13 C13        -1.1041  -16.8020  -49.1678 C.ar      23 UNK        -0.0193 
     14 C14        -0.0632  -15.9187  -49.4631 C.ar      23 UNK        -0.1150 
     15 C15        -2.0871  -16.4712  -48.0579 C.3       23 UNK        -0.0205 
     16 S16        -1.6283  -17.3014  -46.5047 S.3       23 UNK        -0.2404 
     17 C17        -2.5212  -18.8890  -46.6303 C.3       23 UNK        -0.0398 
     18 CA         -1.5983  -20.1217  -46.7996 C.3       11 UNK         0.1400 
     19 N          -0.5460  -20.2082  -45.7809 N.am      11 UNK        -0.5000 
     20 C           0.4554  -21.1015  -45.7918 C.2       10 UNK         0.5000 
     21 O           0.6418  -21.9080  -46.7010 O.2       10 UNK        -0.5000 
     22 CA          1.3661  -21.1441  -44.5537 C.3       10 UNK         0.1400 
     23 CB          2.5664  -20.2065  -44.7250 C.3       10 UNK        -0.1800 
     24 N           0.6300  -20.8135  -43.3327 N.am      10 UNK        -0.5000 
     25 C          -0.2319  -21.6591  -42.7473 C.2       9 UNK         0.5000 
     26 O          -0.4496  -22.7987  -43.1596 O.2       9 UNK        -0.5000 
     27 CA         -1.0214  -21.1346  -41.5352 C.3       9 UNK         0.1400 
     28 CB         -0.2253  -21.3491  -40.2408 C.3       9 UNK        -0.1800 
     29 N          -1.3947  -19.7248  -41.6766 N.am      9 UNK        -0.5000 
     30 C          -2.2793  -19.2838  -42.5843 C.2       8 UNK         0.5000 
     31 O          -2.8682  -20.0407  -43.3578 O.2       8 UNK        -0.5000 
     32 CA         -2.5147  -17.7651  -42.7146 C.3       8 UNK         0.1400 
     33 CB         -4.0103  -17.4055  -42.8238 C.3       8 UNK        -0.1800 
     34 N          -1.8221  -16.9483  -41.7157 N.am      8 UNK        -0.5000 
     35 C          -2.1011  -16.7877  -40.4150 C.2       7 UNK         0.5000 
     36 O          -3.0631  -17.3010  -39.8422 O.2       7 UNK        -0.5000 
     37 CA         -1.0944  -15.9117  -39.6335 C.3       7 UNK         0.1400 
     38 CB         -1.2060  -16.0797  -38.1034 C.3       7 UNK        -0.1800 
     39 N           0.2930  -16.1086  -40.0840 N.am      7 UNK        -0.5000 
     40 C           0.9741  -17.2649  -40.0711 C.2       6 UNK         0.5000 
     41 O           0.5152  -18.3183  -39.6302 O.2       6 UNK        -0.5000 
     42 CA          2.3723  -17.2398  -40.7201 C.3       6 UNK         0.1400 
     43 CB          3.0219  -18.6373  -40.8008 C.3       6 UNK        -0.1800 
     44 N           2.3742  -16.6097  -42.0449 N.am      6 UNK        -0.5000 
     45 C           1.6543  -16.9720  -43.1204 C.2       5 UNK         0.5000 
     46 O           0.7981  -17.8582  -43.1079 O.2       5 UNK        -0.5000 
     47 CA          1.9358  -16.2260  -44.4421 C.3       5 UNK         0.1400 
     48 CB          0.8906  -15.1211  -44.6566 C.3       5 UNK        -0.1800 
     49 N           3.2752  -15.6375  -44.5178 N.am      5 UNK        -0.5000 
     50 C           4.4334  -16.3123  -44.4592 C.2       4 UNK         0.5000 
     51 O           4.5092  -17.5402  -44.4517 O.2       4 UNK        -0.5000 
     52 CA          5.7294  -15.4835  -44.3530 C.3       4 UNK         0.1400 
     53 CB          6.3966  -15.3494  -45.7301 C.3       4 UNK        -0.1800 
     54 N           5.5554  -14.1466  -43.7774 N.am      4 UNK        -0.5000 
     55 C           5.0714  -13.8475  -42.5642 C.2       3 UNK         0.5000 
     56 O           4.6779  -14.6956  -41.7623 O.2       3 UNK        -0.5000 
     57 CA          4.9600  -12.3521  -42.1938 C.3       3 UNK         0.1400 
     58 CB          6.2655  -11.8333  -41.5613 C.3       3 UNK        -0.1800 
     59 N           4.5025  -11.4911  -43.2965 N.am      3 UNK        -0.5000 
     60 C           5.1347  -11.1804  -44.4365 C.2       2 UNK         0.5000 
     61 O           6.2897  -11.5188  -44.7049 O.2       2 UNK        -0.5000 
     62 CA          4.2967  -10.4524  -45.5041 C.3       2 UNK         0.1400 
     63 CB          4.8853   -9.0695  -45.8220 C.3       2 UNK        -0.1800 
     64 N           4.2171  -11.2408  -46.7370 N.am      2 UNK        -0.5000 
     65 C           3.7324  -12.4889  -46.8240 C.2       1 UNK         0.5000 
     66 O           3.2220  -13.0841  -45.8742 O.2       1 UNK        -0.5000 
     67 C          -2.4435  -21.4116  -46.8234 C.2       11 UNK         0.5000 
     68 O          -2.7025  -21.9495  -47.8983 O.2       11 UNK        -0.5000 
     69 N          -2.8188  -21.8998  -45.6311 N.am      12 UNK        -0.5000 
     70 CA         -3.5344  -23.1585  -45.4313 C.3       12 UNK         0.1400 
     71 CB         -3.9871  -23.2658  -43.9676 C.3       12 UNK        -0.1800 
     72 C          -2.7022  -24.3862  -45.8430 C.2       12 UNK         0.5000 
     73 O          -3.2340  -25.2768  -46.5053 O.2       12 UNK        -0.5000 
     74 N          -1.4079  -24.3989  -45.4889 N.am      13 UNK        -0.5000 
     75 CA         -0.4533  -25.4450  -45.8731 C.3       13 UNK         0.1400 
     76 CB          0.8749  -25.2303  -45.1331 C.3       13 UNK        -0.1800 
     77 C          -0.2206  -25.5218  -47.3953 C.2       13 UNK         0.5000 
     78 O          -0.0830  -26.6191  -47.9364 O.2       13 UNK        -0.5000 
     79 N          -0.2264  -24.3598  -48.0612 N.am      14 UNK        -0.5000 
     80 CA         -0.1569  -24.2133  -49.5163 C.3       14 UNK         0.1400 
     81 CB          0.3633  -22.8029  -49.8414 C.3       14 UNK        -0.1800 
     82 C          -1.5030  -24.4685  -50.2288 C.2       14 UNK         0.5000 
     83 O          -1.5570  -24.3562  -51.4544 O.2       14 UNK        -0.5000 
     84 N          -2.5688  -24.7607  -49.4677 N.am      15 UNK        -0.5000 
     85 CA         -3.9716  -24.9591  -49.8558 C.3       15 UNK         0.1400 
     86 CB         -4.1290  -26.1006  -50.8778 C.3       15 UNK        -0.1800 
     87 C          -4.6803  -23.6771  -50.3312 C.2       15 UNK         0.5000 
     88 O          -5.8274  -23.4483  -49.9426 O.2       15 UNK        -0.5000 
     89 N          -3.9925  -22.8675  -51.1485 N.am      16 UNK        -0.5000 
     90 CA         -4.4256  -21.5873  -51.7080 C.3       16 UNK         0.1400 
     91 CB         -4.4295  -20.5037  -50.6073 C.3       16 UNK        -0.1800 
     92 C          -5.7634  -21.7381  -52.4576 C.2       16 UNK         0.5000 
     93 O          -5.8222  -22.4999  -53.4252 O.2       16 UNK        -0.5000 
     94 N          -6.8165  -21.0580  -51.9850 N.am      17 UNK        -0.5000 
     95 CA         -8.1652  -21.0614  -52.5535 C.3       17 UNK         0.1400 
     96 CB         -9.0566  -20.1195  -51.7308 C.3       17 UNK        -0.1800 
     97 C          -8.8128  -22.4561  -52.6632 C.2       17 UNK         0.5000 
     98 O          -9.6218  -22.6651  -53.5669 O.2       17 UNK        -0.5000 
     99 N          -8.4171  -23.3997  -51.7945 N.am      18 UNK        -0.5000 
    100 CA        -8.8611  -24.7967  -51.8396 C.3       18 UNK         0.1400 
    101 CB        -8.4772  -25.4979  -50.5280 C.3       18 UNK        -0.1800 
    102 C         -8.3111  -25.5746  -53.0540 C.2       18 UNK         0.5000 
    103 O         -8.9265  -26.5582  -53.4663 O.2       18 UNK        -0.5000 
    104 N         -7.1843  -25.1134  -53.6131 N.am      19 UNK        -0.5000 
    105 CA        -6.5633  -25.6363  -54.8316 C.3       19 UNK         0.1400 
    106 CB        -5.0693  -25.8680  -54.5482 C.3       19 UNK        -0.1800 
    107 C         -6.7501  -24.6808  -56.0290 C.2       19 UNK         0.5000 
    108 O         -6.2210  -24.9598  -57.1058 O.2       19 UNK        -0.5000 
    109 N         -7.4698  -23.5659  -55.8189 N.am      20 UNK        -0.5000 
    110 CA        -7.6491  -22.4276  -56.7291 C.3       20 UNK         0.1400 
    111 CB        -8.4750  -22.8370  -57.9663 C.3       20 UNK        -0.1800 
    112 C         -6.3192  -21.7254  -57.0915 C.2       20 UNK         0.5000 
    113 O         -6.1788  -21.1955  -58.1956 O.2       20 UNK        -0.5000 
    114 N         -5.3669  -21.7394  -56.1524 N.am      21 UNK        -0.5000 
    115 CA        -4.0376  -21.1501  -56.2693 C.3       21 UNK         0.1400 
    116 CB        -3.0181  -22.1721  -55.7375 C.3       21 UNK        -0.1800 
    117 C         -3.9542  -19.8471  -55.4580 C.2       21 UNK         0.5000 
    118 O         -4.7849  -19.6073  -54.5794 O.2       21 UNK        -0.5000 
    119 N         -2.9227  -19.0443  -55.7442 N.am      22 UNK        -0.5000 
    120 CA        -2.5443  -17.8294  -54.9949 C.3       22 UNK         0.1400 
    121 C         -3.5682  -16.6529  -55.0685 C.2       22 UNK         0.5000 
    122 N         -4.5043  -16.6489  -56.0096 N.am      22 UNK        -0.7600 
    123 O         -3.4948  -15.7074  -54.2881 O.2       22 UNK        -0.5000 
    124 C124       -2.0903  -18.1422  -53.5388 C.3       23 UNK        -0.0398 
    125 S125       -0.6703  -19.2918  -53.4921 S.3       23 UNK        -0.2404 
    126 C126       -0.4711  -19.5871  -51.7042 C.3       23 UNK        -0.0205 
    127 H127        1.2369  -12.2584  -47.7862 H         1 UNK         0.0600 
    128 H128        0.4041  -12.5319  -49.3141 H         1 UNK         0.0600 
    129 H129        0.5367  -10.9086  -48.6499 H         1 UNK         0.0600 
    130 H130        4.2784  -12.0435  -49.9069 H         1 UNK         0.3000 
    131 H131        4.8800  -13.3890  -48.3327 H         1 UNK         0.0600 
    132 H132        3.3810  -15.1700  -47.4404 H         1 UNK         0.0800 
    133 H133        2.0038  -14.4112  -48.1671 H         1 UNK         0.0800 
    134 H134        2.2525  -15.3599  -51.8575 H         1 UNK         0.0800 
    135 H135        1.6137  -14.2149  -50.7179 H         1 UNK         0.0800 
    136 H136        1.4548  -17.6631  -51.9462 H         1 UNK         0.1150 
    137 H137       -2.0485  -18.6567  -49.6838 H         1 UNK         0.1150 
    138 H138        0.0142  -14.9920  -48.9151 H         1 UNK         0.1150 
    139 H139       -3.1033  -16.7327  -48.3553 H         1 UNK         0.0800 
    140 H140       -2.0978  -15.3946  -47.8807 H         1 UNK         0.0800 
    141 H141       -3.2312  -18.8427  -47.4573 H         1 UNK         0.0800 
    142 H142       -3.1313  -18.9842  -45.7318 H         1 UNK         0.0800 
    143 H143       -1.1004  -20.0392  -47.7679 H         1 UNK         0.0600 
    144 H144       -0.6214  -19.5763  -44.9980 H         1 UNK         0.3000 
    145 H145        1.7552  -22.1589  -44.4528 H         1 UNK         0.0600 
    146 H146        3.2153  -20.5533  -45.5298 H         1 UNK         0.0600 
    147 H147        3.1695  -20.1549  -43.8184 H         1 UNK         0.0600 
    148 H148        2.2531  -19.1967  -44.9805 H         1 UNK         0.0600 
    149 H149        0.7152  -19.8627  -42.9860 H         1 UNK         0.3000 
    150 H150       -1.9421  -21.7173  -41.4607 H         1 UNK         0.0600 
    151 H151        0.7484  -20.8606  -40.2797 H         1 UNK         0.0600 
    152 H152       -0.0484  -22.4111  -40.0667 H         1 UNK         0.0600 
    153 H153       -0.7628  -20.9614  -39.3752 H         1 UNK         0.0600 
    154 H154       -0.9112  -19.0607  -41.0833 H         1 UNK         0.3000 
    155 H155       -2.0524  -17.4878  -43.6605 H         1 UNK         0.0600 
    156 H156       -4.5736  -17.7346  -41.9506 H         1 UNK         0.0600 
    157 H157       -4.4619  -17.8797  -43.6959 H         1 UNK         0.0600 
    158 H158       -4.1514  -16.3303  -42.9327 H         1 UNK         0.0600 
    159 H159       -0.9647  -16.5305  -42.0487 H         1 UNK         0.3000 
    160 H160       -1.3498  -14.8774  -39.8682 H         1 UNK         0.0600 
    161 H161       -1.0289  -17.1098  -37.7930 H         1 UNK         0.0600 
    162 H162       -2.1997  -15.8001  -37.7516 H         1 UNK         0.0600 
    163 H163       -0.4887  -15.4447  -37.5838 H         1 UNK         0.0600 
    164 H164        0.7465  -15.2980  -40.4824 H         1 UNK         0.3000 
    165 H165        2.9999  -16.6192  -40.0791 H         1 UNK         0.0600 
    166 H166        3.1211  -19.0816  -39.8097 H         1 UNK         0.0600 
    167 H167        2.4342  -19.3240  -41.4102 H         1 UNK         0.0600 
    168 H168        4.0208  -18.5810  -41.2335 H         1 UNK         0.0600 
    169 H169        3.0623  -15.8726  -42.1610 H         1 UNK         0.3000 
    170 H170        1.8378  -16.9451  -45.2567 H         1 UNK         0.0600 
    171 H171        0.9710  -14.6935  -45.6561 H         1 UNK         0.0600 
    172 H172        1.0063  -14.3118  -43.9348 H         1 UNK         0.0600 
    173 H173       -0.1231  -15.5101  -44.5546 H         1 UNK         0.0600 
    174 H174        3.3156  -14.6285  -44.6220 H         1 UNK         0.3000 
    175 H175        6.4077  -16.0320  -43.6965 H         1 UNK         0.0600 
    176 H176        6.5755  -16.3287  -46.1761 H         1 UNK         0.0600 
    177 H177        5.7763  -14.7820  -46.4228 H         1 UNK         0.0600 
    178 H178        7.3609  -14.8465  -45.6543 H         1 UNK         0.0600 
    179 H179        5.8629  -13.3641  -44.3463 H         1 UNK         0.3000 
    180 H180        4.1830  -12.2824  -41.4308 H         1 UNK         0.0600 
    181 H181        7.1136  -11.9156  -42.2413 H         1 UNK         0.0600 
    182 H182        6.5140  -12.4045  -40.6660 H         1 UNK         0.0600 
    183 H183        6.1722  -10.7886  -41.2647 H         1 UNK         0.0600 
    184 H184        3.5395  -11.1954  -43.2137 H         1 UNK         0.3000 
    185 H185        3.2801  -10.3144  -45.1302 H         1 UNK         0.0600 
    186 H186        4.9442   -8.4551  -44.9226 H         1 UNK         0.0600 
    187 H187        5.8923   -9.1449  -46.2346 H         1 UNK         0.0600 
    188 H188        4.2667   -8.5329  -46.5417 H         1 UNK         0.0600 
    189 H189        4.6185  -10.8224  -47.5633 H         1 UNK         0.3000 
    190 H190       -2.6130  -21.3608  -44.7951 H         1 UNK         0.3000 
    191 H191       -4.4264  -23.1366  -46.0612 H         1 UNK         0.0600 
    192 H192       -4.6319  -22.4308  -43.6928 H         1 UNK         0.0600 
    193 H193       -4.5525  -24.1833  -43.8000 H         1 UNK         0.0600 
    194 H194       -3.1400  -23.2718  -43.2814 H         1 UNK         0.0600 
    195 H195       -1.0567  -23.6596  -44.8888 H         1 UNK         0.3000 
    196 H196       -0.8676  -26.4033  -45.5532 H         1 UNK         0.0600 
    197 H197        1.5774  -26.0350  -45.3531 H         1 UNK         0.0600 
    198 H198        0.7287  -25.2124  -44.0530 H         1 UNK         0.0600 
    199 H199        1.3497  -24.2939  -45.4246 H         1 UNK         0.0600 
    200 H200       -0.2757  -23.4964  -47.5292 H         1 UNK         0.3000 
    201 H201        0.5592  -24.9383  -49.9079 H         1 UNK         0.0600 
    202 H202        0.4903  -22.6675  -50.9161 H         1 UNK         0.0600 
    203 H203        1.3330  -22.6228  -49.3770 H         1 UNK         0.0600 
    204 H204       -0.3237  -22.0318  -49.4903 H         1 UNK         0.0600 
    205 H205       -2.4184  -24.7814  -48.4667 H         1 UNK         0.3000 
    206 H206       -4.4835  -25.2706  -48.9443 H         1 UNK         0.0600 
    207 H207       -3.6979  -27.0279  -50.5010 H         1 UNK         0.0600 
    208 H208       -5.1810  -26.2932  -51.0897 H         1 UNK         0.0600 
    209 H209       -3.6470  -25.8684  -51.8270 H         1 UNK         0.0600 
    210 H210       -3.0750  -23.1945  -51.4368 H         1 UNK         0.3000 
    211 H211       -3.6823  -21.3024  -52.4538 H         1 UNK         0.0600 
    212 H212       -3.4518  -20.4390  -50.1324 H         1 UNK         0.0600 
    213 H213       -4.6537  -19.5198  -51.0212 H         1 UNK         0.0600 
    214 H214       -5.1535  -20.7156  -49.8196 H         1 UNK         0.0600 
    215 H215       -6.6789  -20.4843  -51.1663 H         1 UNK         0.3000 
    216 H216       -8.0877  -20.6609  -53.5664 H         1 UNK         0.0600 
    217 H217       -9.1399  -20.4490  -50.6944 H         1 UNK         0.0600 
    218 H218      -10.0654  -20.0752  -52.1437 H         1 UNK         0.0600 
    219 H219       -8.6630  -19.1029  -51.7307 H         1 UNK         0.0600 
    220 H220       -7.7143  -23.1677  -51.1015 H         1 UNK         0.3000 
    221 H221       -9.9505  -24.8006  -51.9160 H         1 UNK         0.0600 
    222 H222       -7.3966  -25.5601  -50.4045 H         1 UNK         0.0600 
    223 H223       -8.8842  -24.9723  -49.6641 H         1 UNK         0.0600 
    224 H224       -8.8670  -26.5162  -50.5025 H         1 UNK         0.0600 
    225 H225       -6.7525  -24.2779  -53.2312 H         1 UNK         0.3000 
    226 H226       -7.0093  -26.5921  -55.1129 H         1 UNK         0.0600 
    227 H227       -4.9338  -26.6045  -53.7568 H         1 UNK         0.0600 
    228 H228       -4.5516  -26.2474  -55.4299 H         1 UNK         0.0600 
    229 H229       -4.5691  -24.9474  -54.2434 H         1 UNK         0.0600 
    230 H230       -7.8837  -23.4517  -54.9041 H         1 UNK         0.3000 
    231 H231       -8.2334  -21.6914  -56.1755 H         1 UNK         0.0600 
    232 H232       -7.9266  -23.5233  -58.6119 H         1 UNK         0.0600 
    233 H233       -8.7386  -21.9653  -58.5663 H         1 UNK         0.0600 
    234 H234       -9.4066  -23.3218  -57.6747 H         1 UNK         0.0600 
    235 H235       -5.5920  -22.1204  -55.2365 H         1 UNK         0.3000 
    236 H236       -3.8055  -20.9292  -57.3131 H         1 UNK         0.0600 
    237 H237       -3.1997  -22.4162  -54.6899 H         1 UNK         0.0600 
    238 H238       -3.0614  -23.1012  -56.3062 H         1 UNK         0.0600 
    239 H239       -1.9987  -21.7919  -55.8134 H         1 UNK         0.0600 
    240 H240       -2.2898  -19.3086  -56.4856 H         1 UNK         0.3000 
    241 H241       -1.6697  -17.4392  -55.5165 H         1 UNK         0.0600 
    242 H242       -5.1550  -15.8809  -56.0600 H         1 UNK         0.3800 
    243 H243       -4.5785  -17.4139  -56.6608 H         1 UNK         0.3800 
    244 H244       -2.9115  -18.5579  -52.9536 H         1 UNK         0.0800 
    245 H245       -1.7864  -17.2253  -53.0313 H         1 UNK         0.0800 
    246 H246       -1.3216  -20.1693  -51.3471 H         1 UNK         0.0800 
    247 H247        0.4121  -20.2072  -51.5479 H         1 UNK         0.0800 
@<TRIPOS>BOND
     1    1    2 1    
     2    1  127 1    
     3    1  128 1    
     4    1  129 1    
     5    2    3 2    
     6    2    4 am   BACKBONE|DICT|INTERRES
     7    4    5 1    
     8    4  130 1    
     9    5    6 1    
    10    5   65 1    
    11    5  131 1    
    12    6    7 1    
    13    6  132 1    
    14    6  133 1    
    15    7    8 1    
    16    8    9 1    
    17    8  134 1    
    18    8  135 1    
    19    9   10 ar   
    20    9   14 ar   
    21   10   11 ar   
    22   10  136 1    
    23   11   12 ar   
    24   11  126 1    
    25   12   13 ar   
    26   12  137 1    
    27   13   14 ar   
    28   13   15 1    
    29   14  138 1    
    30   15   16 1    
    31   15  139 1    
    32   15  140 1    
    33   16   17 1    
    34   17   18 1    
    35   17  141 1    
    36   17  142 1    
    37   18   19 1    
    38   18   67 1    
    39   18  143 1    
    40   19   20 am   BACKBONE|DICT|INTERRES
    41   19  144 1    
    42   20   21 2    
    43   20   22 1    
    44   22   23 1    
    45   22   24 1    
    46   22  145 1    
    47   23  146 1    
    48   23  147 1    
    49   23  148 1    
    50   24   25 am   BACKBONE|DICT|INTERRES
    51   24  149 1    
    52   25   26 2    
    53   25   27 1    
    54   27   28 1    
    55   27   29 1    
    56   27  150 1    
    57   28  151 1    
    58   28  152 1    
    59   28  153 1    
    60   29   30 am   BACKBONE|DICT|INTERRES
    61   29  154 1    
    62   30   31 2    
    63   30   32 1    
    64   32   33 1    
    65   32   34 1    
    66   32  155 1    
    67   33  156 1    
    68   33  157 1    
    69   33  158 1    
    70   34   35 am   BACKBONE|DICT|INTERRES
    71   34  159 1    
    72   35   36 2    
    73   35   37 1    
    74   37   38 1    
    75   37   39 1    
    76   37  160 1    
    77   38  161 1    
    78   38  162 1    
    79   38  163 1    
    80   39   40 am   BACKBONE|DICT|INTERRES
    81   39  164 1    
    82   40   41 2    
    83   40   42 1    
    84   42   43 1    
    85   42   44 1    
    86   42  165 1    
    87   43  166 1    
    88   43  167 1    
    89   43  168 1    
    90   44   45 am   BACKBONE|DICT|INTERRES
    91   44  169 1    
    92   45   46 2    
    93   45   47 1    
    94   47   48 1    
    95   47   49 1    
    96   47  170 1    
    97   48  171 1    
    98   48  172 1    
    99   48  173 1    
   100   49   50 am   BACKBONE|DICT|INTERRES
   101   49  174 1    
   102   50   51 2    
   103   50   52 1    
   104   52   53 1    
   105   52   54 1    
   106   52  175 1    
   107   53  176 1    
   108   53  177 1    
   109   53  178 1    
   110   54   55 am   BACKBONE|DICT|INTERRES
   111   54  179 1    
   112   55   56 2    
   113   55   57 1    
   114   57   58 1    
   115   57   59 1    
   116   57  180 1    
   117   58  181 1    
   118   58  182 1    
   119   58  183 1    
   120   59   60 am   BACKBONE|DICT|INTERRES
   121   59  184 1    
   122   60   61 2    
   123   60   62 1    
   124   62   63 1    
   125   62   64 1    
   126   62  185 1    
   127   63  186 1    
   128   63  187 1    
   129   63  188 1    
   130   64   65 am   BACKBONE|DICT|INTERRES
   131   64  189 1    
   132   65   66 2    
   133   67   68 2    
   134   67   69 am   BACKBONE|DICT|INTERRES
   135   69   70 1    
   136   69  190 1    
   137   70   71 1    
   138   70   72 1    
   139   70  191 1    
   140   71  192 1    
   141   71  193 1    
   142   71  194 1    
   143   72   73 2    
   144   72   74 am   BACKBONE|DICT|INTERRES
   145   74   75 1    
   146   74  195 1    
   147   75   76 1    
   148   75   77 1    
   149   75  196 1    
   150   76  197 1    
   151   76  198 1    
   152   76  199 1    
   153   77   78 2    
   154   77   79 am   BACKBONE|DICT|INTERRES
   155   79   80 1    
   156   79  200 1    
   157   80   81 1    
   158   80   82 1    
   159   80  201 1    
   160   81  202 1    
   161   81  203 1    
   162   81  204 1    
   163   82   83 2    
   164   82   84 am   BACKBONE|DICT|INTERRES
   165   84   85 1    
   166   84  205 1    
   167   85   86 1    
   168   85   87 1    
   169   85  206 1    
   170   86  207 1    
   171   86  208 1    
   172   86  209 1    
   173   87   88 2    
   174   87   89 am   BACKBONE|DICT|INTERRES
   175   89   90 1    
   176   89  210 1    
   177   90   91 1    
   178   90   92 1    
   179   90  211 1    
   180   91  212 1    
   181   91  213 1    
   182   91  214 1    
   183   92   93 2    
   184   92   94 am   BACKBONE|DICT|INTERRES
   185   94   95 1    
   186   94  215 1    
   187   95   96 1    
   188   95   97 1    
   189   95  216 1    
   190   96  217 1    
   191   96  218 1    
   192   96  219 1    
   193   97   98 2    
   194   97   99 am   BACKBONE|DICT|INTERRES
   195   99  100 1    
   196   99  220 1    
   197  100  101 1    
   198  100  102 1    
   199  100  221 1    
   200  101  222 1    
   201  101  223 1    
   202  101  224 1    
   203  102  103 2    
   204  102  104 am   BACKBONE|DICT|INTERRES
   205  104  105 1    
   206  104  225 1    
   207  105  106 1    
   208  105  107 1    
   209  105  226 1    
   210  106  227 1    
   211  106  228 1    
   212  106  229 1    
   213  107  108 2    
   214  107  109 am   BACKBONE|DICT|INTERRES
   215  109  110 1    
   216  109  230 1    
   217  110  111 1    
   218  110  112 1    
   219  110  231 1    
   220  111  232 1    
   221  111  233 1    
   222  111  234 1    
   223  112  113 2    
   224  112  114 am   BACKBONE|DICT|INTERRES
   225  114  115 1    
   226  114  235 1    
   227  115  116 1    
   228  115  117 1    
   229  115  236 1    
   230  116  237 1    
   231  116  238 1    
   232  116  239 1    
   233  117  118 2    
   234  117  119 am   BACKBONE|DICT|INTERRES
   235  119  120 1    
   236  119  240 1    
   237  120  121 1    
   238  120  124 1    
   239  120  241 1    
   240  121  122 am   BACKBONE|DICT|INTERRES
   241  121  123 2    
   242  122  242 1    
   243  122  243 1    
   244  124  125 1    
   245  124  244 1    
   246  124  245 1    
   247  125  126 1    
   248  126  246 1    
   249  126  247 1    
@<TRIPOS>SUBSTRUCTURE
     1 UNK         1 GROUP             0       ****    0 ROOT    
