@<TRIPOS>MOLECULE
3R540
247   249    1
SMALL
USER_CHARGES


@<TRIPOS>ATOM
      1 CA          4.3852  -16.3286  -47.1428 C.3       0 UNK        -0.1800 
      2 C           3.5166  -15.0941  -46.9540 C.2       0 UNK         0.5000 
      3 O           3.3474  -14.6251  -45.8307 O.2       0 UNK        -0.5000 
      4 N           2.9796  -14.5459  -48.0513 N.am      1 UNK        -0.5000 
      5 CA          2.0257  -13.4246  -48.0613 C.3       1 UNK         0.1400 
      6 C6          1.3210  -13.2756  -49.4352 C.3       23 UNK        -0.0398 
      7 S7          0.5769  -14.8065  -50.1160 S.3       23 UNK        -0.2404 
      8 C8         -0.1908  -15.5851  -48.6596 C.3       23 UNK        -0.0205 
      9 C9         -0.7760  -16.9469  -48.9873 C.ar      23 UNK        -0.0193 
     10 C10        -2.1572  -17.1156  -49.1118 C.ar      23 UNK        -0.1150 
     11 C11        -2.6970  -18.3826  -49.3519 C.ar      23 UNK        -0.0193 
     12 C12        -1.8391  -19.4812  -49.4726 C.ar      23 UNK        -0.1150 
     13 C13        -0.4536  -19.3230  -49.3748 C.ar      23 UNK        -0.0193 
     14 C14         0.0695  -18.0507  -49.1281 C.ar      23 UNK        -0.1150 
     15 C15         0.4741  -20.5165  -49.5800 C.3       23 UNK        -0.0205 
     16 S16         1.6559  -20.7555  -48.2096 S.3       23 UNK        -0.2404 
     17 C17         0.5507  -21.2424  -46.8469 C.3       23 UNK        -0.0398 
     18 CA          1.1215  -22.4230  -46.0194 C.3       11 UNK         0.1400 
     19 N           2.2833  -21.9987  -45.2410 N.am      11 UNK        -0.5000 
     20 C           3.0754  -22.7730  -44.4922 C.2       10 UNK         0.5000 
     21 O           3.0265  -24.0038  -44.4985 O.2       10 UNK        -0.5000 
     22 CA          4.0617  -22.0596  -43.5421 C.3       10 UNK         0.1400 
     23 CB          5.4637  -21.9398  -44.1706 C.3       10 UNK        -0.1800 
     24 N           3.5753  -20.7664  -43.0307 N.am      10 UNK        -0.5000 
     25 C           3.4000  -19.6132  -43.6905 C.2       9 UNK         0.5000 
     26 O           3.6665  -19.4600  -44.8827 O.2       9 UNK        -0.5000 
     27 CA          2.7171  -18.4811  -42.9041 C.3       9 UNK         0.1400 
     28 CB          3.0839  -17.0950  -43.4611 C.3       9 UNK        -0.1800 
     29 N           1.2632  -18.6610  -42.9424 N.am      9 UNK        -0.5000 
     30 C           0.5863  -19.5199  -42.1618 C.2       8 UNK         0.5000 
     31 O           1.1381  -20.2092  -41.3019 O.2       8 UNK        -0.5000 
     32 CA         -0.9440  -19.6328  -42.3334 C.3       8 UNK         0.1400 
     33 CB         -1.6663  -19.3202  -41.0119 C.3       8 UNK        -0.1800 
     34 N          -1.4626  -18.7366  -43.3648 N.am      8 UNK        -0.5000 
     35 C          -1.8653  -19.1095  -44.5866 C.2       7 UNK         0.5000 
     36 O          -1.9152  -20.2794  -44.9664 O.2       7 UNK        -0.5000 
     37 CA         -2.2799  -17.9947  -45.5689 C.3       7 UNK         0.1400 
     38 CB         -3.8083  -17.9408  -45.7151 C.3       7 UNK        -0.1800 
     39 N          -1.8005  -16.6562  -45.2168 N.am      7 UNK        -0.5000 
     40 C          -0.5164  -16.2870  -45.1261 C.2       6 UNK         0.5000 
     41 O           0.4221  -17.0505  -45.3429 O.2       6 UNK        -0.5000 
     42 CA         -0.2316  -14.8357  -44.6873 C.3       6 UNK         0.1400 
     43 CB         -1.3911  -13.8632  -44.9868 C.3       6 UNK        -0.1800 
     44 N           0.1633  -14.7090  -43.2812 N.am      6 UNK        -0.5000 
     45 C          -0.4095  -15.2610  -42.1985 C.2       5 UNK         0.5000 
     46 O          -1.3506  -16.0531  -42.2448 O.2       5 UNK        -0.5000 
     47 CA          0.1459  -14.8526  -40.8179 C.3       5 UNK         0.1400 
     48 CB          1.0533  -15.9475  -40.2344 C.3       5 UNK        -0.1800 
     49 N           0.8739  -13.5819  -40.8372 N.am      5 UNK        -0.5000 
     50 C           0.2956  -12.3780  -40.9562 C.2       4 UNK         0.5000 
     51 O          -0.9235  -12.2062  -40.9852 O.2       4 UNK        -0.5000 
     52 CA          1.2338  -11.1604  -41.0816 C.3       4 UNK         0.1400 
     53 CB          1.4303  -10.4917  -39.7123 C.3       4 UNK        -0.1800 
     54 N           2.5488  -11.4682  -41.6557 N.am      4 UNK        -0.5000 
     55 C           2.7574  -11.9164  -42.9007 C.2       3 UNK         0.5000 
     56 O           1.8501  -12.1880  -43.6903 O.2       3 UNK        -0.5000 
     57 CA          4.2230  -12.1469  -43.3015 C.3       3 UNK         0.1400 
     58 CB          4.6798  -13.5490  -42.8698 C.3       3 UNK        -0.1800 
     59 N           4.3830  -12.0167  -44.7482 N.am      3 UNK        -0.5000 
     60 C           4.6373  -10.8618  -45.3807 C.2       2 UNK         0.5000 
     61 O           4.8287   -9.7952  -44.7942 O.2       2 UNK        -0.5000 
     62 CA          4.7035  -10.8873  -46.9225 C.3       2 UNK         0.1400 
     63 CB          6.1639  -10.9559  -47.3953 C.3       2 UNK        -0.1800 
     64 N           3.9660  -12.0052  -47.5091 N.am      2 UNK        -0.5000 
     65 C           2.6309  -12.0813  -47.5933 C.2       1 UNK         0.5000 
     66 O           1.8792  -11.1499  -47.3037 O.2       1 UNK        -0.5000 
     67 C           0.0197  -23.0190  -45.1145 C.2       11 UNK         0.5000 
     68 O          -0.0692  -22.6908  -43.9292 O.2       11 UNK        -0.5000 
     69 N          -0.8265  -23.8545  -45.7230 N.am      12 UNK        -0.5000 
     70 CA         -2.0546  -24.4006  -45.1501 C.3       12 UNK         0.1400 
     71 CB         -1.9649  -25.9378  -45.1537 C.3       12 UNK        -0.1800 
     72 C          -3.2447  -23.8724  -45.9710 C.2       12 UNK         0.5000 
     73 O          -4.1023  -24.6477  -46.3978 O.2       12 UNK        -0.5000 
     74 N          -3.2356  -22.5561  -46.2271 N.am      13 UNK        -0.5000 
     75 CA         -4.1513  -21.8173  -47.0946 C.3       13 UNK         0.1400 
     76 CB         -5.5203  -21.6429  -46.4017 C.3       13 UNK        -0.1800 
     77 C          -4.2228  -22.4149  -48.5168 C.2       13 UNK         0.5000 
     78 O          -3.1772  -22.7258  -49.0944 O.2       13 UNK        -0.5000 
     79 N          -5.4401  -22.5774  -49.0526 N.am      14 UNK        -0.5000 
     80 CA         -5.7194  -23.0567  -50.4077 C.3       14 UNK         0.1400 
     81 CB         -7.2353  -23.0431  -50.6491 C.3       14 UNK        -0.1800 
     82 C          -5.1337  -24.4432  -50.7349 C.2       14 UNK         0.5000 
     83 O          -4.8381  -24.7034  -51.8998 O.2       14 UNK        -0.5000 
     84 N          -4.9363  -25.2957  -49.7186 N.am      15 UNK        -0.5000 
     85 CA         -4.3052  -26.6090  -49.8652 C.3       15 UNK         0.1400 
     86 CB         -4.4755  -27.4123  -48.5675 C.3       15 UNK        -0.1800 
     87 C          -2.8178  -26.5142  -50.2553 C.2       15 UNK         0.5000 
     88 O          -2.3475  -27.3308  -51.0477 O.2       15 UNK        -0.5000 
     89 N          -2.1153  -25.5010  -49.7283 N.am      16 UNK        -0.5000 
     90 CA         -0.7216  -25.2070  -50.0689 C.3       16 UNK         0.1400 
     91 CB         -0.0657  -24.4350  -48.9173 C.3       16 UNK        -0.1800 
     92 C          -0.5973  -24.4335  -51.3932 C.2       16 UNK         0.5000 
     93 O           0.4071  -24.5815  -52.0889 O.2       16 UNK        -0.5000 
     94 N          -1.6310  -23.6528  -51.7362 N.am      17 UNK        -0.5000 
     95 CA         -1.7450  -22.9219  -53.0011 C.3       17 UNK         0.1400 
     96 CB         -2.6773  -21.7191  -52.7976 C.3       17 UNK        -0.1800 
     97 C          -2.2274  -23.7984  -54.1787 C.2       17 UNK         0.5000 
     98 O          -2.3900  -23.2758  -55.2808 O.2       17 UNK        -0.5000 
     99 N          -2.4610  -25.0972  -53.9341 N.am      18 UNK        -0.5000 
    100 CA        -2.9165  -26.1174  -54.8850 C.3       18 UNK         0.1400 
    101 CB        -1.8543  -26.3677  -55.9764 C.3       18 UNK        -0.1800 
    102 C         -4.3203  -25.8215  -55.4539 C.2       18 UNK         0.5000 
    103 O         -4.5462  -25.9479  -56.6586 O.2       18 UNK        -0.5000 
    104 N         -5.2351  -25.4318  -54.5554 N.am      19 UNK        -0.5000 
    105 CA        -6.6487  -25.1118  -54.7782 C.3       19 UNK         0.1400 
    106 CB        -7.4137  -26.3123  -55.3745 C.3       19 UNK        -0.1800 
    107 C         -6.8887  -23.8007  -55.5548 C.2       19 UNK         0.5000 
    108 O         -8.0025  -23.5755  -56.0326 O.2       19 UNK        -0.5000 
    109 N         -5.8659  -22.9397  -55.6449 N.am      20 UNK        -0.5000 
    110 CA        -5.9793  -21.5823  -56.1757 C.3       20 UNK         0.1400 
    111 CB        -4.5740  -21.0281  -56.4496 C.3       20 UNK        -0.1800 
    112 C         -6.7365  -20.6635  -55.1989 C.2       20 UNK         0.5000 
    113 O         -6.6718  -20.8638  -53.9825 O.2       20 UNK        -0.5000 
    114 N         -7.4120  -19.6470  -55.7470 N.am      21 UNK        -0.5000 
    115 CA        -8.1669  -18.6349  -55.0062 C.3       21 UNK         0.1400 
    116 CB        -9.2424  -18.0435  -55.9356 C.3       21 UNK        -0.1800 
    117 C         -7.2341  -17.5581  -54.4127 C.2       21 UNK         0.5000 
    118 O         -7.2927  -16.3931  -54.8108 O.2       21 UNK        -0.5000 
    119 N         -6.3648  -17.9802  -53.4889 N.am      22 UNK        -0.5000 
    120 CA        -5.3782  -17.1370  -52.7955 C.3       22 UNK         0.1400 
    121 C         -5.9592  -16.1681  -51.7220 C.2       22 UNK         0.5000 
    122 N         -7.2222  -16.2851  -51.3299 N.am      22 UNK        -0.7600 
    123 O         -5.2518  -15.2859  -51.2439 O.2       22 UNK        -0.5000 
    124 C124       -4.2045  -17.9835  -52.2407 C.3       23 UNK        -0.0398 
    125 S125       -4.7170  -19.2823  -51.0586 S.3       23 UNK        -0.2404 
    126 C126       -4.2065  -18.5578  -49.4673 C.3       23 UNK        -0.0205 
    127 H127        4.6064  -16.5107  -48.1946 H         1 UNK         0.0600 
    128 H128        5.3293  -16.2099  -46.6111 H         1 UNK         0.0600 
    129 H129        3.8769  -17.2070  -46.7447 H         1 UNK         0.0600 
    130 H130        3.1610  -14.9652  -48.9526 H         1 UNK         0.3000 
    131 H131        1.2569  -13.6473  -47.3215 H         1 UNK         0.0600 
    132 H132        2.0260  -12.8992  -50.1785 H         1 UNK         0.0800 
    133 H133        0.5285  -12.5279  -49.3691 H         1 UNK         0.0800 
    134 H134       -0.9560  -14.9219  -48.2542 H         1 UNK         0.0800 
    135 H135        0.5491  -15.7312  -47.8745 H         1 UNK         0.0800 
    136 H136       -2.8126  -16.2622  -49.0073 H         1 UNK         0.1150 
    137 H137       -2.2529  -20.4577  -49.6689 H         1 UNK         0.1150 
    138 H138        1.1390  -17.9184  -49.0419 H         1 UNK         0.1150 
    139 H139       -0.0978  -21.4332  -49.7299 H         1 UNK         0.0800 
    140 H140        1.0379  -20.3584  -50.5000 H         1 UNK         0.0800 
    141 H141       -0.4273  -21.4877  -47.2652 H         1 UNK         0.0800 
    142 H142        0.3969  -20.3674  -46.2138 H         1 UNK         0.0800 
    143 H143        1.4549  -23.2092  -46.6996 H         1 UNK         0.0600 
    144 H144        2.4620  -21.0013  -45.2141 H         1 UNK         0.3000 
    145 H145        4.1548  -22.6995  -42.6632 H         1 UNK         0.0600 
    146 H146        6.1642  -21.4614  -43.4862 H         1 UNK         0.0600 
    147 H147        5.8643  -22.9256  -44.4098 H         1 UNK         0.0600 
    148 H148        5.4508  -21.3648  -45.0967 H         1 UNK         0.0600 
    149 H149        3.2095  -20.8010  -42.0866 H         1 UNK         0.3000 
    150 H150        3.0590  -18.5190  -41.8675 H         1 UNK         0.0600 
    151 H151        4.1524  -16.9052  -43.3562 H         1 UNK         0.0600 
    152 H152        2.5572  -16.2972  -42.9428 H         1 UNK         0.0600 
    153 H153        2.8449  -17.0053  -44.5194 H         1 UNK         0.0600 
    154 H154        0.7754  -18.1675  -43.6828 H         1 UNK         0.3000 
    155 H155       -1.1601  -20.6705  -42.5919 H         1 UNK         0.0600 
    156 H156       -1.4686  -18.3030  -40.6736 H         1 UNK         0.0600 
    157 H157       -1.3481  -19.9981  -40.2189 H         1 UNK         0.0600 
    158 H158       -2.7452  -19.4328  -41.1185 H         1 UNK         0.0600 
    159 H159       -1.4754  -17.7481  -43.1246 H         1 UNK         0.3000 
    160 H160       -1.8473  -18.2596  -46.5343 H         1 UNK         0.0600 
    161 H161       -4.1046  -17.2464  -46.5014 H         1 UNK         0.0600 
    162 H162       -4.2879  -17.6251  -44.7878 H         1 UNK         0.0600 
    163 H163       -4.2172  -18.9162  -45.9754 H         1 UNK         0.0600 
    164 H164       -2.5078  -15.9780  -44.9744 H         1 UNK         0.3000 
    165 H165        0.6308  -14.5097  -45.2681 H         1 UNK         0.0600 
    166 H166       -1.0798  -12.8321  -44.8166 H         1 UNK         0.0600 
    167 H167       -1.7109  -13.9330  -46.0272 H         1 UNK         0.0600 
    168 H168       -2.2590  -14.0507  -44.3536 H         1 UNK         0.0600 
    169 H169        0.9167  -14.0501  -43.1271 H         1 UNK         0.3000 
    170 H170       -0.7133  -14.7457  -40.1522 H         1 UNK         0.0600 
    171 H171        0.5697  -16.9243  -40.2704 H         1 UNK         0.0600 
    172 H172        1.9966  -16.0272  -40.7721 H         1 UNK         0.0600 
    173 H173        1.2864  -15.7429  -39.1895 H         1 UNK         0.0600 
    174 H174        1.8814  -13.6291  -40.8039 H         1 UNK         0.3000 
    175 H175        0.7443  -10.4431  -41.7438 H         1 UNK         0.0600 
    176 H176        2.0138   -9.5750  -39.8002 H         1 UNK         0.0600 
    177 H177        0.4714  -10.2224  -39.2672 H         1 UNK         0.0600 
    178 H178        1.9431  -11.1520  -39.0119 H         1 UNK         0.0600 
    179 H179        3.3461  -11.2868  -41.0627 H         1 UNK         0.3000 
    180 H180        4.8501  -11.4102  -42.7948 H         1 UNK         0.0600 
    181 H181        4.0525  -14.3270  -43.3037 H         1 UNK         0.0600 
    182 H182        4.6363  -13.6607  -41.7859 H         1 UNK         0.0600 
    183 H183        5.7085  -13.7407  -43.1751 H         1 UNK         0.0600 
    184 H184        4.1367  -12.8384  -45.2907 H         1 UNK         0.3000 
    185 H185        4.2704   -9.9537  -47.2877 H         1 UNK         0.0600 
    186 H186        6.6508  -11.8749  -47.0666 H         1 UNK         0.0600 
    187 H187        6.2294  -10.9104  -48.4826 H         1 UNK         0.0600 
    188 H188        6.7419  -10.1190  -47.0010 H         1 UNK         0.0600 
    189 H189        4.5038  -12.8191  -47.7689 H         1 UNK         0.3000 
    190 H190       -0.6888  -24.0543  -46.7029 H         1 UNK         0.3000 
    191 H191       -2.1942  -24.0621  -44.1215 H         1 UNK         0.0600 
    192 H192       -1.1104  -26.2819  -44.5709 H         1 UNK         0.0600 
    193 H193       -1.8615  -26.3337  -46.1649 H         1 UNK         0.0600 
    194 H194       -2.8579  -26.3837  -44.7141 H         1 UNK         0.0600 
    195 H195       -2.5135  -21.9859  -45.7968 H         1 UNK         0.3000 
    196 H196       -3.7047  -20.8310  -47.2135 H         1 UNK         0.0600 
    197 H197       -6.1697  -20.9710  -46.9641 H         1 UNK         0.0600 
    198 H198       -5.3984  -21.2064  -45.4101 H         1 UNK         0.0600 
    199 H199       -6.0401  -22.5939  -46.2792 H         1 UNK         0.0600 
    200 H200       -6.2431  -22.3195  -48.4982 H         1 UNK         0.3000 
    201 H201       -5.2678  -22.3437  -51.0975 H         1 UNK         0.0600 
    202 H202       -7.6449  -22.0407  -50.5221 H         1 UNK         0.0600 
    203 H203       -7.7586  -23.7125  -49.9653 H         1 UNK         0.0600 
    204 H204       -7.4711  -23.3587  -51.6665 H         1 UNK         0.0600 
    205 H205       -5.1689  -25.0010  -48.7798 H         1 UNK         0.3000 
    206 H206       -4.8242  -27.1432  -50.6641 H         1 UNK         0.0600 
    207 H207       -5.5271  -27.5117  -48.2985 H         1 UNK         0.0600 
    208 H208       -4.0716  -28.4194  -48.6782 H         1 UNK         0.0600 
    209 H209       -3.9573  -26.9439  -47.7307 H         1 UNK         0.0600 
    210 H210       -2.5975  -24.8236  -49.1499 H         1 UNK         0.3000 
    211 H211       -0.1780  -26.1468  -50.1900 H         1 UNK         0.0600 
    212 H212       -0.6346  -23.5428  -48.6580 H         1 UNK         0.0600 
    213 H213        0.9444  -24.1173  -49.1805 H         1 UNK         0.0600 
    214 H214        0.0163  -25.0681  -48.0346 H         1 UNK         0.0600 
    215 H215       -2.4019  -23.5615  -51.0871 H         1 UNK         0.3000 
    216 H216       -0.7588  -22.5362  -53.2673 H         1 UNK         0.0600 
    217 H217       -3.7192  -22.0253  -52.7134 H         1 UNK         0.0600 
    218 H218       -2.6080  -21.0284  -53.6376 H         1 UNK         0.0600 
    219 H219       -2.4127  -21.1579  -51.9027 H         1 UNK         0.0600 
    220 H220       -2.3397  -25.4147  -52.9829 H         1 UNK         0.3000 
    221 H221       -3.0145  -27.0399  -54.3108 H         1 UNK         0.0600 
    222 H222       -1.7336  -25.5057  -56.6331 H         1 UNK         0.0600 
    223 H223       -0.8829  -26.5928  -55.5361 H         1 UNK         0.0600 
    224 H224       -2.1310  -27.2172  -56.6018 H         1 UNK         0.0600 
    225 H225       -4.9288  -25.2961  -53.5922 H         1 UNK         0.3000 
    226 H226       -7.0603  -24.9346  -53.7837 H         1 UNK         0.0600 
    227 H227       -7.2308  -27.2212  -54.8014 H         1 UNK         0.0600 
    228 H228       -7.1293  -26.5030  -56.4094 H         1 UNK         0.0600 
    229 H229       -8.4897  -26.1351  -55.3622 H         1 UNK         0.0600 
    230 H230       -4.9826  -23.1917  -55.2251 H         1 UNK         0.3000 
    231 H231       -6.5266  -21.6241  -57.1198 H         1 UNK         0.0600 
    232 H232       -4.0206  -21.6730  -57.1327 H         1 UNK         0.0600 
    233 H233       -3.9937  -20.9370  -55.5319 H         1 UNK         0.0600 
    234 H234       -4.6241  -20.0382  -56.9045 H         1 UNK         0.0600 
    235 H235       -7.3822  -19.5280  -56.7494 H         1 UNK         0.3000 
    236 H236       -8.6816  -19.1158  -54.1714 H         1 UNK         0.0600 
    237 H237       -9.8435  -17.2980  -55.4134 H         1 UNK         0.0600 
    238 H238       -8.8017  -17.5590  -56.8080 H         1 UNK         0.0600 
    239 H239       -9.9241  -18.8166  -56.2906 H         1 UNK         0.0600 
    240 H240       -6.3629  -18.9654  -53.2447 H         1 UNK         0.3000 
    241 H241       -4.9469  -16.4812  -53.5542 H         1 UNK         0.0600 
    242 H242       -7.5893  -15.6481  -50.6406 H         1 UNK         0.3800 
    243 H243       -7.8104  -17.0092  -51.7086 H         1 UNK         0.3800 
    244 H244       -3.7011  -18.4831  -53.0694 H         1 UNK         0.0800 
    245 H245       -3.4457  -17.3401  -51.7933 H         1 UNK         0.0800 
    246 H246       -4.5551  -19.2018  -48.6615 H         1 UNK         0.0800 
    247 H247       -4.7198  -17.6045  -49.3330 H         1 UNK         0.0800 
@<TRIPOS>BOND
     1    1    2 1    
     2    1  127 1    
     3    1  128 1    
     4    1  129 1    
     5    2    3 2    
     6    2    4 am   BACKBONE|DICT|INTERRES
     7    4    5 1    
     8    4  130 1    
     9    5    6 1    
    10    5   65 1    
    11    5  131 1    
    12    6    7 1    
    13    6  132 1    
    14    6  133 1    
    15    7    8 1    
    16    8    9 1    
    17    8  134 1    
    18    8  135 1    
    19    9   10 ar   
    20    9   14 ar   
    21   10   11 ar   
    22   10  136 1    
    23   11   12 ar   
    24   11  126 1    
    25   12   13 ar   
    26   12  137 1    
    27   13   14 ar   
    28   13   15 1    
    29   14  138 1    
    30   15   16 1    
    31   15  139 1    
    32   15  140 1    
    33   16   17 1    
    34   17   18 1    
    35   17  141 1    
    36   17  142 1    
    37   18   19 1    
    38   18   67 1    
    39   18  143 1    
    40   19   20 am   BACKBONE|DICT|INTERRES
    41   19  144 1    
    42   20   21 2    
    43   20   22 1    
    44   22   23 1    
    45   22   24 1    
    46   22  145 1    
    47   23  146 1    
    48   23  147 1    
    49   23  148 1    
    50   24   25 am   BACKBONE|DICT|INTERRES
    51   24  149 1    
    52   25   26 2    
    53   25   27 1    
    54   27   28 1    
    55   27   29 1    
    56   27  150 1    
    57   28  151 1    
    58   28  152 1    
    59   28  153 1    
    60   29   30 am   BACKBONE|DICT|INTERRES
    61   29  154 1    
    62   30   31 2    
    63   30   32 1    
    64   32   33 1    
    65   32   34 1    
    66   32  155 1    
    67   33  156 1    
    68   33  157 1    
    69   33  158 1    
    70   34   35 am   BACKBONE|DICT|INTERRES
    71   34  159 1    
    72   35   36 2    
    73   35   37 1    
    74   37   38 1    
    75   37   39 1    
    76   37  160 1    
    77   38  161 1    
    78   38  162 1    
    79   38  163 1    
    80   39   40 am   BACKBONE|DICT|INTERRES
    81   39  164 1    
    82   40   41 2    
    83   40   42 1    
    84   42   43 1    
    85   42   44 1    
    86   42  165 1    
    87   43  166 1    
    88   43  167 1    
    89   43  168 1    
    90   44   45 am   BACKBONE|DICT|INTERRES
    91   44  169 1    
    92   45   46 2    
    93   45   47 1    
    94   47   48 1    
    95   47   49 1    
    96   47  170 1    
    97   48  171 1    
    98   48  172 1    
    99   48  173 1    
   100   49   50 am   BACKBONE|DICT|INTERRES
   101   49  174 1    
   102   50   51 2    
   103   50   52 1    
   104   52   53 1    
   105   52   54 1    
   106   52  175 1    
   107   53  176 1    
   108   53  177 1    
   109   53  178 1    
   110   54   55 am   BACKBONE|DICT|INTERRES
   111   54  179 1    
   112   55   56 2    
   113   55   57 1    
   114   57   58 1    
   115   57   59 1    
   116   57  180 1    
   117   58  181 1    
   118   58  182 1    
   119   58  183 1    
   120   59   60 am   BACKBONE|DICT|INTERRES
   121   59  184 1    
   122   60   61 2    
   123   60   62 1    
   124   62   63 1    
   125   62   64 1    
   126   62  185 1    
   127   63  186 1    
   128   63  187 1    
   129   63  188 1    
   130   64   65 am   BACKBONE|DICT|INTERRES
   131   64  189 1    
   132   65   66 2    
   133   67   68 2    
   134   67   69 am   BACKBONE|DICT|INTERRES
   135   69   70 1    
   136   69  190 1    
   137   70   71 1    
   138   70   72 1    
   139   70  191 1    
   140   71  192 1    
   141   71  193 1    
   142   71  194 1    
   143   72   73 2    
   144   72   74 am   BACKBONE|DICT|INTERRES
   145   74   75 1    
   146   74  195 1    
   147   75   76 1    
   148   75   77 1    
   149   75  196 1    
   150   76  197 1    
   151   76  198 1    
   152   76  199 1    
   153   77   78 2    
   154   77   79 am   BACKBONE|DICT|INTERRES
   155   79   80 1    
   156   79  200 1    
   157   80   81 1    
   158   80   82 1    
   159   80  201 1    
   160   81  202 1    
   161   81  203 1    
   162   81  204 1    
   163   82   83 2    
   164   82   84 am   BACKBONE|DICT|INTERRES
   165   84   85 1    
   166   84  205 1    
   167   85   86 1    
   168   85   87 1    
   169   85  206 1    
   170   86  207 1    
   171   86  208 1    
   172   86  209 1    
   173   87   88 2    
   174   87   89 am   BACKBONE|DICT|INTERRES
   175   89   90 1    
   176   89  210 1    
   177   90   91 1    
   178   90   92 1    
   179   90  211 1    
   180   91  212 1    
   181   91  213 1    
   182   91  214 1    
   183   92   93 2    
   184   92   94 am   BACKBONE|DICT|INTERRES
   185   94   95 1    
   186   94  215 1    
   187   95   96 1    
   188   95   97 1    
   189   95  216 1    
   190   96  217 1    
   191   96  218 1    
   192   96  219 1    
   193   97   98 2    
   194   97   99 am   BACKBONE|DICT|INTERRES
   195   99  100 1    
   196   99  220 1    
   197  100  101 1    
   198  100  102 1    
   199  100  221 1    
   200  101  222 1    
   201  101  223 1    
   202  101  224 1    
   203  102  103 2    
   204  102  104 am   BACKBONE|DICT|INTERRES
   205  104  105 1    
   206  104  225 1    
   207  105  106 1    
   208  105  107 1    
   209  105  226 1    
   210  106  227 1    
   211  106  228 1    
   212  106  229 1    
   213  107  108 2    
   214  107  109 am   BACKBONE|DICT|INTERRES
   215  109  110 1    
   216  109  230 1    
   217  110  111 1    
   218  110  112 1    
   219  110  231 1    
   220  111  232 1    
   221  111  233 1    
   222  111  234 1    
   223  112  113 2    
   224  112  114 am   BACKBONE|DICT|INTERRES
   225  114  115 1    
   226  114  235 1    
   227  115  116 1    
   228  115  117 1    
   229  115  236 1    
   230  116  237 1    
   231  116  238 1    
   232  116  239 1    
   233  117  118 2    
   234  117  119 am   BACKBONE|DICT|INTERRES
   235  119  120 1    
   236  119  240 1    
   237  120  121 1    
   238  120  124 1    
   239  120  241 1    
   240  121  122 am   BACKBONE|DICT|INTERRES
   241  121  123 2    
   242  122  242 1    
   243  122  243 1    
   244  124  125 1    
   245  124  244 1    
   246  124  245 1    
   247  125  126 1    
   248  126  246 1    
   249  126  247 1    
@<TRIPOS>SUBSTRUCTURE
     1 UNK         1 GROUP             0       ****    0 ROOT    
