@<TRIPOS>MOLECULE
3R540
247   249    1
SMALL
USER_CHARGES


@<TRIPOS>ATOM
      1 CA         -4.8387  -13.1781  -49.7699 C.3       0 UNK        -0.1800 
      2 C          -3.4790  -12.7912  -49.2066 C.2       0 UNK         0.5000 
      3 O          -3.2316  -11.6103  -48.9632 O.2       0 UNK        -0.5000 
      4 N          -2.5988  -13.7814  -49.0152 N.am      1 UNK        -0.5000 
      5 CA         -1.2440  -13.6314  -48.4770 C.3       1 UNK         0.1400 
      6 C6         -0.4457  -14.9483  -48.6364 C.3       23 UNK        -0.0398 
      7 S7          1.3303  -14.7621  -48.2729 S.3       23 UNK        -0.2404 
      8 C8          2.1167  -15.3647  -49.7953 C.3       23 UNK        -0.0205 
      9 C9          1.8009  -16.8260  -50.0849 C.ar      23 UNK        -0.0193 
     10 C10         1.1820  -17.1762  -51.2869 C.ar      23 UNK        -0.1150 
     11 C11         0.9453  -18.5155  -51.6026 C.ar      23 UNK        -0.0193 
     12 C12         1.3096  -19.5113  -50.6897 C.ar      23 UNK        -0.1150 
     13 C13         1.9150  -19.1762  -49.4734 C.ar      23 UNK        -0.0193 
     14 C14         2.1653  -17.8308  -49.1822 C.ar      23 UNK        -0.1150 
     15 C15         2.3692  -20.2707  -48.5128 C.3       23 UNK        -0.0205 
     16 S16         1.6339  -20.1309  -46.8501 S.3       23 UNK        -0.2404 
     17 C17        -0.0694  -20.7130  -47.1306 C.3       23 UNK        -0.0398 
     18 CA         -0.2683  -22.2060  -46.7719 C.3       11 UNK         0.1400 
     19 N           0.0528  -22.5095  -45.3745 N.am      11 UNK        -0.5000 
     20 C           0.1515  -23.7500  -44.8755 C.2       10 UNK         0.5000 
     21 O           0.0619  -24.7712  -45.5567 O.2       10 UNK        -0.5000 
     22 CA          0.3173  -23.8697  -43.3519 C.3       10 UNK         0.1400 
     23 CB          1.7925  -23.7391  -42.9431 C.3       10 UNK        -0.1800 
     24 N          -0.4909  -22.8743  -42.6458 N.am      10 UNK        -0.5000 
     25 C          -1.8269  -22.9344  -42.5413 C.2       9 UNK         0.5000 
     26 O          -2.5033  -23.8552  -42.9975 O.2       9 UNK        -0.5000 
     27 CA         -2.5333  -21.7544  -41.8470 C.3       9 UNK         0.1400 
     28 CB         -2.5734  -21.9696  -40.3270 C.3       9 UNK        -0.1800 
     29 N          -1.9098  -20.4632  -42.1354 N.am      9 UNK        -0.5000 
     30 C          -1.8537  -19.8957  -43.3483 C.2       8 UNK         0.5000 
     31 O          -2.3673  -20.3798  -44.3543 O.2       8 UNK        -0.5000 
     32 CA         -1.0388  -18.5967  -43.4712 C.3       8 UNK         0.1400 
     33 CB         -1.9417  -17.3784  -43.2397 C.3       8 UNK        -0.1800 
     34 N           0.1080  -18.5322  -42.5611 N.am      8 UNK        -0.5000 
     35 C           1.1168  -19.4123  -42.5214 C.2       7 UNK         0.5000 
     36 O           1.1660  -20.4150  -43.2356 O.2       7 UNK        -0.5000 
     37 CA          2.2507  -19.1078  -41.5215 C.3       7 UNK         0.1400 
     38 CB          3.2832  -20.2464  -41.4400 C.3       7 UNK        -0.1800 
     39 N           2.9449  -17.8673  -41.8656 N.am      7 UNK        -0.5000 
     40 C           2.4882  -16.6248  -41.6537 C.2       6 UNK         0.5000 
     41 O           1.4243  -16.3845  -41.0819 O.2       6 UNK        -0.5000 
     42 CA          3.3390  -15.4581  -42.1921 C.3       6 UNK         0.1400 
     43 CB          3.9662  -14.6822  -41.0242 C.3       6 UNK        -0.1800 
     44 N           4.4183  -15.9101  -43.0786 N.am      6 UNK        -0.5000 
     45 C           4.3844  -16.1956  -44.3919 C.2       5 UNK         0.5000 
     46 O           5.3405  -16.7546  -44.9260 O.2       5 UNK        -0.5000 
     47 CA          3.1829  -15.8004  -45.2840 C.3       5 UNK         0.1400 
     48 CB          1.9684  -16.7259  -45.0983 C.3       5 UNK        -0.1800 
     49 N           2.7884  -14.3923  -45.1938 N.am      5 UNK        -0.5000 
     50 C           3.5749  -13.3553  -45.5263 C.2       4 UNK         0.5000 
     51 O           4.7298  -13.4813  -45.9355 O.2       4 UNK        -0.5000 
     52 CA          2.9885  -11.9328  -45.4048 C.3       4 UNK         0.1400 
     53 CB          2.6698  -11.3553  -46.7925 C.3       4 UNK        -0.1800 
     54 N           1.7905  -11.8673  -44.5664 N.am      4 UNK        -0.5000 
     55 C           1.8154  -11.9106  -43.2266 C.2       3 UNK         0.5000 
     56 O           2.8591  -11.9283  -42.5745 O.2       3 UNK        -0.5000 
     57 CA          0.4697  -11.9543  -42.4714 C.3       3 UNK         0.1400 
     58 CB          0.2141  -10.6210  -41.7514 C.3       3 UNK        -0.1800 
     59 N          -0.7017  -12.2739  -43.2914 N.am      3 UNK        -0.5000 
     60 C          -0.9025  -13.4125  -43.9672 C.2       2 UNK         0.5000 
     61 O          -0.0706  -14.3187  -44.0236 O.2       2 UNK        -0.5000 
     62 CA         -2.2362  -13.5565  -44.7373 C.3       2 UNK         0.1400 
     63 CB         -3.1956  -12.3562  -44.5733 C.3       2 UNK        -0.1800 
     64 N          -2.0317  -13.8326  -46.1626 N.am      2 UNK        -0.5000 
     65 C          -1.2639  -13.1342  -47.0143 C.2       1 UNK         0.5000 
     66 O          -0.6178  -12.1326  -46.6989 O.2       1 UNK        -0.5000 
     67 C          -1.6927  -22.6843  -47.1284 C.2       11 UNK         0.5000 
     68 O          -1.8767  -23.3159  -48.1668 O.2       11 UNK        -0.5000 
     69 N          -2.6696  -22.4293  -46.2469 N.am      12 UNK        -0.5000 
     70 CA         -4.0582  -22.8683  -46.3966 C.3       12 UNK         0.1400 
     71 CB         -4.9281  -22.2189  -45.3114 C.3       12 UNK        -0.1800 
     72 C          -4.2063  -24.4006  -46.3763 C.2       12 UNK         0.5000 
     73 O          -4.9657  -24.9422  -47.1790 O.2       12 UNK        -0.5000 
     74 N          -3.4394  -25.0804  -45.5106 N.am      13 UNK        -0.5000 
     75 CA         -3.3498  -26.5434  -45.4469 C.3       13 UNK         0.1400 
     76 CB         -2.5408  -26.9560  -44.2085 C.3       13 UNK        -0.1800 
     77 C          -2.7525  -27.1746  -46.7216 C.2       13 UNK         0.5000 
     78 O          -3.1169  -28.2977  -47.0702 O.2       13 UNK        -0.5000 
     79 N          -1.8850  -26.4267  -47.4164 N.am      14 UNK        -0.5000 
     80 CA         -1.3266  -26.7674  -48.7264 C.3       14 UNK         0.1400 
     81 CB          0.0546  -26.1029  -48.8616 C.3       14 UNK        -0.1800 
     82 C          -2.2537  -26.3785  -49.9016 C.2       14 UNK         0.5000 
     83 O          -1.8495  -26.5345  -51.0544 O.2       14 UNK        -0.5000 
     84 N          -3.4647  -25.8819  -49.5999 N.am      15 UNK        -0.5000 
     85 CA         -4.4990  -25.4025  -50.5236 C.3       15 UNK         0.1400 
     86 CB         -4.9958  -26.5337  -51.4488 C.3       15 UNK        -0.1800 
     87 C          -4.0852  -24.1305  -51.2905 C.2       15 UNK         0.5000 
     88 O          -4.5078  -23.9371  -52.4303 O.2       15 UNK        -0.5000 
     89 N          -3.2657  -23.2895  -50.6521 N.am      16 UNK        -0.5000 
     90 CA         -2.7773  -22.0157  -51.1629 C.3       16 UNK         0.1400 
     91 CB         -1.2357  -22.0818  -51.1889 C.3       16 UNK        -0.1800 
     92 C          -3.3515  -20.8819  -50.2865 C.2       16 UNK         0.5000 
     93 O          -4.5472  -20.8961  -49.9876 O.2       16 UNK        -0.5000 
     94 N          -2.5052  -19.9169  -49.8964 N.am      17 UNK        -0.5000 
     95 CA         -2.7601  -18.7268  -49.0690 C.3       17 UNK         0.1400 
     96 CB         -3.3956  -19.0814  -47.7098 C.3       17 UNK        -0.1800 
     97 C          -3.5821  -17.6293  -49.7662 C.2       17 UNK         0.5000 
     98 O          -3.2331  -16.4545  -49.6478 O.2       17 UNK        -0.5000 
     99 N          -4.6529  -18.0142  -50.4630 N.am      18 UNK        -0.5000 
    100 CA        -5.5522  -17.1272  -51.1854 C.3       18 UNK         0.1400 
    101 CB        -6.6379  -16.5900  -50.2341 C.3       18 UNK        -0.1800 
    102 C         -6.1444  -17.9184  -52.3558 C.2       18 UNK         0.5000 
    103 O         -7.0095  -18.7689  -52.1364 O.2       18 UNK        -0.5000 
    104 N         -5.6433  -17.6386  -53.5670 N.am      19 UNK        -0.5000 
    105 CA        -5.9670  -18.3159  -54.8279 C.3       19 UNK         0.1400 
    106 CB        -7.4283  -18.0289  -55.2422 C.3       19 UNK        -0.1800 
    107 C         -5.6083  -19.8192  -54.7901 C.2       19 UNK         0.5000 
    108 O         -4.6546  -20.1946  -54.1027 O.2       19 UNK        -0.5000 
    109 N         -6.3465  -20.6429  -55.5498 N.am      20 UNK        -0.5000 
    110 CA        -6.1891  -22.0950  -55.6813 C.3       20 UNK         0.1400 
    111 CB        -6.6914  -22.8009  -54.4064 C.3       20 UNK        -0.1800 
    112 C         -4.7561  -22.4702  -56.1140 C.2       20 UNK         0.5000 
    113 O         -4.3861  -22.1547  -57.2472 O.2       20 UNK        -0.5000 
    114 N         -3.9538  -23.0737  -55.2239 N.am      21 UNK        -0.5000 
    115 CA        -2.5498  -23.4106  -55.4855 C.3       21 UNK         0.1400 
    116 CB        -2.0174  -24.3366  -54.3838 C.3       21 UNK        -0.1800 
    117 C         -1.6241  -22.1888  -55.6792 C.2       21 UNK         0.5000 
    118 O         -0.5378  -22.3569  -56.2355 O.2       21 UNK        -0.5000 
    119 N         -2.0622  -20.9865  -55.2723 N.am      22 UNK        -0.5000 
    120 CA        -1.4188  -19.7160  -55.6534 C.3       22 UNK         0.1400 
    121 C         -1.6415  -19.3131  -57.1439 C.2       22 UNK         0.5000 
    122 N         -2.5350  -19.9483  -57.8951 N.am      22 UNK        -0.7600 
    123 O         -0.9813  -18.4011  -57.6338 O.2       22 UNK        -0.5000 
    124 C124       -1.8057  -18.5329  -54.7253 C.3       23 UNK        -0.0398 
    125 S125       -1.4613  -18.7894  -52.9540 S.3       23 UNK        -0.2404 
    126 C126        0.3557  -18.8701  -52.9595 C.3       23 UNK        -0.0205 
    127 H127       -4.8121  -14.1656  -50.2288 H         1 UNK         0.0600 
    128 H128       -5.1512  -12.4633  -50.5311 H         1 UNK         0.0600 
    129 H129       -5.5868  -13.1855  -48.9773 H         1 UNK         0.0600 
    130 H130       -2.8720  -14.7349  -49.2525 H         1 UNK         0.3000 
    131 H131       -0.7475  -12.8647  -49.0759 H         1 UNK         0.0600 
    132 H132       -0.8488  -15.7347  -47.9962 H         1 UNK         0.0800 
    133 H133       -0.5576  -15.3146  -49.6577 H         1 UNK         0.0800 
    134 H134        1.8146  -14.7244  -50.6255 H         1 UNK         0.0800 
    135 H135        3.1971  -15.2517  -49.6983 H         1 UNK         0.0800 
    136 H136        0.9092  -16.4071  -51.9960 H         1 UNK         0.1150 
    137 H137        1.1593  -20.5504  -50.9411 H         1 UNK         0.1150 
    138 H138        2.6553  -17.5657  -48.2558 H         1 UNK         0.1150 
    139 H139        2.1544  -21.2617  -48.9157 H         1 UNK         0.0800 
    140 H140        3.4539  -20.2120  -48.4149 H         1 UNK         0.0800 
    141 H141       -0.7217  -20.0862  -46.5237 H         1 UNK         0.0800 
    142 H142       -0.3389  -20.5244  -48.1698 H         1 UNK         0.0800 
    143 H143        0.4203  -22.7838  -47.3925 H         1 UNK         0.0600 
    144 H144        0.1895  -21.7219  -44.7522 H         1 UNK         0.3000 
    145 H145       -0.0254  -24.8628  -43.0537 H         1 UNK         0.0600 
    146 H146        1.9118  -23.8138  -41.8623 H         1 UNK         0.0600 
    147 H147        2.3885  -24.5345  -43.3921 H         1 UNK         0.0600 
    148 H148        2.2240  -22.7914  -43.2647 H         1 UNK         0.0600 
    149 H149       -0.0080  -22.0438  -42.3302 H         1 UNK         0.3000 
    150 H150       -3.5611  -21.7200  -42.2136 H         1 UNK         0.0600 
    151 H151       -3.0531  -22.9177  -40.0801 H         1 UNK         0.0600 
    152 H152       -3.1407  -21.1814  -39.8318 H         1 UNK         0.0600 
    153 H153       -1.5720  -21.9858  -39.8950 H         1 UNK         0.0600 
    154 H154       -1.4568  -19.9922  -41.3663 H         1 UNK         0.3000 
    155 H155       -0.6495  -18.5468  -44.4901 H         1 UNK         0.0600 
    156 H156       -1.3883  -16.4523  -43.3795 H         1 UNK         0.0600 
    157 H157       -2.3580  -17.3700  -42.2317 H         1 UNK         0.0600 
    158 H158       -2.7756  -17.3692  -43.9430 H         1 UNK         0.0600 
    159 H159        0.1765  -17.7140  -41.9644 H         1 UNK         0.3000 
    160 H160        1.7970  -18.9977  -40.5344 H         1 UNK         0.0600 
    161 H161        3.7814  -20.4093  -42.3967 H         1 UNK         0.0600 
    162 H162        2.8080  -21.1854  -41.1531 H         1 UNK         0.0600 
    163 H163        4.0494  -20.0316  -40.6950 H         1 UNK         0.0600 
    164 H164        3.8153  -17.9709  -42.3664 H         1 UNK         0.3000 
    165 H165        2.6632  -14.7829  -42.7115 H         1 UNK         0.0600 
    166 H166        4.6215  -15.3136  -40.4229 H         1 UNK         0.0600 
    167 H167        4.5524  -13.8363  -41.3841 H         1 UNK         0.0600 
    168 H168        3.1965  -14.2813  -40.3632 H         1 UNK         0.0600 
    169 H169        5.2766  -16.1297  -42.5951 H         1 UNK         0.3000 
    170 H170        3.5192  -15.9525  -46.3120 H         1 UNK         0.0600 
    171 H171        2.2753  -17.7688  -45.0127 H         1 UNK         0.0600 
    172 H172        1.3900  -16.4781  -44.2117 H         1 UNK         0.0600 
    173 H173        1.2920  -16.6612  -45.9500 H         1 UNK         0.0600 
    174 H174        1.8440  -14.2083  -44.8733 H         1 UNK         0.3000 
    175 H175        3.7590  -11.3028  -44.9552 H         1 UNK         0.0600 
    176 H176        1.9398  -11.9637  -47.3249 H         1 UNK         0.0600 
    177 H177        2.2737  -10.3424  -46.7192 H         1 UNK         0.0600 
    178 H178        3.5669  -11.3101  -47.4110 H         1 UNK         0.0600 
    179 H179        0.8981  -11.8703  -45.0469 H         1 UNK         0.3000 
    180 H180        0.5602  -12.7374  -41.7157 H         1 UNK         0.0600 
    181 H181       -0.6808  -10.6715  -41.1310 H         1 UNK         0.0600 
    182 H182        1.0464  -10.3627  -41.0951 H         1 UNK         0.0600 
    183 H183        0.0880   -9.8010  -42.4594 H         1 UNK         0.0600 
    184 H184       -1.4209  -11.5666  -43.3324 H         1 UNK         0.3000 
    185 H185       -2.7311  -14.4340  -44.3195 H         1 UNK         0.0600 
    186 H186       -3.4427  -12.1837  -43.5250 H         1 UNK         0.0600 
    187 H187       -2.7738  -11.4353  -44.9781 H         1 UNK         0.0600 
    188 H188       -4.1359  -12.5393  -45.0936 H         1 UNK         0.0600 
    189 H189       -2.5204  -14.6387  -46.5234 H         1 UNK         0.3000 
    190 H190       -2.4662  -21.8473  -45.4371 H         1 UNK         0.3000 
    191 H191       -4.4121  -22.5148  -47.3678 H         1 UNK         0.0600 
    192 H192       -5.9733  -22.5097  -45.4228 H         1 UNK         0.0600 
    193 H193       -4.8850  -21.1312  -45.3716 H         1 UNK         0.0600 
    194 H194       -4.6095  -22.5127  -44.3114 H         1 UNK         0.0600 
    195 H195       -2.8886  -24.5632  -44.8326 H         1 UNK         0.3000 
    196 H196       -4.3636  -26.9329  -45.3339 H         1 UNK         0.0600 
    197 H197       -2.4803  -28.0417  -44.1246 H         1 UNK         0.0600 
    198 H198       -3.0034  -26.5855  -43.2936 H         1 UNK         0.0600 
    199 H199       -1.5212  -26.5727  -44.2478 H         1 UNK         0.0600 
    200 H200       -1.6219  -25.5230  -47.0433 H         1 UNK         0.3000 
    201 H201       -1.1822  -27.8483  -48.7778 H         1 UNK         0.0600 
    202 H202        0.7071  -26.3769  -48.0324 H         1 UNK         0.0600 
    203 H203       -0.0184  -25.0159  -48.8833 H         1 UNK         0.0600 
    204 H204        0.5516  -26.4143  -49.7810 H         1 UNK         0.0600 
    205 H205       -3.6966  -25.7697  -48.6201 H         1 UNK         0.3000 
    206 H206       -5.3418  -25.1061  -49.8983 H         1 UNK         0.0600 
    207 H207       -5.2757  -27.4181  -50.8766 H         1 UNK         0.0600 
    208 H208       -5.8765  -26.2189  -52.0097 H         1 UNK         0.0600 
    209 H209       -4.2379  -26.8275  -52.1754 H         1 UNK         0.0600 
    210 H210       -2.9553  -23.5170  -49.7113 H         1 UNK         0.3000 
    211 H211       -3.1327  -21.8461  -52.1815 H         1 UNK         0.0600 
    212 H212       -0.7963  -21.9999  -50.1951 H         1 UNK         0.0600 
    213 H213       -0.8242  -21.2926  -51.8115 H         1 UNK         0.0600 
    214 H214       -0.8833  -23.0228  -51.6098 H         1 UNK         0.0600 
    215 H215       -1.5703  -19.9603  -50.2763 H         1 UNK         0.3000 
    216 H216       -1.7752  -18.3009  -48.8687 H         1 UNK         0.0600 
    217 H217       -3.3912  -18.2184  -47.0431 H         1 UNK         0.0600 
    218 H218       -2.8577  -19.8792  -47.2074 H         1 UNK         0.0600 
    219 H219       -4.4323  -19.4028  -47.8132 H         1 UNK         0.0600 
    220 H220       -4.8714  -19.0062  -50.5050 H         1 UNK         0.3000 
    221 H221       -4.9894  -16.2808  -51.5850 H         1 UNK         0.0600 
    222 H222       -7.2257  -17.3974  -49.7957 H         1 UNK         0.0600 
    223 H223       -6.2013  -16.0185  -49.4152 H         1 UNK         0.0600 
    224 H224       -7.3260  -15.9297  -50.7629 H         1 UNK         0.0600 
    225 H225       -4.9044  -16.9529  -53.6260 H         1 UNK         0.3000 
    226 H226       -5.3181  -17.8721  -55.5840 H         1 UNK         0.0600 
    227 H227       -7.6469  -16.9622  -55.1898 H         1 UNK         0.0600 
    228 H228       -7.6197  -18.3393  -56.2698 H         1 UNK         0.0600 
    229 H229       -8.1430  -18.5448  -54.5999 H         1 UNK         0.0600 
    230 H230       -7.0839  -20.2364  -56.1073 H         1 UNK         0.3000 
    231 H231       -6.8369  -22.4085  -56.5012 H         1 UNK         0.0600 
    232 H232       -6.5075  -23.8754  -54.4425 H         1 UNK         0.0600 
    233 H233       -7.7663  -22.6639  -54.2893 H         1 UNK         0.0600 
    234 H234       -6.2182  -22.4041  -53.5088 H         1 UNK         0.0600 
    235 H235       -4.3022  -23.2776  -54.2902 H         1 UNK         0.3000 
    236 H236       -2.5235  -23.9723  -56.4216 H         1 UNK         0.0600 
    237 H237       -2.6370  -25.2273  -54.2776 H         1 UNK         0.0600 
    238 H238       -1.0030  -24.6698  -54.6062 H         1 UNK         0.0600 
    239 H239       -1.9900  -23.8319  -53.4214 H         1 UNK         0.0600 
    240 H240       -2.9650  -20.9094  -54.8126 H         1 UNK         0.3000 
    241 H241       -0.3416  -19.8584  -55.5548 H         1 UNK         0.0600 
    242 H242       -3.0923  -20.7156  -57.5332 H         1 UNK         0.3800 
    243 H243       -2.6511  -19.6686  -58.8561 H         1 UNK         0.3800 
    244 H244       -1.2839  -17.6233  -55.0283 H         1 UNK         0.0800 
    245 H245       -2.8673  -18.3092  -54.8269 H         1 UNK         0.0800 
    246 H246        0.7518  -18.1858  -53.7114 H         1 UNK         0.0800 
    247 H247        0.6714  -19.8698  -53.2616 H         1 UNK         0.0800 
@<TRIPOS>BOND
     1    1    2 1    
     2    1  127 1    
     3    1  128 1    
     4    1  129 1    
     5    2    3 2    
     6    2    4 am   BACKBONE|DICT|INTERRES
     7    4    5 1    
     8    4  130 1    
     9    5    6 1    
    10    5   65 1    
    11    5  131 1    
    12    6    7 1    
    13    6  132 1    
    14    6  133 1    
    15    7    8 1    
    16    8    9 1    
    17    8  134 1    
    18    8  135 1    
    19    9   10 ar   
    20    9   14 ar   
    21   10   11 ar   
    22   10  136 1    
    23   11   12 ar   
    24   11  126 1    
    25   12   13 ar   
    26   12  137 1    
    27   13   14 ar   
    28   13   15 1    
    29   14  138 1    
    30   15   16 1    
    31   15  139 1    
    32   15  140 1    
    33   16   17 1    
    34   17   18 1    
    35   17  141 1    
    36   17  142 1    
    37   18   19 1    
    38   18   67 1    
    39   18  143 1    
    40   19   20 am   BACKBONE|DICT|INTERRES
    41   19  144 1    
    42   20   21 2    
    43   20   22 1    
    44   22   23 1    
    45   22   24 1    
    46   22  145 1    
    47   23  146 1    
    48   23  147 1    
    49   23  148 1    
    50   24   25 am   BACKBONE|DICT|INTERRES
    51   24  149 1    
    52   25   26 2    
    53   25   27 1    
    54   27   28 1    
    55   27   29 1    
    56   27  150 1    
    57   28  151 1    
    58   28  152 1    
    59   28  153 1    
    60   29   30 am   BACKBONE|DICT|INTERRES
    61   29  154 1    
    62   30   31 2    
    63   30   32 1    
    64   32   33 1    
    65   32   34 1    
    66   32  155 1    
    67   33  156 1    
    68   33  157 1    
    69   33  158 1    
    70   34   35 am   BACKBONE|DICT|INTERRES
    71   34  159 1    
    72   35   36 2    
    73   35   37 1    
    74   37   38 1    
    75   37   39 1    
    76   37  160 1    
    77   38  161 1    
    78   38  162 1    
    79   38  163 1    
    80   39   40 am   BACKBONE|DICT|INTERRES
    81   39  164 1    
    82   40   41 2    
    83   40   42 1    
    84   42   43 1    
    85   42   44 1    
    86   42  165 1    
    87   43  166 1    
    88   43  167 1    
    89   43  168 1    
    90   44   45 am   BACKBONE|DICT|INTERRES
    91   44  169 1    
    92   45   46 2    
    93   45   47 1    
    94   47   48 1    
    95   47   49 1    
    96   47  170 1    
    97   48  171 1    
    98   48  172 1    
    99   48  173 1    
   100   49   50 am   BACKBONE|DICT|INTERRES
   101   49  174 1    
   102   50   51 2    
   103   50   52 1    
   104   52   53 1    
   105   52   54 1    
   106   52  175 1    
   107   53  176 1    
   108   53  177 1    
   109   53  178 1    
   110   54   55 am   BACKBONE|DICT|INTERRES
   111   54  179 1    
   112   55   56 2    
   113   55   57 1    
   114   57   58 1    
   115   57   59 1    
   116   57  180 1    
   117   58  181 1    
   118   58  182 1    
   119   58  183 1    
   120   59   60 am   BACKBONE|DICT|INTERRES
   121   59  184 1    
   122   60   61 2    
   123   60   62 1    
   124   62   63 1    
   125   62   64 1    
   126   62  185 1    
   127   63  186 1    
   128   63  187 1    
   129   63  188 1    
   130   64   65 am   BACKBONE|DICT|INTERRES
   131   64  189 1    
   132   65   66 2    
   133   67   68 2    
   134   67   69 am   BACKBONE|DICT|INTERRES
   135   69   70 1    
   136   69  190 1    
   137   70   71 1    
   138   70   72 1    
   139   70  191 1    
   140   71  192 1    
   141   71  193 1    
   142   71  194 1    
   143   72   73 2    
   144   72   74 am   BACKBONE|DICT|INTERRES
   145   74   75 1    
   146   74  195 1    
   147   75   76 1    
   148   75   77 1    
   149   75  196 1    
   150   76  197 1    
   151   76  198 1    
   152   76  199 1    
   153   77   78 2    
   154   77   79 am   BACKBONE|DICT|INTERRES
   155   79   80 1    
   156   79  200 1    
   157   80   81 1    
   158   80   82 1    
   159   80  201 1    
   160   81  202 1    
   161   81  203 1    
   162   81  204 1    
   163   82   83 2    
   164   82   84 am   BACKBONE|DICT|INTERRES
   165   84   85 1    
   166   84  205 1    
   167   85   86 1    
   168   85   87 1    
   169   85  206 1    
   170   86  207 1    
   171   86  208 1    
   172   86  209 1    
   173   87   88 2    
   174   87   89 am   BACKBONE|DICT|INTERRES
   175   89   90 1    
   176   89  210 1    
   177   90   91 1    
   178   90   92 1    
   179   90  211 1    
   180   91  212 1    
   181   91  213 1    
   182   91  214 1    
   183   92   93 2    
   184   92   94 am   BACKBONE|DICT|INTERRES
   185   94   95 1    
   186   94  215 1    
   187   95   96 1    
   188   95   97 1    
   189   95  216 1    
   190   96  217 1    
   191   96  218 1    
   192   96  219 1    
   193   97   98 2    
   194   97   99 am   BACKBONE|DICT|INTERRES
   195   99  100 1    
   196   99  220 1    
   197  100  101 1    
   198  100  102 1    
   199  100  221 1    
   200  101  222 1    
   201  101  223 1    
   202  101  224 1    
   203  102  103 2    
   204  102  104 am   BACKBONE|DICT|INTERRES
   205  104  105 1    
   206  104  225 1    
   207  105  106 1    
   208  105  107 1    
   209  105  226 1    
   210  106  227 1    
   211  106  228 1    
   212  106  229 1    
   213  107  108 2    
   214  107  109 am   BACKBONE|DICT|INTERRES
   215  109  110 1    
   216  109  230 1    
   217  110  111 1    
   218  110  112 1    
   219  110  231 1    
   220  111  232 1    
   221  111  233 1    
   222  111  234 1    
   223  112  113 2    
   224  112  114 am   BACKBONE|DICT|INTERRES
   225  114  115 1    
   226  114  235 1    
   227  115  116 1    
   228  115  117 1    
   229  115  236 1    
   230  116  237 1    
   231  116  238 1    
   232  116  239 1    
   233  117  118 2    
   234  117  119 am   BACKBONE|DICT|INTERRES
   235  119  120 1    
   236  119  240 1    
   237  120  121 1    
   238  120  124 1    
   239  120  241 1    
   240  121  122 am   BACKBONE|DICT|INTERRES
   241  121  123 2    
   242  122  242 1    
   243  122  243 1    
   244  124  125 1    
   245  124  244 1    
   246  124  245 1    
   247  125  126 1    
   248  126  246 1    
   249  126  247 1    
@<TRIPOS>SUBSTRUCTURE
     1 UNK         1 GROUP             0       ****    0 ROOT    
