@<TRIPOS>MOLECULE
3R540
247   249    1
SMALL
USER_CHARGES


@<TRIPOS>ATOM
      1 CA         -2.5664  -14.3310  -43.7905 C.3       0 UNK        -0.1800 
      2 C          -2.5112  -12.8988  -44.3036 C.2       0 UNK         0.5000 
      3 O          -3.0890  -12.0018  -43.6904 O.2       0 UNK        -0.5000 
      4 N          -1.8135  -12.6836  -45.4257 N.am      1 UNK        -0.5000 
      5 CA         -1.6316  -11.3775  -46.0811 C.3       1 UNK         0.1400 
      6 C6         -1.1031  -11.5200  -47.5318 C.3       23 UNK        -0.0398 
      7 S7         -2.1840  -12.5467  -48.5788 S.3       23 UNK        -0.2404 
      8 C8         -1.3201  -14.1466  -48.4761 C.3       23 UNK        -0.0205 
      9 C9         -2.2484  -15.3098  -48.7773 C.ar      23 UNK        -0.0193 
     10 C10        -1.9465  -16.2012  -49.8092 C.ar      23 UNK        -0.1150 
     11 C11        -2.7748  -17.2968  -50.0597 C.ar      23 UNK        -0.0193 
     12 C12        -3.9112  -17.4978  -49.2712 C.ar      23 UNK        -0.1150 
     13 C13        -4.2262  -16.6131  -48.2345 C.ar      23 UNK        -0.0193 
     14 C14        -3.3915  -15.5174  -47.9980 C.ar      23 UNK        -0.1150 
     15 C15        -5.4734  -16.8492  -47.3857 C.3       23 UNK        -0.0205 
     16 S16        -5.1902  -16.8188  -45.5757 S.3       23 UNK        -0.2404 
     17 C17        -3.5980  -17.6802  -45.3268 C.3       23 UNK        -0.0398 
     18 CA         -3.4726  -19.0585  -46.0214 C.3       11 UNK         0.1400 
     19 N          -2.0958  -19.3185  -46.4304 N.am      11 UNK        -0.5000 
     20 C          -1.7296  -20.1931  -47.3745 C.2       10 UNK         0.5000 
     21 O          -2.5203  -20.8728  -48.0321 O.2       10 UNK        -0.5000 
     22 CA         -0.2143  -20.3567  -47.5916 C.3       10 UNK         0.1400 
     23 CB          0.3029  -19.2976  -48.5753 C.3       10 UNK        -0.1800 
     24 N           0.5503  -20.2787  -46.3435 N.am      10 UNK        -0.5000 
     25 C           0.4109  -21.1390  -45.3240 C.2       9 UNK         0.5000 
     26 O          -0.3563  -22.1001  -45.3423 O.2       9 UNK        -0.5000 
     27 CA          1.2255  -20.8612  -44.0521 C.3       9 UNK         0.1400 
     28 CB          2.6629  -21.3761  -44.2154 C.3       9 UNK        -0.1800 
     29 N           1.2345  -19.4495  -43.6634 N.am      9 UNK        -0.5000 
     30 C           0.1478  -18.7369  -43.3297 C.2       8 UNK         0.5000 
     31 O          -0.9976  -19.1871  -43.3491 O.2       8 UNK        -0.5000 
     32 CA          0.3688  -17.2624  -42.9463 C.3       8 UNK         0.1400 
     33 CB          0.9768  -17.1368  -41.5415 C.3       8 UNK        -0.1800 
     34 N           1.2142  -16.5600  -43.9071 N.am      8 UNK        -0.5000 
     35 C           0.8841  -16.3358  -45.1862 C.2       7 UNK         0.5000 
     36 O          -0.1982  -16.6439  -45.6857 O.2       7 UNK        -0.5000 
     37 CA          1.9703  -15.6931  -46.0629 C.3       7 UNK         0.1400 
     38 CB          2.0252  -14.1718  -45.8412 C.3       7 UNK        -0.1800 
     39 N           3.2884  -16.2786  -45.8118 N.am      7 UNK        -0.5000 
     40 C           3.6236  -17.5453  -46.1000 C.2       6 UNK         0.5000 
     41 O           2.8613  -18.3557  -46.6280 O.2       6 UNK        -0.5000 
     42 CA          5.0405  -17.9900  -45.6941 C.3       6 UNK         0.1400 
     43 CB          6.0739  -17.5265  -46.7316 C.3       6 UNK        -0.1800 
     44 N           5.4301  -17.5049  -44.3687 N.am      6 UNK        -0.5000 
     45 C           4.8483  -17.8889  -43.2238 C.2       5 UNK         0.5000 
     46 O           3.9215  -18.6930  -43.1639 O.2       5 UNK        -0.5000 
     47 CA          5.3550  -17.2346  -41.9280 C.3       5 UNK         0.1400 
     48 CB          6.5860  -17.9801  -41.3915 C.3       5 UNK        -0.1800 
     49 N           5.6700  -15.8123  -42.0714 N.am      5 UNK        -0.5000 
     50 C           4.7930  -14.8684  -42.4358 C.2       4 UNK         0.5000 
     51 O           3.6338  -15.1019  -42.7893 O.2       4 UNK        -0.5000 
     52 CA          5.3183  -13.4217  -42.4367 C.3       4 UNK         0.1400 
     53 CB          5.6677  -12.9857  -43.8683 C.3       4 UNK        -0.1800 
     54 N           4.3463  -12.4827  -41.8812 N.am      4 UNK        -0.5000 
     55 C           3.8439  -12.5116  -40.6376 C.2       3 UNK         0.5000 
     56 O           4.2215  -13.2983  -39.7678 O.2       3 UNK        -0.5000 
     57 CA          2.7489  -11.4769  -40.2939 C.3       3 UNK         0.1400 
     58 CB          3.2685  -10.4601  -39.2644 C.3       3 UNK        -0.1800 
     59 N           2.2423  -10.7447  -41.4594 N.am      3 UNK        -0.5000 
     60 C           1.4465  -11.2641  -42.4015 C.2       2 UNK         0.5000 
     61 O           1.0009  -12.4147  -42.3686 O.2       2 UNK        -0.5000 
     62 CA          1.1366  -10.3538  -43.5980 C.3       2 UNK         0.1400 
     63 CB          2.4031  -10.0713  -44.4300 C.3       2 UNK        -0.1800 
     64 N           0.1495  -11.0214  -44.4316 N.am      2 UNK        -0.5000 
     65 C          -0.6956  -10.4403  -45.2877 C.2       1 UNK         0.5000 
     66 O          -0.7447   -9.2246  -45.4802 O.2       1 UNK        -0.5000 
     67 C          -4.0375  -20.2089  -45.1684 C.2       11 UNK         0.5000 
     68 O          -5.1568  -20.6537  -45.4221 O.2       11 UNK        -0.5000 
     69 N          -3.2386  -20.7141  -44.2167 N.am      12 UNK        -0.5000 
     70 CA         -3.5692  -21.8593  -43.3634 C.3       12 UNK         0.1400 
     71 CB         -2.4840  -22.0262  -42.2896 C.3       12 UNK        -0.1800 
     72 C          -3.7570  -23.1677  -44.1552 C.2       12 UNK         0.5000 
     73 O          -4.6557  -23.9478  -43.8395 O.2       12 UNK        -0.5000 
     74 N          -2.9345  -23.3609  -45.1947 N.am      13 UNK        -0.5000 
     75 CA         -3.0295  -24.4642  -46.1517 C.3       13 UNK         0.1400 
     76 CB         -1.6760  -24.6157  -46.8647 C.3       13 UNK        -0.1800 
     77 C          -4.1566  -24.2849  -47.1889 C.2       13 UNK         0.5000 
     78 O          -4.3920  -25.2055  -47.9725 O.2       13 UNK        -0.5000 
     79 N          -4.8026  -23.1084  -47.2123 N.am      14 UNK        -0.5000 
     80 CA         -5.8620  -22.6927  -48.1361 C.3       14 UNK         0.1400 
     81 CB         -7.1596  -23.4783  -47.8554 C.3       14 UNK        -0.1800 
     82 C          -5.4131  -22.7768  -49.6078 C.2       14 UNK         0.5000 
     83 O          -6.1045  -23.3755  -50.4336 O.2       14 UNK        -0.5000 
     84 N          -4.2246  -22.2217  -49.8925 N.am      15 UNK        -0.5000 
     85 CA         -3.5375  -22.2540  -51.1884 C.3       15 UNK         0.1400 
     86 CB         -4.3360  -21.4591  -52.2400 C.3       15 UNK        -0.1800 
     87 C          -3.2062  -23.6913  -51.6444 C.2       15 UNK         0.5000 
     88 O          -3.3397  -24.0128  -52.8279 O.2       15 UNK        -0.5000 
     89 N          -2.8095  -24.5284  -50.6730 N.am      16 UNK        -0.5000 
     90 CA         -2.5725  -25.9723  -50.7763 C.3       16 UNK         0.1400 
     91 CB         -1.3542  -26.2667  -51.6757 C.3       16 UNK        -0.1800 
     92 C          -3.8462  -26.7190  -51.2179 C.2       16 UNK         0.5000 
     93 O          -3.8183  -27.4662  -52.1947 O.2       16 UNK        -0.5000 
     94 N          -4.9601  -26.4437  -50.5230 N.am      17 UNK        -0.5000 
     95 CA         -6.3266  -26.8767  -50.8450 C.3       17 UNK         0.1400 
     96 CB         -6.4941  -28.3852  -50.5708 C.3       17 UNK        -0.1800 
     97 C          -6.7454  -26.4689  -52.2765 C.2       17 UNK         0.5000 
     98 O          -7.2990  -27.2775  -53.0234 O.2       17 UNK        -0.5000 
     99 N          -6.4166  -25.2194  -52.6320 N.am      18 UNK        -0.5000 
    100 CA        -6.5744  -24.5631  -53.9329 C.3       18 UNK         0.1400 
    101 CB        -8.0640  -24.4613  -54.3197 C.3       18 UNK        -0.1800 
    102 C         -5.7135  -25.1404  -55.0797 C.2       18 UNK         0.5000 
    103 O         -5.8737  -24.6918  -56.2159 O.2       18 UNK        -0.5000 
    104 N         -4.8084  -26.0908  -54.7992 N.am      19 UNK        -0.5000 
    105 CA        -3.9578  -26.7232  -55.8110 C.3       19 UNK         0.1400 
    106 CB        -3.4185  -28.0612  -55.2847 C.3       19 UNK        -0.1800 
    107 C         -2.7970  -25.8248  -56.2728 C.2       19 UNK         0.5000 
    108 O         -2.4142  -25.8979  -57.4415 O.2       19 UNK        -0.5000 
    109 N         -2.2559  -24.9990  -55.3653 N.am      20 UNK        -0.5000 
    110 CA        -1.1792  -24.0531  -55.6712 C.3       20 UNK         0.1400 
    111 CB        -0.3111  -23.8335  -54.4221 C.3       20 UNK        -0.1800 
    112 C         -1.7238  -22.7113  -56.1883 C.2       20 UNK         0.5000 
    113 O         -1.0045  -21.9985  -56.8904 O.2       20 UNK        -0.5000 
    114 N         -2.9692  -22.3795  -55.8094 N.am      21 UNK        -0.5000 
    115 CA        -3.7326  -21.1826  -56.1954 C.3       21 UNK         0.1400 
    116 CB        -4.1458  -21.2772  -57.6778 C.3       21 UNK        -0.1800 
    117 C         -3.0258  -19.8475  -55.8599 C.2       21 UNK         0.5000 
    118 O         -3.2608  -18.8386  -56.5268 O.2       21 UNK        -0.5000 
    119 N         -2.1615  -19.8823  -54.8365 N.am      22 UNK        -0.5000 
    120 CA        -1.2786  -18.7942  -54.3839 C.3       22 UNK         0.1400 
    121 C         -0.1294  -18.4446  -55.3800 C.2       22 UNK         0.5000 
    122 N          0.1859  -19.2892  -56.3563 N.am      22 UNK        -0.7600 
    123 O          0.5130  -17.4059  -55.2504 O.2       22 UNK        -0.5000 
    124 C124       -2.0374  -17.5328  -53.8744 C.3       23 UNK        -0.0398 
    125 S125       -3.3724  -17.9080  -52.6853 S.3       23 UNK        -0.2404 
    126 C126       -2.4354  -18.2750  -51.1695 C.3       23 UNK        -0.0205 
    127 H127       -3.6016  -14.6619  -43.7075 H         1 UNK         0.0600 
    128 H128       -2.1046  -14.3949  -42.8052 H         1 UNK         0.0600 
    129 H129       -2.0436  -15.0185  -44.4549 H         1 UNK         0.0600 
    130 H130       -1.3896  -13.4693  -45.8934 H         1 UNK         0.3000 
    131 H131       -2.6080  -10.8901  -46.1245 H         1 UNK         0.0600 
    132 H132       -1.0367  -10.5386  -48.0053 H         1 UNK         0.0800 
    133 H133       -0.0899  -11.9263  -47.5442 H         1 UNK         0.0800 
    134 H134       -0.4714  -14.1325  -49.1618 H         1 UNK         0.0800 
    135 H135       -0.9067  -14.2995  -47.4801 H         1 UNK         0.0800 
    136 H136       -1.0627  -16.0490  -50.4127 H         1 UNK         0.1150 
    137 H137       -4.5480  -18.3490  -49.4679 H         1 UNK         0.1150 
    138 H138       -3.6256  -14.8303  -47.1970 H         1 UNK         0.1150 
    139 H139       -6.2091  -16.0829  -47.6324 H         1 UNK         0.0800 
    140 H140       -5.9380  -17.8021  -47.6437 H         1 UNK         0.0800 
    141 H141       -3.3991  -17.7542  -44.2560 H         1 UNK         0.0800 
    142 H142       -2.8300  -17.0058  -45.7051 H         1 UNK         0.0800 
    143 H143       -4.0623  -19.0520  -46.9363 H         1 UNK         0.0600 
    144 H144       -1.3737  -18.8030  -45.9440 H         1 UNK         0.3000 
    145 H145       -0.0456  -21.3435  -48.0272 H         1 UNK         0.0600 
    146 H146       -0.2196  -19.3656  -49.5290 H         1 UNK         0.0600 
    147 H147        0.1611  -18.2863  -48.1905 H         1 UNK         0.0600 
    148 H148        1.3654  -19.4326  -48.7781 H         1 UNK         0.0600 
    149 H149        1.2290  -19.5270  -46.2683 H         1 UNK         0.3000 
    150 H150        0.7612  -21.4200  -43.2374 H         1 UNK         0.0600 
    151 H151        2.6725  -22.4231  -44.5214 H         1 UNK         0.0600 
    152 H152        3.2136  -21.3097  -43.2771 H         1 UNK         0.0600 
    153 H153        3.2104  -20.8077  -44.9680 H         1 UNK         0.0600 
    154 H154        2.1516  -19.0145  -43.5913 H         1 UNK         0.3000 
    155 H155       -0.6066  -16.7716  -42.9377 H         1 UNK         0.0600 
    156 H156        0.3492  -17.6304  -40.7987 H         1 UNK         0.0600 
    157 H157        1.0713  -16.0911  -41.2471 H         1 UNK         0.0600 
    158 H158        1.9680  -17.5876  -41.4879 H         1 UNK         0.0600 
    159 H159        2.1155  -16.2338  -43.5727 H         1 UNK         0.3000 
    160 H160        1.7095  -15.8783  -47.1072 H         1 UNK         0.0600 
    161 H161        2.2818  -13.9192  -44.8117 H         1 UNK         0.0600 
    162 H162        1.0621  -13.7102  -46.0571 H         1 UNK         0.0600 
    163 H163        2.7619  -13.7038  -46.4941 H         1 UNK         0.0600 
    164 H164        3.9561  -15.7014  -45.3228 H         1 UNK         0.3000 
    165 H165        5.0503  -19.0818  -45.6696 H         1 UNK         0.0600 
    166 H166        7.0670  -17.9104  -46.4973 H         1 UNK         0.0600 
    167 H167        5.8144  -17.8868  -47.7281 H         1 UNK         0.0600 
    168 H168        6.1374  -16.4388  -46.7819 H         1 UNK         0.0600 
    169 H169        6.1819  -16.8330  -44.3265 H         1 UNK         0.3000 
    170 H170        4.5575  -17.3195  -41.1869 H         1 UNK         0.0600 
    171 H171        6.3721  -19.0416  -41.2585 H         1 UNK         0.0600 
    172 H172        7.4352  -17.8990  -42.0711 H         1 UNK         0.0600 
    173 H173        6.8929  -17.5886  -40.4214 H         1 UNK         0.0600 
    174 H174        6.6052  -15.5346  -41.8107 H         1 UNK         0.3000 
    175 H175        6.2201  -13.3685  -41.8235 H         1 UNK         0.0600 
    176 H176        4.7909  -12.9945  -44.5174 H         1 UNK         0.0600 
    177 H177        6.0857  -11.9790  -43.8837 H         1 UNK         0.0600 
    178 H178        6.4102  -13.6511  -44.3105 H         1 UNK         0.0600 
    179 H179        3.9591  -11.8096  -42.5232 H         1 UNK         0.3000 
    180 H180        1.9184  -12.0245  -39.8434 H         1 UNK         0.0600 
    181 H181        4.1028   -9.8789  -39.6590 H         1 UNK         0.0600 
    182 H182        3.6162  -10.9603  -38.3595 H         1 UNK         0.0600 
    183 H183        2.4841   -9.7641  -38.9662 H         1 UNK         0.0600 
    184 H184        2.5632   -9.7920  -41.5595 H         1 UNK         0.3000 
    185 H185        0.7217   -9.4179  -43.2179 H         1 UNK         0.0600 
    186 H186        3.1614   -9.5549  -43.8408 H         1 UNK         0.0600 
    187 H187        2.8483  -10.9930  -44.8075 H         1 UNK         0.0600 
    188 H188        2.1794   -9.4361  -45.2871 H         1 UNK         0.0600 
    189 H189        0.0731  -12.0154  -44.2556 H         1 UNK         0.3000 
    190 H190       -2.3419  -20.2658  -44.0414 H         1 UNK         0.3000 
    191 H191       -4.5134  -21.6369  -42.8620 H         1 UNK         0.0600 
    192 H192       -1.5106  -22.2377  -42.7326 H         1 UNK         0.0600 
    193 H193       -2.3869  -21.1256  -41.6829 H         1 UNK         0.0600 
    194 H194       -2.7243  -22.8492  -41.6154 H         1 UNK         0.0600 
    195 H195       -2.1665  -22.7092  -45.3363 H         1 UNK         0.3000 
    196 H196       -3.2331  -25.3863  -45.6038 H         1 UNK         0.0600 
    197 H197       -0.8703  -24.7779  -46.1485 H         1 UNK         0.0600 
    198 H198       -1.4290  -23.7286  -47.4496 H         1 UNK         0.0600 
    199 H199       -1.6793  -25.4697  -47.5424 H         1 UNK         0.0600 
    200 H200       -4.5377  -22.4112  -46.5279 H         1 UNK         0.3000 
    201 H201       -6.0589  -21.6392  -47.9329 H         1 UNK         0.0600 
    202 H202       -7.9806  -23.1085  -48.4708 H         1 UNK         0.0600 
    203 H203       -7.4629  -23.3750  -46.8136 H         1 UNK         0.0600 
    204 H204       -7.0457  -24.5419  -48.0673 H         1 UNK         0.0600 
    205 H205       -3.7102  -21.7660  -49.1396 H         1 UNK         0.3000 
    206 H206       -2.5804  -21.7514  -51.0442 H         1 UNK         0.0600 
    207 H207       -4.5757  -20.4603  -51.8791 H         1 UNK         0.0600 
    208 H208       -5.2768  -21.9439  -52.4929 H         1 UNK         0.0600 
    209 H209       -3.7671  -21.3494  -53.1600 H         1 UNK         0.0600 
    210 H210       -2.7857  -24.1582  -49.7344 H         1 UNK         0.3000 
    211 H211       -2.3374  -26.3263  -49.7720 H         1 UNK         0.0600 
    212 H212       -0.4778  -25.7058  -51.3515 H         1 UNK         0.0600 
    213 H213       -1.0950  -27.3253  -51.6424 H         1 UNK         0.0600 
    214 H214       -1.5478  -26.0148  -52.7178 H         1 UNK         0.0600 
    215 H215       -4.8711  -25.8364  -49.7117 H         1 UNK         0.3000 
    216 H216       -6.9886  -26.3382  -50.1653 H         1 UNK         0.0600 
    217 H217       -7.5319  -28.6931  -50.7024 H         1 UNK         0.0600 
    218 H218       -5.8853  -28.9897  -51.2440 H         1 UNK         0.0600 
    219 H219       -6.2096  -28.6327  -49.5482 H         1 UNK         0.0600 
    220 H220       -6.0135  -24.6305  -51.9075 H         1 UNK         0.3000 
    221 H221       -6.2120  -23.5463  -53.7900 H         1 UNK         0.0600 
    222 H222       -8.4902  -25.4367  -54.5549 H         1 UNK         0.0600 
    223 H223       -8.6513  -24.0227  -53.5129 H         1 UNK         0.0600 
    224 H224       -8.1995  -23.8280  -55.1971 H         1 UNK         0.0600 
    225 H225       -4.6962  -26.4093  -53.8433 H         1 UNK         0.3000 
    226 H226       -4.5766  -26.9406  -56.6844 H         1 UNK         0.0600 
    227 H227       -4.2214  -28.6914  -54.9013 H         1 UNK         0.0600 
    228 H228       -2.9189  -28.6160  -56.0796 H         1 UNK         0.0600 
    229 H229       -2.6907  -27.9168  -54.4859 H         1 UNK         0.0600 
    230 H230       -2.6516  -24.9559  -54.4304 H         1 UNK         0.3000 
    231 H231       -0.5368  -24.4699  -56.4499 H         1 UNK         0.0600 
    232 H232        0.5215  -23.1636  -54.6410 H         1 UNK         0.0600 
    233 H233        0.1155  -24.7723  -54.0693 H         1 UNK         0.0600 
    234 H234       -0.8765  -23.3911  -53.6028 H         1 UNK         0.0600 
    235 H235       -3.4527  -23.0331  -55.2090 H         1 UNK         0.3000 
    236 H236       -4.6453  -21.1975  -55.5982 H         1 UNK         0.0600 
    237 H237       -4.6606  -22.2163  -57.8822 H         1 UNK         0.0600 
    238 H238       -4.8271  -20.4702  -57.9497 H         1 UNK         0.0600 
    239 H239       -3.2826  -21.2163  -58.3414 H         1 UNK         0.0600 
    240 H240       -2.0285  -20.7679  -54.3739 H         1 UNK         0.3000 
    241 H241       -0.7545  -19.2105  -53.5237 H         1 UNK         0.0600 
    242 H242        0.9372  -19.0550  -56.9856 H         1 UNK         0.3800 
    243 H243       -0.3179  -20.1609  -56.4851 H         1 UNK         0.3800 
    244 H244       -1.3468  -16.8315  -53.4031 H         1 UNK         0.0800 
    245 H245       -2.4800  -16.9958  -54.7143 H         1 UNK         0.0800 
    246 H246       -2.6657  -19.2886  -50.8413 H         1 UNK         0.0800 
    247 H247       -1.3635  -18.2591  -51.3687 H         1 UNK         0.0800 
@<TRIPOS>BOND
     1    1    2 1    
     2    1  127 1    
     3    1  128 1    
     4    1  129 1    
     5    2    3 2    
     6    2    4 am   BACKBONE|DICT|INTERRES
     7    4    5 1    
     8    4  130 1    
     9    5    6 1    
    10    5   65 1    
    11    5  131 1    
    12    6    7 1    
    13    6  132 1    
    14    6  133 1    
    15    7    8 1    
    16    8    9 1    
    17    8  134 1    
    18    8  135 1    
    19    9   10 ar   
    20    9   14 ar   
    21   10   11 ar   
    22   10  136 1    
    23   11   12 ar   
    24   11  126 1    
    25   12   13 ar   
    26   12  137 1    
    27   13   14 ar   
    28   13   15 1    
    29   14  138 1    
    30   15   16 1    
    31   15  139 1    
    32   15  140 1    
    33   16   17 1    
    34   17   18 1    
    35   17  141 1    
    36   17  142 1    
    37   18   19 1    
    38   18   67 1    
    39   18  143 1    
    40   19   20 am   BACKBONE|DICT|INTERRES
    41   19  144 1    
    42   20   21 2    
    43   20   22 1    
    44   22   23 1    
    45   22   24 1    
    46   22  145 1    
    47   23  146 1    
    48   23  147 1    
    49   23  148 1    
    50   24   25 am   BACKBONE|DICT|INTERRES
    51   24  149 1    
    52   25   26 2    
    53   25   27 1    
    54   27   28 1    
    55   27   29 1    
    56   27  150 1    
    57   28  151 1    
    58   28  152 1    
    59   28  153 1    
    60   29   30 am   BACKBONE|DICT|INTERRES
    61   29  154 1    
    62   30   31 2    
    63   30   32 1    
    64   32   33 1    
    65   32   34 1    
    66   32  155 1    
    67   33  156 1    
    68   33  157 1    
    69   33  158 1    
    70   34   35 am   BACKBONE|DICT|INTERRES
    71   34  159 1    
    72   35   36 2    
    73   35   37 1    
    74   37   38 1    
    75   37   39 1    
    76   37  160 1    
    77   38  161 1    
    78   38  162 1    
    79   38  163 1    
    80   39   40 am   BACKBONE|DICT|INTERRES
    81   39  164 1    
    82   40   41 2    
    83   40   42 1    
    84   42   43 1    
    85   42   44 1    
    86   42  165 1    
    87   43  166 1    
    88   43  167 1    
    89   43  168 1    
    90   44   45 am   BACKBONE|DICT|INTERRES
    91   44  169 1    
    92   45   46 2    
    93   45   47 1    
    94   47   48 1    
    95   47   49 1    
    96   47  170 1    
    97   48  171 1    
    98   48  172 1    
    99   48  173 1    
   100   49   50 am   BACKBONE|DICT|INTERRES
   101   49  174 1    
   102   50   51 2    
   103   50   52 1    
   104   52   53 1    
   105   52   54 1    
   106   52  175 1    
   107   53  176 1    
   108   53  177 1    
   109   53  178 1    
   110   54   55 am   BACKBONE|DICT|INTERRES
   111   54  179 1    
   112   55   56 2    
   113   55   57 1    
   114   57   58 1    
   115   57   59 1    
   116   57  180 1    
   117   58  181 1    
   118   58  182 1    
   119   58  183 1    
   120   59   60 am   BACKBONE|DICT|INTERRES
   121   59  184 1    
   122   60   61 2    
   123   60   62 1    
   124   62   63 1    
   125   62   64 1    
   126   62  185 1    
   127   63  186 1    
   128   63  187 1    
   129   63  188 1    
   130   64   65 am   BACKBONE|DICT|INTERRES
   131   64  189 1    
   132   65   66 2    
   133   67   68 2    
   134   67   69 am   BACKBONE|DICT|INTERRES
   135   69   70 1    
   136   69  190 1    
   137   70   71 1    
   138   70   72 1    
   139   70  191 1    
   140   71  192 1    
   141   71  193 1    
   142   71  194 1    
   143   72   73 2    
   144   72   74 am   BACKBONE|DICT|INTERRES
   145   74   75 1    
   146   74  195 1    
   147   75   76 1    
   148   75   77 1    
   149   75  196 1    
   150   76  197 1    
   151   76  198 1    
   152   76  199 1    
   153   77   78 2    
   154   77   79 am   BACKBONE|DICT|INTERRES
   155   79   80 1    
   156   79  200 1    
   157   80   81 1    
   158   80   82 1    
   159   80  201 1    
   160   81  202 1    
   161   81  203 1    
   162   81  204 1    
   163   82   83 2    
   164   82   84 am   BACKBONE|DICT|INTERRES
   165   84   85 1    
   166   84  205 1    
   167   85   86 1    
   168   85   87 1    
   169   85  206 1    
   170   86  207 1    
   171   86  208 1    
   172   86  209 1    
   173   87   88 2    
   174   87   89 am   BACKBONE|DICT|INTERRES
   175   89   90 1    
   176   89  210 1    
   177   90   91 1    
   178   90   92 1    
   179   90  211 1    
   180   91  212 1    
   181   91  213 1    
   182   91  214 1    
   183   92   93 2    
   184   92   94 am   BACKBONE|DICT|INTERRES
   185   94   95 1    
   186   94  215 1    
   187   95   96 1    
   188   95   97 1    
   189   95  216 1    
   190   96  217 1    
   191   96  218 1    
   192   96  219 1    
   193   97   98 2    
   194   97   99 am   BACKBONE|DICT|INTERRES
   195   99  100 1    
   196   99  220 1    
   197  100  101 1    
   198  100  102 1    
   199  100  221 1    
   200  101  222 1    
   201  101  223 1    
   202  101  224 1    
   203  102  103 2    
   204  102  104 am   BACKBONE|DICT|INTERRES
   205  104  105 1    
   206  104  225 1    
   207  105  106 1    
   208  105  107 1    
   209  105  226 1    
   210  106  227 1    
   211  106  228 1    
   212  106  229 1    
   213  107  108 2    
   214  107  109 am   BACKBONE|DICT|INTERRES
   215  109  110 1    
   216  109  230 1    
   217  110  111 1    
   218  110  112 1    
   219  110  231 1    
   220  111  232 1    
   221  111  233 1    
   222  111  234 1    
   223  112  113 2    
   224  112  114 am   BACKBONE|DICT|INTERRES
   225  114  115 1    
   226  114  235 1    
   227  115  116 1    
   228  115  117 1    
   229  115  236 1    
   230  116  237 1    
   231  116  238 1    
   232  116  239 1    
   233  117  118 2    
   234  117  119 am   BACKBONE|DICT|INTERRES
   235  119  120 1    
   236  119  240 1    
   237  120  121 1    
   238  120  124 1    
   239  120  241 1    
   240  121  122 am   BACKBONE|DICT|INTERRES
   241  121  123 2    
   242  122  242 1    
   243  122  243 1    
   244  124  125 1    
   245  124  244 1    
   246  124  245 1    
   247  125  126 1    
   248  126  246 1    
   249  126  247 1    
@<TRIPOS>SUBSTRUCTURE
     1 UNK         1 GROUP             0       ****    0 ROOT    
