@<TRIPOS>MOLECULE
3R540
247   249    1
SMALL
USER_CHARGES


@<TRIPOS>ATOM
      1 CA         -5.1061   -8.7639  -42.9475 C.3       0 UNK        -0.1800 
      2 C          -4.3244   -8.5205  -44.2311 C.2       0 UNK         0.5000 
      3 O          -3.9090   -7.3904  -44.4906 O.2       0 UNK        -0.5000 
      4 N          -4.1320   -9.5718  -45.0362 N.am      1 UNK        -0.5000 
      5 CA         -3.3433   -9.5529  -46.2715 C.3       1 UNK         0.1400 
      6 C6         -3.8024  -10.6708  -47.2470 C.3       23 UNK        -0.0398 
      7 S7         -3.4881  -12.3756  -46.6680 S.3       23 UNK        -0.2404 
      8 C8         -4.1631  -13.3258  -48.0646 C.3       23 UNK        -0.0205 
      9 C9         -3.6691  -14.7626  -48.0346 C.ar      23 UNK        -0.0193 
     10 C10        -2.4581  -15.0926  -48.6485 C.ar      23 UNK        -0.1150 
     11 C11        -1.9747  -16.4021  -48.6041 C.ar      23 UNK        -0.0193 
     12 C12        -2.7316  -17.3903  -47.9714 C.ar      23 UNK        -0.1150 
     13 C13        -3.9317  -17.0722  -47.3269 C.ar      23 UNK        -0.0193 
     14 C14        -4.3993  -15.7542  -47.3710 C.ar      23 UNK        -0.1150 
     15 C15        -4.6698  -18.1197  -46.4988 C.3       23 UNK        -0.0205 
     16 S16        -4.9084  -19.7009  -47.3719 S.3       23 UNK        -0.2404 
     17 C17        -5.3407  -20.8169  -45.9909 C.3       23 UNK        -0.0398 
     18 CA         -4.7541  -22.2329  -46.2012 C.3       11 UNK         0.1400 
     19 N          -3.2867  -22.2459  -46.2151 N.am      11 UNK        -0.5000 
     20 C          -2.5483  -23.2748  -46.6552 C.2       10 UNK         0.5000 
     21 O          -3.0357  -24.3087  -47.1159 O.2       10 UNK        -0.5000 
     22 CA         -1.0176  -23.1598  -46.5273 C.3       10 UNK         0.1400 
     23 CB         -0.4321  -22.6134  -47.8376 C.3       10 UNK        -0.1800 
     24 N          -0.5589  -22.3267  -45.4112 N.am      10 UNK        -0.5000 
     25 C          -0.8727  -22.4960  -44.1152 C.2       9 UNK         0.5000 
     26 O          -1.5936  -23.4036  -43.7024 O.2       9 UNK        -0.5000 
     27 CA         -0.3548  -21.4420  -43.1141 C.3       9 UNK         0.1400 
     28 CB          0.9715  -21.9024  -42.4930 C.3       9 UNK        -0.1800 
     29 N          -0.1740  -20.1165  -43.7089 N.am      9 UNK        -0.5000 
     30 C          -1.1348  -19.4213  -44.3321 C.2       8 UNK         0.5000 
     31 O          -2.3177  -19.7648  -44.3447 O.2       8 UNK        -0.5000 
     32 CA         -0.7076  -18.1857  -45.1455 C.3       8 UNK         0.1400 
     33 CB         -1.2388  -16.8882  -44.5195 C.3       8 UNK        -0.1800 
     34 N           0.7246  -18.0479  -45.4318 N.am      8 UNK        -0.5000 
     35 C           1.4975  -18.9258  -46.0919 C.2       7 UNK         0.5000 
     36 O           1.1038  -20.0351  -46.4538 O.2       7 UNK        -0.5000 
     37 CA          2.9483  -18.5021  -46.4009 C.3       7 UNK         0.1400 
     38 CB          3.1614  -18.4005  -47.9184 C.3       7 UNK        -0.1800 
     39 N           3.2920  -17.2153  -45.7925 N.am      7 UNK        -0.5000 
     40 C           3.7818  -17.0539  -44.5577 C.2       6 UNK         0.5000 
     41 O           4.0755  -17.9943  -43.8177 O.2       6 UNK        -0.5000 
     42 CA          3.9166  -15.5988  -44.0585 C.3       6 UNK         0.1400 
     43 CB          4.7979  -15.4692  -42.7979 C.3       6 UNK        -0.1800 
     44 N           4.3408  -14.6504  -45.0961 N.am      6 UNK        -0.5000 
     45 C           5.5154  -14.6224  -45.7435 C.2       5 UNK         0.5000 
     46 O           6.4152  -15.4490  -45.5831 O.2       5 UNK        -0.5000 
     47 CA          5.6978  -13.4440  -46.7236 C.3       5 UNK         0.1400 
     48 CB          7.0552  -13.4561  -47.4594 C.3       5 UNK        -0.1800 
     49 N           4.5772  -13.3288  -47.6635 N.am      5 UNK        -0.5000 
     50 C           4.2247  -14.2086  -48.6144 C.2       4 UNK         0.5000 
     51 O           4.8508  -15.2374  -48.8727 O.2       4 UNK        -0.5000 
     52 CA          2.9245  -13.8749  -49.3796 C.3       4 UNK         0.1400 
     53 CB          2.4702  -15.0002  -50.3303 C.3       4 UNK        -0.1800 
     54 N           1.8298  -13.4712  -48.4867 N.am      4 UNK        -0.5000 
     55 C           1.3686  -14.1275  -47.4101 C.2       3 UNK         0.5000 
     56 O           1.7614  -15.2433  -47.0720 O.2       3 UNK        -0.5000 
     57 CA          0.3002  -13.4221  -46.5491 C.3       3 UNK         0.1400 
     58 CB          0.5644  -13.6104  -45.0397 C.3       3 UNK        -0.1800 
     59 N           0.0979  -11.9997  -46.8556 N.am      3 UNK        -0.5000 
     60 C           0.9739  -10.9918  -46.7114 C.2       2 UNK         0.5000 
     61 O           2.1546  -11.1529  -46.3971 O.2       2 UNK        -0.5000 
     62 CA          0.4537   -9.5643  -46.9914 C.3       2 UNK         0.1400 
     63 CB          1.0276   -9.0393  -48.3169 C.3       2 UNK        -0.1800 
     64 N          -1.0104   -9.4585  -47.0373 N.am      2 UNK        -0.5000 
     65 C          -1.8229   -9.5978  -45.9793 C.2       1 UNK         0.5000 
     66 O          -1.4088   -9.7891  -44.8323 O.2       1 UNK        -0.5000 
     67 C          -5.3530  -23.2571  -45.2104 C.2       11 UNK         0.5000 
     68 O          -6.4978  -23.6687  -45.4004 O.2       11 UNK        -0.5000 
     69 N          -4.5704  -23.6780  -44.2068 N.am      12 UNK        -0.5000 
     70 CA         -4.9243  -24.7331  -43.2618 C.3       12 UNK         0.1400 
     71 CB         -4.6562  -24.2407  -41.8299 C.3       12 UNK        -0.1800 
     72 C          -4.1287  -26.0144  -43.5589 C.2       12 UNK         0.5000 
     73 O          -4.7276  -27.0741  -43.7415 O.2       12 UNK        -0.5000 
     74 N          -2.7946  -25.8964  -43.6065 N.am      13 UNK        -0.5000 
     75 CA         -1.8467  -27.0113  -43.6681 C.3       13 UNK         0.1400 
     76 CB         -0.4326  -26.4796  -43.3864 C.3       13 UNK        -0.1800 
     77 C          -1.8665  -27.7893  -44.9943 C.2       13 UNK         0.5000 
     78 O          -1.6129  -28.9945  -44.9868 O.2       13 UNK        -0.5000 
     79 N          -2.1683  -27.0954  -46.0976 N.am      14 UNK        -0.5000 
     80 CA         -2.2710  -27.6655  -47.4419 C.3       14 UNK         0.1400 
     81 CB         -1.2575  -26.9608  -48.3608 C.3       14 UNK        -0.1800 
     82 C          -3.7052  -27.5490  -47.9879 C.2       14 UNK         0.5000 
     83 O          -3.9026  -27.6992  -49.1936 O.2       14 UNK        -0.5000 
     84 N          -4.6763  -27.2422  -47.1113 N.am      15 UNK        -0.5000 
     85 CA         -6.1059  -27.0563  -47.3965 C.3       15 UNK         0.1400 
     86 CB         -6.7648  -28.4192  -47.6917 C.3       15 UNK        -0.1800 
     87 C          -6.3931  -26.0085  -48.4971 C.2       15 UNK         0.5000 
     88 O          -7.3763  -26.1359  -49.2283 O.2       15 UNK        -0.5000 
     89 N          -5.5062  -25.0085  -48.6054 N.am      16 UNK        -0.5000 
     90 CA         -5.4790  -23.9367  -49.6019 C.3       16 UNK         0.1400 
     91 CB         -6.7620  -23.0793  -49.5538 C.3       16 UNK        -0.1800 
     92 C          -5.1225  -24.3916  -51.0325 C.2       16 UNK         0.5000 
     93 O          -5.2583  -23.5912  -51.9582 O.2       16 UNK        -0.5000 
     94 N          -4.6218  -25.6252  -51.2071 N.am      17 UNK        -0.5000 
     95 CA         -4.1414  -26.1261  -52.4985 C.3       17 UNK         0.1400 
     96 CB         -3.9907  -27.6540  -52.4504 C.3       17 UNK        -0.1800 
     97 C          -2.8179  -25.4546  -52.9050 C.2       17 UNK         0.5000 
     98 O          -2.6863  -24.9930  -54.0386 O.2       17 UNK        -0.5000 
     99 N          -1.8795  -25.3634  -51.9508 N.am      18 UNK        -0.5000 
    100 CA        -0.5990  -24.6696  -52.1202 C.3       18 UNK         0.1400 
    101 CB         0.3877  -25.1445  -51.0437 C.3       18 UNK        -0.1800 
    102 C         -0.7461  -23.1357  -52.0899 C.2       18 UNK         0.5000 
    103 O          0.0954  -22.4335  -52.6503 O.2       18 UNK        -0.5000 
    104 N         -1.8343  -22.6397  -51.4806 N.am      19 UNK        -0.5000 
    105 CA        -2.1784  -21.2168  -51.3990 C.3       19 UNK         0.1400 
    106 CB        -3.2562  -20.9992  -50.3285 C.3       19 UNK        -0.1800 
    107 C         -2.6033  -20.5972  -52.7470 C.2       19 UNK         0.5000 
    108 O         -2.7580  -19.3804  -52.8266 O.2       19 UNK        -0.5000 
    109 N         -2.7253  -21.4107  -53.8066 N.am      20 UNK        -0.5000 
    110 CA        -2.8578  -20.9555  -55.1936 C.3       20 UNK         0.1400 
    111 CB        -3.0513  -22.1772  -56.1034 C.3       20 UNK        -0.1800 
    112 C         -1.6556  -20.1085  -55.6691 C.2       20 UNK         0.5000 
    113 O         -1.8198  -19.2555  -56.5421 O.2       20 UNK        -0.5000 
    114 N         -0.4818  -20.3227  -55.0542 N.am      21 UNK        -0.5000 
    115 CA         0.7355  -19.5370  -55.2591 C.3       21 UNK         0.1400 
    116 CB         1.9207  -20.2995  -54.6469 C.3       21 UNK        -0.1800 
    117 C          0.6631  -18.1055  -54.6837 C.2       21 UNK         0.5000 
    118 O          1.4960  -17.2764  -55.0526 O.2       21 UNK        -0.5000 
    119 N         -0.3083  -17.8296  -53.8007 N.am      22 UNK        -0.5000 
    120 CA        -0.5333  -16.5080  -53.1883 C.3       22 UNK         0.1400 
    121 C         -1.1505  -15.4514  -54.1531 C.2       22 UNK         0.5000 
    122 N         -1.6414  -15.8235  -55.3301 N.am      22 UNK        -0.7600 
    123 O         -1.1778  -14.2675  -53.8289 O.2       22 UNK        -0.5000 
    124 C124       -1.3709  -16.5999  -51.8853 C.3       23 UNK        -0.0398 
    125 S125       -0.6757  -17.7635  -50.6598 S.3       23 UNK        -0.2404 
    126 C126       -0.6011  -16.7329  -49.1673 C.3       23 UNK        -0.0205 
    127 H127       -5.4209   -9.8037  -42.8555 H         1 UNK         0.0600 
    128 H128       -5.9968   -8.1359  -42.9251 H         1 UNK         0.0600 
    129 H129       -4.4914   -8.5171  -42.0818 H         1 UNK         0.0600 
    130 H130       -4.4632  -10.4829  -44.7523 H         1 UNK         0.3000 
    131 H131       -3.5327   -8.5997  -46.7701 H         1 UNK         0.0600 
    132 H132       -3.3243  -10.5424  -48.2192 H         1 UNK         0.0800 
    133 H133       -4.8720  -10.5675  -47.4365 H         1 UNK         0.0800 
    134 H134       -3.8706  -12.8593  -49.0066 H         1 UNK         0.0800 
    135 H135       -5.2533  -13.2967  -48.0309 H         1 UNK         0.0800 
    136 H136       -1.8786  -14.3206  -49.1350 H         1 UNK         0.1150 
    137 H137       -2.3619  -18.4054  -47.9476 H         1 UNK         0.1150 
    138 H138       -5.3180  -15.4909  -46.8660 H         1 UNK         0.1150 
    139 H139       -4.0967  -18.2872  -45.5876 H         1 UNK         0.0800 
    140 H140       -5.6463  -17.7473  -46.1858 H         1 UNK         0.0800 
    141 H141       -6.4299  -20.8534  -45.9299 H         1 UNK         0.0800 
    142 H142       -4.9920  -20.4011  -45.0443 H         1 UNK         0.0800 
    143 H143       -5.0803  -22.5598  -47.1858 H         1 UNK         0.0600 
    144 H144       -2.8255  -21.4342  -45.8235 H         1 UNK         0.3000 
    145 H145       -0.6292  -24.1675  -46.3683 H         1 UNK         0.0600 
    146 H146        0.6569  -22.6617  -47.8345 H         1 UNK         0.0600 
    147 H147       -0.7825  -23.1871  -48.6952 H         1 UNK         0.0600 
    148 H148       -0.7196  -21.5742  -48.0035 H         1 UNK         0.0600 
    149 H149        0.0302  -21.5385  -45.6643 H         1 UNK         0.3000 
    150 H150       -1.0975  -21.3520  -42.3189 H         1 UNK         0.0600 
    151 H151        0.8640  -22.8818  -42.0244 H         1 UNK         0.0600 
    152 H152        1.3080  -21.2094  -41.7216 H         1 UNK         0.0600 
    153 H153        1.7604  -21.9812  -43.2422 H         1 UNK         0.0600 
    154 H154        0.7719  -19.7691  -43.7647 H         1 UNK         0.3000 
    155 H155       -1.1883  -18.3140  -46.1091 H         1 UNK         0.0600 
    156 H156       -0.6806  -16.6131  -43.6242 H         1 UNK         0.0600 
    157 H157       -2.2880  -16.9840  -44.2370 H         1 UNK         0.0600 
    158 H158       -1.1809  -16.0641  -45.2301 H         1 UNK         0.0600 
    159 H159        1.1404  -17.1579  -45.2030 H         1 UNK         0.3000 
    160 H160        3.6105  -19.2796  -46.0152 H         1 UNK         0.0600 
    161 H161        2.4742  -17.6850  -48.3679 H         1 UNK         0.0600 
    162 H162        2.9954  -19.3629  -48.4040 H         1 UNK         0.0600 
    163 H163        4.1773  -18.0845  -48.1564 H         1 UNK         0.0600 
    164 H164        3.0154  -16.3919  -46.3236 H         1 UNK         0.3000 
    165 H165        2.9089  -15.2945  -43.7735 H         1 UNK         0.0600 
    166 H166        5.8154  -15.8184  -42.9754 H         1 UNK         0.0600 
    167 H167        4.8521  -14.4346  -42.4590 H         1 UNK         0.0600 
    168 H168        4.3913  -16.0570  -41.9742 H         1 UNK         0.0600 
    169 H169        3.6644  -13.9400  -45.3351 H         1 UNK         0.3000 
    170 H170        5.6736  -12.5394  -46.1140 H         1 UNK         0.0600 
    171 H171        7.8808  -13.4030  -46.7489 H         1 UNK         0.0600 
    172 H172        7.1949  -14.3618  -48.0498 H         1 UNK         0.0600 
    173 H173        7.1484  -12.6011  -48.1288 H         1 UNK         0.0600 
    174 H174        3.9696  -12.5328  -47.5161 H         1 UNK         0.3000 
    175 H175        3.1540  -13.0041  -49.9954 H         1 UNK         0.0600 
    176 H176        2.2628  -15.9234  -49.7925 H         1 UNK         0.0600 
    177 H177        1.5710  -14.7171  -50.8773 H         1 UNK         0.0600 
    178 H178        3.2406  -15.2218  -51.0695 H         1 UNK         0.0600 
    179 H179        1.4423  -12.5555  -48.6611 H         1 UNK         0.3000 
    180 H180       -0.6412  -13.9214  -46.7786 H         1 UNK         0.0600 
    181 H181        1.4880  -13.1268  -44.7222 H         1 UNK         0.0600 
    182 H182        0.6482  -14.6635  -44.7749 H         1 UNK         0.0600 
    183 H183       -0.2504  -13.1940  -44.4472 H         1 UNK         0.0600 
    184 H184       -0.8413  -11.7535  -47.1337 H         1 UNK         0.3000 
    185 H185        0.8169   -8.9248  -46.1843 H         1 UNK         0.0600 
    186 H186        0.6873   -9.6321  -49.1669 H         1 UNK         0.0600 
    187 H187        0.7352   -8.0036  -48.4906 H         1 UNK         0.0600 
    188 H188        2.1181   -9.0689  -48.3116 H         1 UNK         0.0600 
    189 H189       -1.4123   -9.2846  -47.9474 H         1 UNK         0.3000 
    190 H190       -3.6248  -23.3192  -44.1433 H         1 UNK         0.3000 
    191 H191       -5.9858  -24.9788  -43.3344 H         1 UNK         0.0600 
    192 H192       -4.8844  -25.0182  -41.0998 H         1 UNK         0.0600 
    193 H193       -5.2787  -23.3783  -41.5910 H         1 UNK         0.0600 
    194 H194       -3.6153  -23.9484  -41.6860 H         1 UNK         0.0600 
    195 H195       -2.3784  -24.9726  -43.5006 H         1 UNK         0.3000 
    196 H196       -2.1094  -27.7128  -42.8736 H         1 UNK         0.0600 
    197 H197       -0.1114  -25.7686  -44.1487 H         1 UNK         0.0600 
    198 H198       -0.3843  -25.9778  -42.4198 H         1 UNK         0.0600 
    199 H199        0.2949  -27.2921  -43.3678 H         1 UNK         0.0600 
    200 H200       -2.3865  -26.1100  -46.0189 H         1 UNK         0.3000 
    201 H201       -2.0312  -28.7303  -47.4319 H         1 UNK         0.0600 
    202 H202       -1.4991  -25.9071  -48.4938 H         1 UNK         0.0600 
    203 H203       -1.2368  -27.4216  -49.3491 H         1 UNK         0.0600 
    204 H204       -0.2476  -27.0238  -47.9556 H         1 UNK         0.0600 
    205 H205       -4.4131  -27.1491  -46.1395 H         1 UNK         0.3000 
    206 H206       -6.5507  -26.6616  -46.4816 H         1 UNK         0.0600 
    207 H207       -6.5655  -29.1339  -46.8933 H         1 UNK         0.0600 
    208 H208       -7.8479  -28.3233  -47.7752 H         1 UNK         0.0600 
    209 H209       -6.4000  -28.8487  -48.6255 H         1 UNK         0.0600 
    210 H210       -4.7135  -25.0138  -47.9703 H         1 UNK         0.3000 
    211 H211       -4.6505  -23.2995  -49.2975 H         1 UNK         0.0600 
    212 H212       -6.6367  -22.1572  -50.1224 H         1 UNK         0.0600 
    213 H213       -7.0182  -22.7959  -48.5332 H         1 UNK         0.0600 
    214 H214       -7.6170  -23.6062  -49.9779 H         1 UNK         0.0600 
    215 H215       -4.5296  -26.2507  -50.4120 H         1 UNK         0.3000 
    216 H216       -4.8885  -25.8879  -53.2588 H         1 UNK         0.0600 
    217 H217       -3.2153  -27.9656  -51.7500 H         1 UNK         0.0600 
    218 H218       -3.7209  -28.0478  -53.4310 H         1 UNK         0.0600 
    219 H219       -4.9233  -28.1332  -52.1517 H         1 UNK         0.0600 
    220 H220       -2.0638  -25.7789  -51.0498 H         1 UNK         0.3000 
    221 H221       -0.1863  -24.9384  -53.0951 H         1 UNK         0.0600 
    222 H222        0.5359  -26.2234  -51.0922 H         1 UNK         0.0600 
    223 H223        0.0451  -24.8975  -50.0403 H         1 UNK         0.0600 
    224 H224        1.3643  -24.6774  -51.1782 H         1 UNK         0.0600 
    225 H225       -2.4962  -23.2902  -51.0884 H         1 UNK         0.3000 
    226 H226       -1.2811  -20.6861  -51.0753 H         1 UNK         0.0600 
    227 H227       -4.2205  -21.3965  -50.6421 H         1 UNK         0.0600 
    228 H228       -2.9815  -21.4599  -49.3798 H         1 UNK         0.0600 
    229 H229       -3.3956  -19.9340  -50.1382 H         1 UNK         0.0600 
    230 H230       -2.6134  -22.4051  -53.6668 H         1 UNK         0.3000 
    231 H231       -3.7503  -20.3299  -55.2583 H         1 UNK         0.0600 
    232 H232       -2.1926  -22.8487  -56.0621 H         1 UNK         0.0600 
    233 H233       -3.1836  -21.8744  -57.1429 H         1 UNK         0.0600 
    234 H234       -3.9349  -22.7474  -55.8155 H         1 UNK         0.0600 
    235 H235       -0.4318  -21.0403  -54.3409 H         1 UNK         0.3000 
    236 H236        0.9049  -19.4483  -56.3341 H         1 UNK         0.0600 
    237 H237        2.0146  -21.2969  -55.0768 H         1 UNK         0.0600 
    238 H238        2.8603  -19.7769  -54.8306 H         1 UNK         0.0600 
    239 H239        1.8116  -20.4087  -53.5670 H         1 UNK         0.0600 
    240 H240       -0.9764  -18.5471  -53.5459 H         1 UNK         0.3000 
    241 H241        0.4460  -16.1149  -52.9084 H         1 UNK         0.0600 
    242 H242       -2.0334  -15.1289  -55.9464 H         1 UNK         0.3800 
    243 H243       -1.6257  -16.7925  -55.6117 H         1 UNK         0.3800 
    244 H244       -2.3933  -16.9086  -52.1061 H         1 UNK         0.0800 
    245 H245       -1.4530  -15.6126  -51.4285 H         1 UNK         0.0800 
    246 H246       -0.0543  -15.8191  -49.3922 H         1 UNK         0.0800 
    247 H247       -0.0211  -17.2554  -48.4055 H         1 UNK         0.0800 
@<TRIPOS>BOND
     1    1    2 1    
     2    1  127 1    
     3    1  128 1    
     4    1  129 1    
     5    2    3 2    
     6    2    4 am   BACKBONE|DICT|INTERRES
     7    4    5 1    
     8    4  130 1    
     9    5    6 1    
    10    5   65 1    
    11    5  131 1    
    12    6    7 1    
    13    6  132 1    
    14    6  133 1    
    15    7    8 1    
    16    8    9 1    
    17    8  134 1    
    18    8  135 1    
    19    9   10 ar   
    20    9   14 ar   
    21   10   11 ar   
    22   10  136 1    
    23   11   12 ar   
    24   11  126 1    
    25   12   13 ar   
    26   12  137 1    
    27   13   14 ar   
    28   13   15 1    
    29   14  138 1    
    30   15   16 1    
    31   15  139 1    
    32   15  140 1    
    33   16   17 1    
    34   17   18 1    
    35   17  141 1    
    36   17  142 1    
    37   18   19 1    
    38   18   67 1    
    39   18  143 1    
    40   19   20 am   BACKBONE|DICT|INTERRES
    41   19  144 1    
    42   20   21 2    
    43   20   22 1    
    44   22   23 1    
    45   22   24 1    
    46   22  145 1    
    47   23  146 1    
    48   23  147 1    
    49   23  148 1    
    50   24   25 am   BACKBONE|DICT|INTERRES
    51   24  149 1    
    52   25   26 2    
    53   25   27 1    
    54   27   28 1    
    55   27   29 1    
    56   27  150 1    
    57   28  151 1    
    58   28  152 1    
    59   28  153 1    
    60   29   30 am   BACKBONE|DICT|INTERRES
    61   29  154 1    
    62   30   31 2    
    63   30   32 1    
    64   32   33 1    
    65   32   34 1    
    66   32  155 1    
    67   33  156 1    
    68   33  157 1    
    69   33  158 1    
    70   34   35 am   BACKBONE|DICT|INTERRES
    71   34  159 1    
    72   35   36 2    
    73   35   37 1    
    74   37   38 1    
    75   37   39 1    
    76   37  160 1    
    77   38  161 1    
    78   38  162 1    
    79   38  163 1    
    80   39   40 am   BACKBONE|DICT|INTERRES
    81   39  164 1    
    82   40   41 2    
    83   40   42 1    
    84   42   43 1    
    85   42   44 1    
    86   42  165 1    
    87   43  166 1    
    88   43  167 1    
    89   43  168 1    
    90   44   45 am   BACKBONE|DICT|INTERRES
    91   44  169 1    
    92   45   46 2    
    93   45   47 1    
    94   47   48 1    
    95   47   49 1    
    96   47  170 1    
    97   48  171 1    
    98   48  172 1    
    99   48  173 1    
   100   49   50 am   BACKBONE|DICT|INTERRES
   101   49  174 1    
   102   50   51 2    
   103   50   52 1    
   104   52   53 1    
   105   52   54 1    
   106   52  175 1    
   107   53  176 1    
   108   53  177 1    
   109   53  178 1    
   110   54   55 am   BACKBONE|DICT|INTERRES
   111   54  179 1    
   112   55   56 2    
   113   55   57 1    
   114   57   58 1    
   115   57   59 1    
   116   57  180 1    
   117   58  181 1    
   118   58  182 1    
   119   58  183 1    
   120   59   60 am   BACKBONE|DICT|INTERRES
   121   59  184 1    
   122   60   61 2    
   123   60   62 1    
   124   62   63 1    
   125   62   64 1    
   126   62  185 1    
   127   63  186 1    
   128   63  187 1    
   129   63  188 1    
   130   64   65 am   BACKBONE|DICT|INTERRES
   131   64  189 1    
   132   65   66 2    
   133   67   68 2    
   134   67   69 am   BACKBONE|DICT|INTERRES
   135   69   70 1    
   136   69  190 1    
   137   70   71 1    
   138   70   72 1    
   139   70  191 1    
   140   71  192 1    
   141   71  193 1    
   142   71  194 1    
   143   72   73 2    
   144   72   74 am   BACKBONE|DICT|INTERRES
   145   74   75 1    
   146   74  195 1    
   147   75   76 1    
   148   75   77 1    
   149   75  196 1    
   150   76  197 1    
   151   76  198 1    
   152   76  199 1    
   153   77   78 2    
   154   77   79 am   BACKBONE|DICT|INTERRES
   155   79   80 1    
   156   79  200 1    
   157   80   81 1    
   158   80   82 1    
   159   80  201 1    
   160   81  202 1    
   161   81  203 1    
   162   81  204 1    
   163   82   83 2    
   164   82   84 am   BACKBONE|DICT|INTERRES
   165   84   85 1    
   166   84  205 1    
   167   85   86 1    
   168   85   87 1    
   169   85  206 1    
   170   86  207 1    
   171   86  208 1    
   172   86  209 1    
   173   87   88 2    
   174   87   89 am   BACKBONE|DICT|INTERRES
   175   89   90 1    
   176   89  210 1    
   177   90   91 1    
   178   90   92 1    
   179   90  211 1    
   180   91  212 1    
   181   91  213 1    
   182   91  214 1    
   183   92   93 2    
   184   92   94 am   BACKBONE|DICT|INTERRES
   185   94   95 1    
   186   94  215 1    
   187   95   96 1    
   188   95   97 1    
   189   95  216 1    
   190   96  217 1    
   191   96  218 1    
   192   96  219 1    
   193   97   98 2    
   194   97   99 am   BACKBONE|DICT|INTERRES
   195   99  100 1    
   196   99  220 1    
   197  100  101 1    
   198  100  102 1    
   199  100  221 1    
   200  101  222 1    
   201  101  223 1    
   202  101  224 1    
   203  102  103 2    
   204  102  104 am   BACKBONE|DICT|INTERRES
   205  104  105 1    
   206  104  225 1    
   207  105  106 1    
   208  105  107 1    
   209  105  226 1    
   210  106  227 1    
   211  106  228 1    
   212  106  229 1    
   213  107  108 2    
   214  107  109 am   BACKBONE|DICT|INTERRES
   215  109  110 1    
   216  109  230 1    
   217  110  111 1    
   218  110  112 1    
   219  110  231 1    
   220  111  232 1    
   221  111  233 1    
   222  111  234 1    
   223  112  113 2    
   224  112  114 am   BACKBONE|DICT|INTERRES
   225  114  115 1    
   226  114  235 1    
   227  115  116 1    
   228  115  117 1    
   229  115  236 1    
   230  116  237 1    
   231  116  238 1    
   232  116  239 1    
   233  117  118 2    
   234  117  119 am   BACKBONE|DICT|INTERRES
   235  119  120 1    
   236  119  240 1    
   237  120  121 1    
   238  120  124 1    
   239  120  241 1    
   240  121  122 am   BACKBONE|DICT|INTERRES
   241  121  123 2    
   242  122  242 1    
   243  122  243 1    
   244  124  125 1    
   245  124  244 1    
   246  124  245 1    
   247  125  126 1    
   248  126  246 1    
   249  126  247 1    
@<TRIPOS>SUBSTRUCTURE
     1 UNK         1 GROUP             0       ****    0 ROOT    
