@<TRIPOS>MOLECULE
3R540
247   249    1
SMALL
USER_CHARGES


@<TRIPOS>ATOM
      1 CA          3.4191   -9.1063  -47.3130 C.3       0 UNK        -0.1800 
      2 C           4.0737  -10.4357  -46.9636 C.2       0 UNK         0.5000 
      3 O           5.3004  -10.5415  -46.9879 O.2       0 UNK        -0.5000 
      4 N           3.2588  -11.4454  -46.6431 N.am      1 UNK        -0.5000 
      5 CA          3.6855  -12.7623  -46.1698 C.3       1 UNK         0.1400 
      6 C6          2.6544  -13.8473  -46.5841 C.3       23 UNK        -0.0398 
      7 S7          3.4070  -15.5069  -46.6975 S.3       23 UNK        -0.2404 
      8 C8          3.7622  -15.6364  -48.4753 C.3       23 UNK        -0.0205 
      9 C9          2.7532  -16.5366  -49.1664 C.ar      23 UNK        -0.0193 
     10 C10         1.5729  -16.0115  -49.6975 C.ar      23 UNK        -0.1150 
     11 C11         0.6445  -16.8400  -50.3354 C.ar      23 UNK        -0.0193 
     12 C12         0.9169  -18.2114  -50.4255 C.ar      23 UNK        -0.1150 
     13 C13         2.1052  -18.7544  -49.9164 C.ar      23 UNK        -0.0193 
     14 C14         3.0110  -17.9037  -49.2809 C.ar      23 UNK        -0.1150 
     15 C15         2.4788  -20.2362  -50.0352 C.3       23 UNK        -0.0205 
     16 S16         1.2224  -21.3324  -50.7811 S.3       23 UNK        -0.2404 
     17 C17        -0.0563  -21.2955  -49.4853 C.3       23 UNK        -0.0398 
     18 CA         -0.3334  -22.6847  -48.8799 C.3       11 UNK         0.1400 
     19 N           0.8434  -23.2928  -48.2575 N.am      11 UNK        -0.5000 
     20 C           0.9267  -24.5938  -47.9471 C.2       10 UNK         0.5000 
     21 O           0.0353  -25.4071  -48.1845 O.2       10 UNK        -0.5000 
     22 CA          2.1966  -25.0670  -47.2185 C.3       10 UNK         0.1400 
     23 CB          3.2457  -25.5495  -48.2311 C.3       10 UNK        -0.1800 
     24 N           2.7961  -24.0484  -46.3561 N.am      10 UNK        -0.5000 
     25 C           2.2011  -23.4725  -45.3026 C.2       9 UNK         0.5000 
     26 O           1.0503  -23.7343  -44.9449 O.2       9 UNK        -0.5000 
     27 CA          3.0229  -22.4265  -44.5174 C.3       9 UNK         0.1400 
     28 CB          4.4188  -22.1395  -45.1179 C.3       9 UNK        -0.1800 
     29 N           2.3060  -21.1632  -44.3192 N.am      9 UNK        -0.5000 
     30 C           1.7765  -20.3740  -45.2641 C.2       8 UNK         0.5000 
     31 O           1.7154  -20.6681  -46.4620 O.2       8 UNK        -0.5000 
     32 CA          1.2399  -19.0208  -44.7696 C.3       8 UNK         0.1400 
     33 CB          2.3830  -18.1193  -44.2707 C.3       8 UNK        -0.1800 
     34 N           0.5399  -18.3334  -45.8513 N.am      8 UNK        -0.5000 
     35 C          -0.6548  -17.7468  -45.7386 C.2       7 UNK         0.5000 
     36 O          -1.3204  -17.7367  -44.7001 O.2       7 UNK        -0.5000 
     37 CA         -1.2175  -17.0979  -47.0166 C.3       7 UNK         0.1400 
     38 CB         -1.8996  -18.1555  -47.8932 C.3       7 UNK        -0.1800 
     39 N          -2.1979  -16.0593  -46.7067 N.am      7 UNK        -0.5000 
     40 C          -1.8962  -14.8583  -46.2023 C.2       6 UNK         0.5000 
     41 O          -0.7434  -14.4503  -46.0453 O.2       6 UNK        -0.5000 
     42 CA         -3.0972  -13.9926  -45.7826 C.3       6 UNK         0.1400 
     43 CB         -3.6851  -14.4817  -44.4493 C.3       6 UNK        -0.1800 
     44 N          -2.7178  -12.5885  -45.6457 N.am      6 UNK        -0.5000 
     45 C          -2.6708  -11.7193  -46.6642 C.2       5 UNK         0.5000 
     46 O          -3.0057  -12.0020  -47.8158 O.2       5 UNK        -0.5000 
     47 CA         -2.1916  -10.2867  -46.3561 C.3       5 UNK         0.1400 
     48 CB         -3.3910   -9.3339  -46.2326 C.3       5 UNK        -0.1800 
     49 N          -1.3876  -10.1906  -45.1378 N.am      5 UNK        -0.5000 
     50 C          -0.1182  -10.6007  -45.0324 C.2       4 UNK         0.5000 
     51 O           0.5248  -11.0762  -45.9696 O.2       4 UNK        -0.5000 
     52 CA          0.5632  -10.4492  -43.6589 C.3       4 UNK         0.1400 
     53 CB         -0.2026   -9.5560  -42.6560 C.3       4 UNK        -0.1800 
     54 N           0.8688  -11.7544  -43.0705 N.am      4 UNK        -0.5000 
     55 C           0.0023  -12.7179  -42.7198 C.2       3 UNK         0.5000 
     56 O          -1.2189  -12.6034  -42.8386 O.2       3 UNK        -0.5000 
     57 CA          0.5988  -14.0202  -42.1370 C.3       3 UNK         0.1400 
     58 CB         -0.2321  -15.2610  -42.5029 C.3       3 UNK        -0.1800 
     59 N           1.9741  -14.2327  -42.5894 N.am      3 UNK        -0.5000 
     60 C           3.0828  -13.9824  -41.8798 C.2       2 UNK         0.5000 
     61 O           3.0791  -13.6182  -40.7040 O.2       2 UNK        -0.5000 
     62 CA          4.4249  -14.1208  -42.6307 C.3       2 UNK         0.1400 
     63 CB          5.0284  -15.5146  -42.4004 C.3       2 UNK        -0.1800 
     64 N           4.3074  -13.8857  -44.0743 N.am      2 UNK        -0.5000 
     65 C           3.9198  -12.7347  -44.6402 C.2       1 UNK         0.5000 
     66 O           3.7015  -11.7106  -43.9868 O.2       1 UNK        -0.5000 
     67 C          -1.5025  -22.6067  -47.8846 C.2       11 UNK         0.5000 
     68 O          -2.6292  -22.9193  -48.2602 O.2       11 UNK        -0.5000 
     69 N          -1.2198  -22.2418  -46.6253 N.am      12 UNK        -0.5000 
     70 CA         -2.2151  -22.2183  -45.5506 C.3       12 UNK         0.1400 
     71 CB         -1.6315  -21.5564  -44.2958 C.3       12 UNK        -0.1800 
     72 C          -2.7678  -23.6201  -45.2363 C.2       12 UNK         0.5000 
     73 O          -3.9774  -23.7694  -45.0542 O.2       12 UNK        -0.5000 
     74 N          -1.8788  -24.6244  -45.2460 N.am      13 UNK        -0.5000 
     75 CA         -2.2224  -26.0425  -45.1219 C.3       13 UNK         0.1400 
     76 CB         -0.9348  -26.8687  -44.9888 C.3       13 UNK        -0.1800 
     77 C          -3.0886  -26.5598  -46.2892 C.2       13 UNK         0.5000 
     78 O          -3.9682  -27.3934  -46.0686 O.2       13 UNK        -0.5000 
     79 N          -2.8691  -26.0242  -47.4979 N.am      14 UNK        -0.5000 
     80 CA         -3.6343  -26.2879  -48.7191 C.3       14 UNK         0.1400 
     81 CB         -2.7519  -25.9552  -49.9326 C.3       14 UNK        -0.1800 
     82 C          -4.9857  -25.5377  -48.7407 C.2       14 UNK         0.5000 
     83 O          -5.2857  -24.8084  -49.6923 O.2       14 UNK        -0.5000 
     84 N          -5.7766  -25.7527  -47.6800 N.am      15 UNK        -0.5000 
     85 CA         -7.1355  -25.2599  -47.4488 C.3       15 UNK         0.1400 
     86 CB         -8.1149  -25.9367  -48.4315 C.3       15 UNK        -0.1800 
     87 C          -7.2322  -23.7219  -47.4663 C.2       15 UNK         0.5000 
     88 O          -8.0790  -23.1709  -48.1690 O.2       15 UNK        -0.5000 
     89 N          -6.3428  -23.0489  -46.7185 N.am      16 UNK        -0.5000 
     90 CA         -6.2223  -21.5850  -46.6322 C.3       16 UNK         0.1400 
     91 CB         -7.4391  -20.9760  -45.9046 C.3       16 UNK        -0.1800 
     92 C          -5.9501  -20.9361  -48.0079 C.2       16 UNK         0.5000 
     93 O          -6.5235  -19.8977  -48.3394 O.2       16 UNK        -0.5000 
     94 N          -5.0941  -21.6067  -48.7882 N.am      17 UNK        -0.5000 
     95 CA         -4.6860  -21.3250  -50.1622 C.3       17 UNK         0.1400 
     96 CB         -3.9705  -19.9665  -50.2780 C.3       17 UNK        -0.1800 
     97 C          -5.7872  -21.5128  -51.2194 C.2       17 UNK         0.5000 
     98 O          -5.5646  -21.1354  -52.3689 O.2       17 UNK        -0.5000 
     99 N          -6.9213  -22.1377  -50.8696 N.am      18 UNK        -0.5000 
    100 CA        -7.9837  -22.4611  -51.8255 C.3       18 UNK         0.1400 
    101 CB        -9.2511  -22.9065  -51.0830 C.3       18 UNK        -0.1800 
    102 C         -7.5557  -23.5267  -52.8517 C.2       18 UNK         0.5000 
    103 O         -7.9900  -23.4575  -54.0023 O.2       18 UNK        -0.5000 
    104 N         -6.7056  -24.4751  -52.4306 N.am      19 UNK        -0.5000 
    105 CA        -6.1562  -25.5100  -53.3061 C.3       19 UNK         0.1400 
    106 CB        -5.9751  -26.8112  -52.5100 C.3       19 UNK        -0.1800 
    107 C         -4.8369  -25.0717  -53.9692 C.2       19 UNK         0.5000 
    108 O         -4.5945  -25.4407  -55.1189 O.2       19 UNK        -0.5000 
    109 N         -4.0058  -24.3038  -53.2477 N.am      20 UNK        -0.5000 
    110 CA        -2.6941  -23.8533  -53.7281 C.3       20 UNK         0.1400 
    111 CB        -1.7811  -23.5347  -52.5326 C.3       20 UNK        -0.1800 
    112 C         -2.7569  -22.6412  -54.6739 C.2       20 UNK         0.5000 
    113 O         -1.8748  -22.4980  -55.5224 O.2       20 UNK        -0.5000 
    114 N         -3.7466  -21.7565  -54.4731 N.am      21 UNK        -0.5000 
    115 CA        -3.9529  -20.4760  -55.1687 C.3       21 UNK         0.1400 
    116 CB        -4.3439  -20.7224  -56.6404 C.3       21 UNK        -0.1800 
    117 C         -2.7715  -19.4857  -55.0286 C.2       21 UNK         0.5000 
    118 O         -2.6358  -18.5752  -55.8477 O.2       21 UNK        -0.5000 
    119 N         -1.9268  -19.7009  -54.0094 N.am      22 UNK        -0.5000 
    120 CA        -0.6261  -19.0444  -53.7901 C.3       22 UNK         0.1400 
    121 C          0.4241  -19.3165  -54.9137 C.2       22 UNK         0.5000 
    122 N          0.2913  -20.3807  -55.6992 N.am      22 UNK        -0.7600 
    123 O          1.3911  -18.5747  -55.0643 O.2       22 UNK        -0.5000 
    124 C124       -0.7506  -17.5396  -53.4110 C.3       23 UNK        -0.0398 
    125 S125       -1.7306  -17.2771  -51.8888 S.3       23 UNK        -0.2404 
    126 C126       -0.6312  -16.2006  -50.8950 C.3       23 UNK        -0.0205 
    127 H127        3.7461   -8.3332  -46.6177 H         1 UNK         0.0600 
    128 H128        3.7001   -8.8022  -48.3212 H         1 UNK         0.0600 
    129 H129        2.3312   -9.1667  -47.2667 H         1 UNK         0.0600 
    130 H130        2.2583  -11.2704  -46.5671 H         1 UNK         0.3000 
    131 H131        4.6424  -12.9976  -46.6410 H         1 UNK         0.0600 
    132 H132        2.2096  -13.6060  -47.5506 H         1 UNK         0.0800 
    133 H133        1.8150  -13.8801  -45.8876 H         1 UNK         0.0800 
    134 H134        4.7665  -16.0443  -48.5997 H         1 UNK         0.0800 
    135 H135        3.7818  -14.6511  -48.9433 H         1 UNK         0.0800 
    136 H136        1.3746  -14.9523  -49.6104 H         1 UNK         0.1150 
    137 H137        0.1985  -18.8574  -50.8961 H         1 UNK         0.1150 
    138 H138        3.9282  -18.3082  -48.8755 H         1 UNK         0.1150 
    139 H139        3.3845  -20.3108  -50.6383 H         1 UNK         0.0800 
    140 H140        2.7368  -20.6214  -49.0475 H         1 UNK         0.0800 
    141 H141        0.2405  -20.5984  -48.7016 H         1 UNK         0.0800 
    142 H142       -0.9621  -20.8881  -49.9368 H         1 UNK         0.0800 
    143 H143       -0.6496  -23.3371  -49.6964 H         1 UNK         0.0600 
    144 H144        1.5978  -22.6719  -47.9994 H         1 UNK         0.3000 
    145 H145        1.9168  -25.9119  -46.5864 H         1 UNK         0.0600 
    146 H146        4.1171  -25.9691  -47.7281 H         1 UNK         0.0600 
    147 H147        2.8368  -26.3298  -48.8747 H         1 UNK         0.0600 
    148 H148        3.5863  -24.7378  -48.8753 H         1 UNK         0.0600 
    149 H149        3.7383  -23.7665  -46.5836 H         1 UNK         0.3000 
    150 H150        3.1733  -22.8528  -43.5247 H         1 UNK         0.0600 
    151 H151        5.0282  -23.0429  -45.1635 H         1 UNK         0.0600 
    152 H152        4.9646  -21.4235  -44.5031 H         1 UNK         0.0600 
    153 H153        4.3543  -21.7228  -46.1240 H         1 UNK         0.0600 
    154 H154        2.2604  -20.8496  -43.3602 H         1 UNK         0.3000 
    155 H155        0.5615  -19.2195  -43.9379 H         1 UNK         0.0600 
    156 H156        2.8686  -18.5430  -43.3913 H         1 UNK         0.0600 
    157 H157        2.0143  -17.1323  -43.9906 H         1 UNK         0.0600 
    158 H158        3.1492  -17.9863  -45.0350 H         1 UNK         0.0600 
    159 H159        0.9975  -18.3817  -46.7519 H         1 UNK         0.3000 
    160 H160       -0.3939  -16.6470  -47.5736 H         1 UNK         0.0600 
    161 H161       -2.6987  -18.6716  -47.3591 H         1 UNK         0.0600 
    162 H162       -1.1836  -18.9067  -48.2189 H         1 UNK         0.0600 
    163 H163       -2.3283  -17.7088  -48.7901 H         1 UNK         0.0600 
    164 H164       -3.1670  -16.3340  -46.7637 H         1 UNK         0.3000 
    165 H165       -3.8709  -14.0832  -46.5483 H         1 UNK         0.0600 
    166 H166       -2.9501  -14.4433  -43.6466 H         1 UNK         0.0600 
    167 H167       -4.5403  -13.8761  -44.1491 H         1 UNK         0.0600 
    168 H168       -4.0290  -15.5139  -44.5250 H         1 UNK         0.0600 
    169 H169       -2.3422  -12.3132  -44.7462 H         1 UNK         0.3000 
    170 H170       -1.5817   -9.9571  -47.2000 H         1 UNK         0.0600 
    171 H171       -4.0002   -9.3528  -47.1373 H         1 UNK         0.0600 
    172 H172       -4.0366   -9.6061  -45.3965 H         1 UNK         0.0600 
    173 H173       -3.0641   -8.3045  -46.0845 H         1 UNK         0.0600 
    174 H174       -1.8476   -9.8257  -44.3164 H         1 UNK         0.3000 
    175 H175        1.5231   -9.9683  -43.8526 H         1 UNK         0.0600 
    176 H176       -1.1715   -9.9718  -42.3784 H         1 UNK         0.0600 
    177 H177        0.3716   -9.4264  -41.7386 H         1 UNK         0.0600 
    178 H178       -0.3730   -8.5605  -43.0680 H         1 UNK         0.0600 
    179 H179        1.8591  -11.9530  -42.9933 H         1 UNK         0.3000 
    180 H180        0.5749  -13.9153  -41.0507 H         1 UNK         0.0600 
    181 H181       -1.2466  -15.1873  -42.1108 H         1 UNK         0.0600 
    182 H182       -0.3017  -15.3915  -43.5821 H         1 UNK         0.0600 
    183 H183        0.2071  -16.1678  -42.0871 H         1 UNK         0.0600 
    184 H184        2.0820  -14.5193  -43.5509 H         1 UNK         0.3000 
    185 H185        5.1105  -13.3753  -42.2229 H         1 UNK         0.0600 
    186 H186        5.1514  -15.7162  -41.3354 H         1 UNK         0.0600 
    187 H187        4.3950  -16.3010  -42.8125 H         1 UNK         0.0600 
    188 H188        6.0125  -15.5998  -42.8616 H         1 UNK         0.0600 
    189 H189        4.4561  -14.6874  -44.6735 H         1 UNK         0.3000 
    190 H190       -0.2596  -22.0465  -46.3744 H         1 UNK         0.3000 
    191 H191       -3.0486  -21.6026  -45.8910 H         1 UNK         0.0600 
    192 H192       -2.3596  -21.5507  -43.4838 H         1 UNK         0.0600 
    193 H193       -1.3656  -20.5198  -44.4937 H         1 UNK         0.0600 
    194 H194       -0.7428  -22.0736  -43.9348 H         1 UNK         0.0600 
    195 H195       -0.8970  -24.3970  -45.3625 H         1 UNK         0.3000 
    196 H196       -2.8003  -26.1634  -44.2035 H         1 UNK         0.0600 
    197 H197       -1.1639  -27.9223  -44.8244 H         1 UNK         0.0600 
    198 H198       -0.3329  -26.5303  -44.1451 H         1 UNK         0.0600 
    199 H199       -0.3200  -26.8043  -45.8861 H         1 UNK         0.0600 
    200 H200       -2.1152  -25.3555  -47.5917 H         1 UNK         0.3000 
    201 H201       -3.8615  -27.3548  -48.7617 H         1 UNK         0.0600 
    202 H202       -1.8151  -26.5115  -49.9050 H         1 UNK         0.0600 
    203 H203       -2.5110  -24.8946  -49.9620 H         1 UNK         0.0600 
    204 H204       -3.2449  -26.2064  -50.8703 H         1 UNK         0.0600 
    205 H205       -5.3999  -26.3558  -46.9551 H         1 UNK         0.3000 
    206 H206       -7.4118  -25.5705  -46.4403 H         1 UNK         0.0600 
    207 H207       -8.0703  -27.0223  -48.3450 H         1 UNK         0.0600 
    208 H208       -9.1443  -25.6385  -48.2293 H         1 UNK         0.0600 
    209 H209       -7.8950  -25.6765  -49.4673 H         1 UNK         0.0600 
    210 H210       -5.6523  -23.5714  -46.1875 H         1 UNK         0.3000 
    211 H211       -5.3456  -21.3821  -46.0181 H         1 UNK         0.0600 
    212 H212       -8.3568  -21.0868  -46.4829 H         1 UNK         0.0600 
    213 H213       -7.2932  -19.9101  -45.7261 H         1 UNK         0.0600 
    214 H214       -7.5945  -21.4483  -44.9347 H         1 UNK         0.0600 
    215 H215       -4.6558  -22.4367  -48.4038 H         1 UNK         0.3000 
    216 H216       -3.9491  -22.0922  -50.3968 H         1 UNK         0.0600 
    217 H217       -4.6418  -19.1306  -50.0816 H         1 UNK         0.0600 
    218 H218       -3.5518  -19.8213  -51.2743 H         1 UNK         0.0600 
    219 H219       -3.1442  -19.9107  -49.5734 H         1 UNK         0.0600 
    220 H220       -7.0551  -22.4400  -49.9112 H         1 UNK         0.3000 
    221 H221       -8.2247  -21.5496  -52.3766 H         1 UNK         0.0600 
    222 H222       -9.0968  -23.8440  -50.5489 H         1 UNK         0.0600 
    223 H223       -9.5715  -22.1555  -50.3607 H         1 UNK         0.0600 
    224 H224      -10.0757  -23.0610  -51.7798 H         1 UNK         0.0600 
    225 H225       -6.3897  -24.4693  -51.4661 H         1 UNK         0.3000 
    226 H226       -6.8654  -25.7241  -54.1087 H         1 UNK         0.0600 
    227 H227       -6.9308  -27.1734  -52.1310 H         1 UNK         0.0600 
    228 H228       -5.5541  -27.5985  -53.1366 H         1 UNK         0.0600 
    229 H229       -5.3117  -26.6790  -51.6582 H         1 UNK         0.0600 
    230 H230       -4.2696  -24.0547  -52.3066 H         1 UNK         0.3000 
    231 H231       -2.2275  -24.6677  -54.2870 H         1 UNK         0.0600 
    232 H232       -2.2438  -22.8359  -51.8366 H         1 UNK         0.0600 
    233 H233       -1.5237  -24.4422  -51.9895 H         1 UNK         0.0600 
    234 H234       -0.8392  -23.0918  -52.8607 H         1 UNK         0.0600 
    235 H235       -4.4091  -21.9242  -53.7220 H         1 UNK         0.3000 
    236 H236       -4.8020  -19.9962  -54.6807 H         1 UNK         0.0600 
    237 H237       -5.1825  -21.4149  -56.7136 H         1 UNK         0.0600 
    238 H238       -4.6482  -19.7950  -57.1268 H         1 UNK         0.0600 
    239 H239       -3.5153  -21.1363  -57.2157 H         1 UNK         0.0600 
    240 H240       -2.1372  -20.4674  -53.3899 H         1 UNK         0.3000 
    241 H241       -0.2015  -19.5589  -52.9305 H         1 UNK         0.0600 
    242 H242        0.9795  -20.5519  -56.4148 H         1 UNK         0.3800 
    243 H243       -0.4900  -21.0199  -55.5964 H         1 UNK         0.3800 
    244 H244       -1.2068  -16.9736  -54.2237 H         1 UNK         0.0800 
    245 H245        0.2383  -17.1041  -53.2606 H         1 UNK         0.0800 
    246 H246       -0.3605  -15.3347  -51.5011 H         1 UNK         0.0800 
    247 H247       -1.2116  -15.8139  -50.0563 H         1 UNK         0.0800 
@<TRIPOS>BOND
     1    1    2 1    
     2    1  127 1    
     3    1  128 1    
     4    1  129 1    
     5    2    3 2    
     6    2    4 am   BACKBONE|DICT|INTERRES
     7    4    5 1    
     8    4  130 1    
     9    5    6 1    
    10    5   65 1    
    11    5  131 1    
    12    6    7 1    
    13    6  132 1    
    14    6  133 1    
    15    7    8 1    
    16    8    9 1    
    17    8  134 1    
    18    8  135 1    
    19    9   10 ar   
    20    9   14 ar   
    21   10   11 ar   
    22   10  136 1    
    23   11   12 ar   
    24   11  126 1    
    25   12   13 ar   
    26   12  137 1    
    27   13   14 ar   
    28   13   15 1    
    29   14  138 1    
    30   15   16 1    
    31   15  139 1    
    32   15  140 1    
    33   16   17 1    
    34   17   18 1    
    35   17  141 1    
    36   17  142 1    
    37   18   19 1    
    38   18   67 1    
    39   18  143 1    
    40   19   20 am   BACKBONE|DICT|INTERRES
    41   19  144 1    
    42   20   21 2    
    43   20   22 1    
    44   22   23 1    
    45   22   24 1    
    46   22  145 1    
    47   23  146 1    
    48   23  147 1    
    49   23  148 1    
    50   24   25 am   BACKBONE|DICT|INTERRES
    51   24  149 1    
    52   25   26 2    
    53   25   27 1    
    54   27   28 1    
    55   27   29 1    
    56   27  150 1    
    57   28  151 1    
    58   28  152 1    
    59   28  153 1    
    60   29   30 am   BACKBONE|DICT|INTERRES
    61   29  154 1    
    62   30   31 2    
    63   30   32 1    
    64   32   33 1    
    65   32   34 1    
    66   32  155 1    
    67   33  156 1    
    68   33  157 1    
    69   33  158 1    
    70   34   35 am   BACKBONE|DICT|INTERRES
    71   34  159 1    
    72   35   36 2    
    73   35   37 1    
    74   37   38 1    
    75   37   39 1    
    76   37  160 1    
    77   38  161 1    
    78   38  162 1    
    79   38  163 1    
    80   39   40 am   BACKBONE|DICT|INTERRES
    81   39  164 1    
    82   40   41 2    
    83   40   42 1    
    84   42   43 1    
    85   42   44 1    
    86   42  165 1    
    87   43  166 1    
    88   43  167 1    
    89   43  168 1    
    90   44   45 am   BACKBONE|DICT|INTERRES
    91   44  169 1    
    92   45   46 2    
    93   45   47 1    
    94   47   48 1    
    95   47   49 1    
    96   47  170 1    
    97   48  171 1    
    98   48  172 1    
    99   48  173 1    
   100   49   50 am   BACKBONE|DICT|INTERRES
   101   49  174 1    
   102   50   51 2    
   103   50   52 1    
   104   52   53 1    
   105   52   54 1    
   106   52  175 1    
   107   53  176 1    
   108   53  177 1    
   109   53  178 1    
   110   54   55 am   BACKBONE|DICT|INTERRES
   111   54  179 1    
   112   55   56 2    
   113   55   57 1    
   114   57   58 1    
   115   57   59 1    
   116   57  180 1    
   117   58  181 1    
   118   58  182 1    
   119   58  183 1    
   120   59   60 am   BACKBONE|DICT|INTERRES
   121   59  184 1    
   122   60   61 2    
   123   60   62 1    
   124   62   63 1    
   125   62   64 1    
   126   62  185 1    
   127   63  186 1    
   128   63  187 1    
   129   63  188 1    
   130   64   65 am   BACKBONE|DICT|INTERRES
   131   64  189 1    
   132   65   66 2    
   133   67   68 2    
   134   67   69 am   BACKBONE|DICT|INTERRES
   135   69   70 1    
   136   69  190 1    
   137   70   71 1    
   138   70   72 1    
   139   70  191 1    
   140   71  192 1    
   141   71  193 1    
   142   71  194 1    
   143   72   73 2    
   144   72   74 am   BACKBONE|DICT|INTERRES
   145   74   75 1    
   146   74  195 1    
   147   75   76 1    
   148   75   77 1    
   149   75  196 1    
   150   76  197 1    
   151   76  198 1    
   152   76  199 1    
   153   77   78 2    
   154   77   79 am   BACKBONE|DICT|INTERRES
   155   79   80 1    
   156   79  200 1    
   157   80   81 1    
   158   80   82 1    
   159   80  201 1    
   160   81  202 1    
   161   81  203 1    
   162   81  204 1    
   163   82   83 2    
   164   82   84 am   BACKBONE|DICT|INTERRES
   165   84   85 1    
   166   84  205 1    
   167   85   86 1    
   168   85   87 1    
   169   85  206 1    
   170   86  207 1    
   171   86  208 1    
   172   86  209 1    
   173   87   88 2    
   174   87   89 am   BACKBONE|DICT|INTERRES
   175   89   90 1    
   176   89  210 1    
   177   90   91 1    
   178   90   92 1    
   179   90  211 1    
   180   91  212 1    
   181   91  213 1    
   182   91  214 1    
   183   92   93 2    
   184   92   94 am   BACKBONE|DICT|INTERRES
   185   94   95 1    
   186   94  215 1    
   187   95   96 1    
   188   95   97 1    
   189   95  216 1    
   190   96  217 1    
   191   96  218 1    
   192   96  219 1    
   193   97   98 2    
   194   97   99 am   BACKBONE|DICT|INTERRES
   195   99  100 1    
   196   99  220 1    
   197  100  101 1    
   198  100  102 1    
   199  100  221 1    
   200  101  222 1    
   201  101  223 1    
   202  101  224 1    
   203  102  103 2    
   204  102  104 am   BACKBONE|DICT|INTERRES
   205  104  105 1    
   206  104  225 1    
   207  105  106 1    
   208  105  107 1    
   209  105  226 1    
   210  106  227 1    
   211  106  228 1    
   212  106  229 1    
   213  107  108 2    
   214  107  109 am   BACKBONE|DICT|INTERRES
   215  109  110 1    
   216  109  230 1    
   217  110  111 1    
   218  110  112 1    
   219  110  231 1    
   220  111  232 1    
   221  111  233 1    
   222  111  234 1    
   223  112  113 2    
   224  112  114 am   BACKBONE|DICT|INTERRES
   225  114  115 1    
   226  114  235 1    
   227  115  116 1    
   228  115  117 1    
   229  115  236 1    
   230  116  237 1    
   231  116  238 1    
   232  116  239 1    
   233  117  118 2    
   234  117  119 am   BACKBONE|DICT|INTERRES
   235  119  120 1    
   236  119  240 1    
   237  120  121 1    
   238  120  124 1    
   239  120  241 1    
   240  121  122 am   BACKBONE|DICT|INTERRES
   241  121  123 2    
   242  122  242 1    
   243  122  243 1    
   244  124  125 1    
   245  124  244 1    
   246  124  245 1    
   247  125  126 1    
   248  126  246 1    
   249  126  247 1    
@<TRIPOS>SUBSTRUCTURE
     1 UNK         1 GROUP             0       ****    0 ROOT    
