@<TRIPOS>MOLECULE
3R540
247   249    1
SMALL
USER_CHARGES


@<TRIPOS>ATOM
      1 CA         -4.6293  -13.7609  -48.2948 C.3       0 UNK        -0.1800 
      2 C          -3.3953  -13.1258  -47.6694 C.2       0 UNK         0.5000 
      3 O          -3.4810  -12.0328  -47.1103 O.2       0 UNK        -0.5000 
      4 N          -2.2502  -13.8133  -47.7510 N.am      1 UNK        -0.5000 
      5 CA         -0.9475  -13.3542  -47.2431 C.3       1 UNK         0.1400 
      6 C6          0.2289  -13.9353  -48.0645 C.3       23 UNK        -0.0398 
      7 S7          0.1425  -13.4690  -49.8259 S.3       23 UNK        -0.2404 
      8 C8          1.0464  -14.8518  -50.6051 C.3       23 UNK        -0.0205 
      9 C9          0.3607  -16.2201  -50.5683 C.ar      23 UNK        -0.0193 
     10 C10         1.1180  -17.3434  -50.9155 C.ar      23 UNK        -0.1150 
     11 C11         0.5435  -18.6165  -50.9406 C.ar      23 UNK        -0.0193 
     12 C12        -0.7984  -18.7699  -50.5954 C.ar      23 UNK        -0.1150 
     13 C13        -1.5665  -17.6653  -50.2179 C.ar      23 UNK        -0.0193 
     14 C14        -0.9894  -16.3928  -50.2305 C.ar      23 UNK        -0.1150 
     15 C15        -3.0265  -17.8457  -49.8271 C.3       23 UNK        -0.0205 
     16 S16        -3.3747  -17.4564  -48.0755 S.3       23 UNK        -0.2404 
     17 C17        -2.1305  -18.3932  -47.1171 C.3       23 UNK        -0.0398 
     18 CA         -1.9604  -19.8891  -47.4826 C.3       11 UNK         0.1400 
     19 N          -0.6315  -20.3757  -47.1139 N.am      11 UNK        -0.5000 
     20 C          -0.0717  -21.5013  -47.5716 C.2       10 UNK         0.5000 
     21 O          -0.6258  -22.2666  -48.3566 O.2       10 UNK        -0.5000 
     22 CA          1.3281  -21.8461  -47.0376 C.3       10 UNK         0.1400 
     23 CB          2.4117  -21.0700  -47.8018 C.3       10 UNK        -0.1800 
     24 N           1.4507  -21.5826  -45.6043 N.am      10 UNK        -0.5000 
     25 C           0.8153  -22.2790  -44.6515 C.2       9 UNK         0.5000 
     26 O           0.0722  -23.2342  -44.8799 O.2       9 UNK        -0.5000 
     27 CA          1.0075  -21.7894  -43.2039 C.3       9 UNK         0.1400 
     28 CB          2.3720  -22.2287  -42.6522 C.3       9 UNK        -0.1800 
     29 N           0.8818  -20.3365  -43.0836 N.am      9 UNK        -0.5000 
     30 C          -0.2377  -19.6509  -43.3527 C.2       8 UNK         0.5000 
     31 O          -1.2951  -20.1714  -43.7006 O.2       8 UNK        -0.5000 
     32 CA         -0.1524  -18.1198  -43.2733 C.3       8 UNK         0.1400 
     33 CB         -0.3618  -17.6541  -41.8238 C.3       8 UNK        -0.1800 
     34 N           1.1025  -17.5762  -43.7986 N.am      8 UNK        -0.5000 
     35 C           1.5760  -17.7770  -45.0378 C.2       7 UNK         0.5000 
     36 O           0.9903  -18.4426  -45.8889 O.2       7 UNK        -0.5000 
     37 CA          2.9437  -17.1671  -45.3833 C.3       7 UNK         0.1400 
     38 CB          2.7748  -15.7850  -46.0238 C.3       7 UNK        -0.1800 
     39 N           3.8117  -17.0613  -44.2126 N.am      7 UNK        -0.5000 
     40 C           4.4844  -18.0909  -43.6804 C.2       6 UNK         0.5000 
     41 O           4.4612  -19.2343  -44.1374 O.2       6 UNK        -0.5000 
     42 CA          5.2988  -17.7923  -42.4082 C.3       6 UNK         0.1400 
     43 CB          6.6784  -17.2211  -42.7690 C.3       6 UNK        -0.1800 
     44 N           4.6087  -16.8628  -41.5120 N.am      6 UNK        -0.5000 
     45 C           3.5017  -17.1684  -40.8215 C.2       5 UNK         0.5000 
     46 O           2.9794  -18.2834  -40.8303 O.2       5 UNK        -0.5000 
     47 CA          2.8535  -16.0323  -40.0066 C.3       5 UNK         0.1400 
     48 CB          3.4105  -16.0133  -38.5753 C.3       5 UNK        -0.1800 
     49 N           3.0073  -14.6994  -40.6018 N.am      5 UNK        -0.5000 
     50 C           2.4953  -14.3296  -41.7827 C.2       4 UNK         0.5000 
     51 O           1.9168  -15.1037  -42.5473 O.2       4 UNK        -0.5000 
     52 CA          2.6647  -12.8580  -42.1878 C.3       4 UNK         0.1400 
     53 CB          3.5769  -12.7309  -43.4174 C.3       4 UNK        -0.1800 
     54 N           1.3481  -12.3171  -42.5079 N.am      4 UNK        -0.5000 
     55 C           0.5703  -11.6448  -41.6464 C.2       3 UNK         0.5000 
     56 O           0.9503  -11.2589  -40.5401 O.2       3 UNK        -0.5000 
     57 CA         -0.8915  -11.3871  -42.0739 C.3       3 UNK         0.1400 
     58 CB         -1.0171  -10.0304  -42.7831 C.3       3 UNK        -0.1800 
     59 N          -1.4095  -12.4357  -42.9535 N.am      3 UNK        -0.5000 
     60 C          -1.5693  -13.7172  -42.5982 C.2       2 UNK         0.5000 
     61 O          -1.5181  -14.1013  -41.4293 O.2       2 UNK        -0.5000 
     62 CA         -1.7797  -14.7555  -43.7221 C.3       2 UNK         0.1400 
     63 CB         -3.0647  -15.5708  -43.5030 C.3       2 UNK        -0.1800 
     64 N          -1.7776  -14.2479  -45.0968 N.am      2 UNK        -0.5000 
     65 C          -0.7594  -13.6577  -45.7395 C.2       1 UNK         0.5000 
     66 O           0.2966  -13.3483  -45.1870 O.2       1 UNK        -0.5000 
     67 C          -3.0885  -20.7927  -46.9465 C.2       11 UNK         0.5000 
     68 O          -4.0534  -21.0432  -47.6709 O.2       11 UNK        -0.5000 
     69 N          -2.9200  -21.3283  -45.7287 N.am      12 UNK        -0.5000 
     70 CA         -3.7927  -22.3467  -45.1451 C.3       12 UNK         0.1400 
     71 CB         -3.4402  -22.5564  -43.6650 C.3       12 UNK        -0.1800 
     72 C          -3.7287  -23.6765  -45.9159 C.2       12 UNK         0.5000 
     73 O          -4.7777  -24.2399  -46.2281 O.2       12 UNK        -0.5000 
     74 N          -2.5107  -24.1288  -46.2538 N.am      13 UNK        -0.5000 
     75 CA         -2.2667  -25.3271  -47.0644 C.3       13 UNK         0.1400 
     76 CB         -0.7620  -25.6337  -47.0958 C.3       13 UNK        -0.1800 
     77 C          -2.8296  -25.2122  -48.4945 C.2       13 UNK         0.5000 
     78 O          -3.3432  -26.1952  -49.0288 O.2       13 UNK        -0.5000 
     79 N          -2.7613  -24.0036  -49.0672 N.am      14 UNK        -0.5000 
     80 CA         -3.3392  -23.6527  -50.3618 C.3       14 UNK         0.1400 
     81 CB         -2.7103  -22.3443  -50.8627 C.3       14 UNK        -0.1800 
     82 C          -4.8720  -23.5163  -50.3519 C.2       14 UNK         0.5000 
     83 O          -5.4502  -23.4094  -51.4324 O.2       14 UNK        -0.5000 
     84 N          -5.4922  -23.5025  -49.1621 N.am      15 UNK        -0.5000 
     85 CA         -6.9189  -23.2724  -48.9141 C.3       15 UNK         0.1400 
     86 CB         -7.7715  -24.4208  -49.4945 C.3       15 UNK        -0.1800 
     87 C          -7.3740  -21.8725  -49.3813 C.2       15 UNK         0.5000 
     88 O          -8.4636  -21.7305  -49.9403 O.2       15 UNK        -0.5000 
     89 N          -6.5136  -20.8742  -49.1268 N.am      16 UNK        -0.5000 
     90 CA         -6.5827  -19.4733  -49.5496 C.3       16 UNK         0.1400 
     91 CB         -7.8798  -18.7965  -49.0603 C.3       16 UNK        -0.1800 
     92 C          -6.3676  -19.2798  -51.0658 C.2       16 UNK         0.5000 
     93 O          -6.3473  -20.2406  -51.8373 O.2       16 UNK        -0.5000 
     94 N          -6.1607  -18.0139  -51.4590 N.am      17 UNK        -0.5000 
     95 CA         -6.0592  -17.5014  -52.8359 C.3       17 UNK         0.1400 
     96 CB         -7.4333  -17.6111  -53.5295 C.3       17 UNK        -0.1800 
     97 C          -4.9349  -18.1061  -53.7117 C.2       17 UNK         0.5000 
     98 O          -4.9403  -17.8846  -54.9235 O.2       17 UNK        -0.5000 
     99 N          -4.0056  -18.8571  -53.0988 N.am      18 UNK        -0.5000 
    100 CA        -2.9605  -19.6684  -53.7383 C.3       18 UNK         0.1400 
    101 CB        -1.9147  -18.7722  -54.4340 C.3       18 UNK        -0.1800 
    102 C         -3.5532  -20.7550  -54.6674 C.2       18 UNK         0.5000 
    103 O         -3.0170  -21.0072  -55.7476 O.2       18 UNK        -0.5000 
    104 N         -4.6896  -21.3395  -54.2551 N.am      19 UNK        -0.5000 
    105 CA        -5.4702  -22.2740  -55.0617 C.3       19 UNK         0.1400 
    106 CB        -6.9118  -22.3333  -54.5288 C.3       19 UNK        -0.1800 
    107 C         -4.8337  -23.6725  -55.1453 C.2       19 UNK         0.5000 
    108 O         -4.4811  -24.1142  -56.2398 O.2       19 UNK        -0.5000 
    109 N         -4.7238  -24.3568  -53.9994 N.am      20 UNK        -0.5000 
    110 CA        -4.3087  -25.7612  -53.9211 C.3       20 UNK         0.1400 
    111 CB        -5.0755  -26.4471  -52.7774 C.3       20 UNK        -0.1800 
    112 C         -2.7903  -25.9560  -53.7478 C.2       20 UNK         0.5000 
    113 O         -2.3273  -27.0955  -53.8203 O.2       20 UNK        -0.5000 
    114 N         -2.0387  -24.8743  -53.5136 N.am      21 UNK        -0.5000 
    115 CA        -0.5921  -24.8890  -53.3143 C.3       21 UNK         0.1400 
    116 CB        -0.2556  -25.2408  -51.8517 C.3       21 UNK        -0.1800 
    117 C         -0.0039  -23.5292  -53.7128 C.2       21 UNK         0.5000 
    118 O         -0.7342  -22.5370  -53.7489 O.2       21 UNK        -0.5000 
    119 N          1.3053  -23.5389  -53.9913 N.am      22 UNK        -0.5000 
    120 CA         2.1281  -22.4350  -54.5125 C.3       22 UNK         0.1400 
    121 C          1.6860  -21.8959  -55.9113 C.2       22 UNK         0.5000 
    122 N          2.1450  -20.7228  -56.3279 N.am      22 UNK        -0.7600 
    123 O          0.9893  -22.5709  -56.6666 O.2       22 UNK        -0.5000 
    124 C124        2.5028  -21.3718  -53.4329 C.3       23 UNK        -0.0398 
    125 S125        1.3121  -20.0131  -53.1689 S.3       23 UNK        -0.2404 
    126 C126        1.3632  -19.8227  -51.3647 C.3       23 UNK        -0.0205 
    127 H127       -5.1395  -13.0408  -48.9345 H         1 UNK         0.0600 
    128 H128       -5.3228  -14.0804  -47.5171 H         1 UNK         0.0600 
    129 H129       -4.3733  -14.6286  -48.9031 H         1 UNK         0.0600 
    130 H130       -2.2491  -14.7165  -48.2021 H         1 UNK         0.3000 
    131 H131       -0.9027  -12.2671  -47.3381 H         1 UNK         0.0600 
    132 H132        1.1864  -13.5782  -47.6805 H         1 UNK         0.0800 
    133 H133        0.2461  -15.0225  -47.9758 H         1 UNK         0.0800 
    134 H134        1.2246  -14.5916  -51.6492 H         1 UNK         0.0800 
    135 H135        2.0286  -14.9264  -50.1354 H         1 UNK         0.0800 
    136 H136        2.1564  -17.2250  -51.1921 H         1 UNK         0.1150 
    137 H137       -1.2386  -19.7552  -50.6330 H         1 UNK         0.1150 
    138 H138       -1.6054  -15.5440  -49.9786 H         1 UNK         0.1150 
    139 H139       -3.6320  -17.1874  -50.4506 H         1 UNK         0.0800 
    140 H140       -3.3632  -18.8606  -50.0397 H         1 UNK         0.0800 
    141 H141       -2.3455  -18.2790  -46.0534 H         1 UNK         0.0800 
    142 H142       -1.1868  -17.8704  -47.2790 H         1 UNK         0.0800 
    143 H143       -2.0130  -19.9885  -48.5614 H         1 UNK         0.0600 
    144 H144       -0.0752  -19.7691  -46.5144 H         1 UNK         0.3000 
    145 H145        1.4958  -22.9126  -47.2014 H         1 UNK         0.0600 
    146 H146        3.4079  -21.3199  -47.4368 H         1 UNK         0.0600 
    147 H147        2.3855  -21.3143  -48.8640 H         1 UNK         0.0600 
    148 H148        2.2819  -19.9911  -47.7102 H         1 UNK         0.0600 
    149 H149        2.0028  -20.7816  -45.3335 H         1 UNK         0.3000 
    150 H150        0.2271  -22.2465  -42.5919 H         1 UNK         0.0600 
    151 H151        2.4906  -23.3109  -42.7199 H         1 UNK         0.0600 
    152 H152        2.4784  -21.9550  -41.6023 H         1 UNK         0.0600 
    153 H153        3.1963  -21.7717  -43.2015 H         1 UNK         0.0600 
    154 H154        1.7062  -19.8231  -42.8035 H         1 UNK         0.3000 
    155 H155       -0.9602  -17.7213  -43.8883 H         1 UNK         0.0600 
    156 H156       -1.3590  -17.9214  -41.4724 H         1 UNK         0.0600 
    157 H157       -0.2617  -16.5744  -41.7239 H         1 UNK         0.0600 
    158 H158        0.3549  -18.1149  -41.1447 H         1 UNK         0.0600 
    159 H159        1.6049  -16.9327  -43.1955 H         1 UNK         0.3000 
    160 H160        3.4233  -17.8197  -46.1162 H         1 UNK         0.0600 
    161 H161        2.2283  -15.1073  -45.3694 H         1 UNK         0.0600 
    162 H162        2.2217  -15.8626  -46.9595 H         1 UNK         0.0600 
    163 H163        3.7386  -15.3306  -46.2531 H         1 UNK         0.0600 
    164 H164        3.8375  -16.1666  -43.7460 H         1 UNK         0.3000 
    165 H165        5.4481  -18.7355  -41.8781 H         1 UNK         0.0600 
    166 H166        7.2887  -17.0726  -41.8779 H         1 UNK         0.0600 
    167 H167        7.2228  -17.9021  -43.4246 H         1 UNK         0.0600 
    168 H168        6.5978  -16.2633  -43.2846 H         1 UNK         0.0600 
    169 H169        4.9798  -15.9269  -41.4414 H         1 UNK         0.3000 
    170 H170        1.7839  -16.2446  -39.9502 H         1 UNK         0.0600 
    171 H171        3.2887  -16.9855  -38.0956 H         1 UNK         0.0600 
    172 H172        4.4738  -15.7705  -38.5600 H         1 UNK         0.0600 
    173 H173        2.8890  -15.2813  -37.9583 H         1 UNK         0.0600 
    174 H174        3.4738  -14.0074  -40.0330 H         1 UNK         0.3000 
    175 H175        3.1199  -12.3023  -41.3654 H         1 UNK         0.0600 
    176 H176        3.1538  -13.2298  -44.2892 H         1 UNK         0.0600 
    177 H177        3.7342  -11.6847  -43.6800 H         1 UNK         0.0600 
    178 H178        4.5568  -13.1702  -43.2272 H         1 UNK         0.0600 
    179 H179        0.9419  -12.6471  -43.3785 H         1 UNK         0.3000 
    180 H180       -1.5056  -11.3642  -41.1714 H         1 UNK         0.0600 
    181 H181       -0.4348  -10.0030  -43.7050 H         1 UNK         0.0600 
    182 H182       -0.6595   -9.2219  -42.1441 H         1 UNK         0.0600 
    183 H183       -2.0550   -9.8108  -43.0340 H         1 UNK         0.0600 
    184 H184       -1.4600  -12.2149  -43.9370 H         1 UNK         0.3000 
    185 H185       -0.9266  -15.4284  -43.6525 H         1 UNK         0.0600 
    186 H186       -3.0758  -16.0344  -42.5157 H         1 UNK         0.0600 
    187 H187       -3.9531  -14.9432  -43.5814 H         1 UNK         0.0600 
    188 H188       -3.1546  -16.3736  -44.2351 H         1 UNK         0.0600 
    189 H189       -2.6152  -14.4221  -45.6323 H         1 UNK         0.3000 
    190 H190       -2.1326  -21.0311  -45.1581 H         1 UNK         0.3000 
    191 H191       -4.8198  -21.9795  -45.1990 H         1 UNK         0.0600 
    192 H192       -2.4041  -22.8719  -43.5372 H         1 UNK         0.0600 
    193 H193       -3.5824  -21.6388  -43.0939 H         1 UNK         0.0600 
    194 H194       -4.0757  -23.3202  -43.2152 H         1 UNK         0.0600 
    195 H195       -1.6908  -23.6248  -45.9328 H         1 UNK         0.3000 
    196 H196       -2.7726  -26.1638  -46.5783 H         1 UNK         0.0600 
    197 H197       -0.3706  -25.7911  -46.0906 H         1 UNK         0.0600 
    198 H198       -0.1942  -24.8232  -47.5526 H         1 UNK         0.0600 
    199 H199       -0.5599  -26.5391  -47.6694 H         1 UNK         0.0600 
    200 H200       -2.2281  -23.2759  -48.5989 H         1 UNK         0.3000 
    201 H201       -3.0901  -24.4478  -51.0634 H         1 UNK         0.0600 
    202 H202       -3.0479  -22.1274  -51.8749 H         1 UNK         0.0600 
    203 H203       -1.6226  -22.3981  -50.8918 H         1 UNK         0.0600 
    204 H204       -2.9892  -21.4999  -50.2328 H         1 UNK         0.0600 
    205 H205       -4.9223  -23.6017  -48.3312 H         1 UNK         0.3000 
    206 H206       -7.0434  -23.2865  -47.8305 H         1 UNK         0.0600 
    207 H207       -7.4157  -25.3902  -49.1455 H         1 UNK         0.0600 
    208 H208       -7.7546  -24.4298  -50.5847 H         1 UNK         0.0600 
    209 H209       -8.8131  -24.3268  -49.1857 H         1 UNK         0.0600 
    210 H210       -5.6454  -21.1189  -48.6550 H         1 UNK         0.3000 
    211 H211       -5.7482  -18.9859  -49.0466 H         1 UNK         0.0600 
    212 H212       -8.0467  -18.9844  -47.9996 H         1 UNK         0.0600 
    213 H213       -7.8330  -17.7151  -49.1908 H         1 UNK         0.0600 
    214 H214       -8.7555  -19.1484  -49.6061 H         1 UNK         0.0600 
    215 H215       -6.1649  -17.2971  -50.7468 H         1 UNK         0.3000 
    216 H216       -5.8212  -16.4408  -52.7437 H         1 UNK         0.0600 
    217 H217       -7.4325  -17.1033  -54.4947 H         1 UNK         0.0600 
    218 H218       -7.7116  -18.6506  -53.7071 H         1 UNK         0.0600 
    219 H219       -8.2174  -17.1527  -52.9269 H         1 UNK         0.0600 
    220 H220       -4.1270  -19.0033  -52.1096 H         1 UNK         0.3000 
    221 H221       -2.4397  -20.1964  -52.9401 H         1 UNK         0.0600 
    222 H222       -2.3407  -18.2119  -55.2659 H         1 UNK         0.0600 
    223 H223       -1.4794  -18.0601  -53.7326 H         1 UNK         0.0600 
    224 H224       -1.0966  -19.3720  -54.8341 H         1 UNK         0.0600 
    225 H225       -5.1006  -21.0615  -53.3698 H         1 UNK         0.3000 
    226 H226       -5.5219  -21.8800  -56.0791 H         1 UNK         0.0600 
    227 H227       -7.3940  -21.3580  -54.5985 H         1 UNK         0.0600 
    228 H228       -7.5142  -23.0367  -55.1047 H         1 UNK         0.0600 
    229 H229       -6.9512  -22.6437  -53.4845 H         1 UNK         0.0600 
    230 H230       -5.0422  -23.9270  -53.1317 H         1 UNK         0.3000 
    231 H231       -4.5902  -26.2675  -54.8468 H         1 UNK         0.0600 
    232 H232       -4.9050  -27.5243  -52.7869 H         1 UNK         0.0600 
    233 H233       -6.1503  -26.2889  -52.8683 H         1 UNK         0.0600 
    234 H234       -4.7640  -26.0819  -51.7995 H         1 UNK         0.0600 
    235 H235       -2.4543  -23.9525  -53.5506 H         1 UNK         0.3000 
    236 H236       -0.1561  -25.6440  -53.9723 H         1 UNK         0.0600 
    237 H237       -0.7087  -26.1861  -51.5527 H         1 UNK         0.0600 
    238 H238        0.8212  -25.3418  -51.7129 H         1 UNK         0.0600 
    239 H239       -0.5982  -24.4738  -51.1588 H         1 UNK         0.0600 
    240 H240        1.7873  -24.4242  -53.9341 H         1 UNK         0.3000 
    241 H241        3.0666  -22.9390  -54.7466 H         1 UNK         0.0600 
    242 H242        1.8807  -20.3913  -57.2423 H         1 UNK         0.3800 
    243 H243        2.7061  -20.1365  -55.7305 H         1 UNK         0.3800 
    244 H244        3.4545  -20.9104  -53.6996 H         1 UNK         0.0800 
    245 H245        2.6899  -21.8738  -52.4828 H         1 UNK         0.0800 
    246 H246        0.9794  -20.7292  -50.8934 H         1 UNK         0.0800 
    247 H247        2.3965  -19.7064  -51.0342 H         1 UNK         0.0800 
@<TRIPOS>BOND
     1    1    2 1    
     2    1  127 1    
     3    1  128 1    
     4    1  129 1    
     5    2    3 2    
     6    2    4 am   BACKBONE|DICT|INTERRES
     7    4    5 1    
     8    4  130 1    
     9    5    6 1    
    10    5   65 1    
    11    5  131 1    
    12    6    7 1    
    13    6  132 1    
    14    6  133 1    
    15    7    8 1    
    16    8    9 1    
    17    8  134 1    
    18    8  135 1    
    19    9   10 ar   
    20    9   14 ar   
    21   10   11 ar   
    22   10  136 1    
    23   11   12 ar   
    24   11  126 1    
    25   12   13 ar   
    26   12  137 1    
    27   13   14 ar   
    28   13   15 1    
    29   14  138 1    
    30   15   16 1    
    31   15  139 1    
    32   15  140 1    
    33   16   17 1    
    34   17   18 1    
    35   17  141 1    
    36   17  142 1    
    37   18   19 1    
    38   18   67 1    
    39   18  143 1    
    40   19   20 am   BACKBONE|DICT|INTERRES
    41   19  144 1    
    42   20   21 2    
    43   20   22 1    
    44   22   23 1    
    45   22   24 1    
    46   22  145 1    
    47   23  146 1    
    48   23  147 1    
    49   23  148 1    
    50   24   25 am   BACKBONE|DICT|INTERRES
    51   24  149 1    
    52   25   26 2    
    53   25   27 1    
    54   27   28 1    
    55   27   29 1    
    56   27  150 1    
    57   28  151 1    
    58   28  152 1    
    59   28  153 1    
    60   29   30 am   BACKBONE|DICT|INTERRES
    61   29  154 1    
    62   30   31 2    
    63   30   32 1    
    64   32   33 1    
    65   32   34 1    
    66   32  155 1    
    67   33  156 1    
    68   33  157 1    
    69   33  158 1    
    70   34   35 am   BACKBONE|DICT|INTERRES
    71   34  159 1    
    72   35   36 2    
    73   35   37 1    
    74   37   38 1    
    75   37   39 1    
    76   37  160 1    
    77   38  161 1    
    78   38  162 1    
    79   38  163 1    
    80   39   40 am   BACKBONE|DICT|INTERRES
    81   39  164 1    
    82   40   41 2    
    83   40   42 1    
    84   42   43 1    
    85   42   44 1    
    86   42  165 1    
    87   43  166 1    
    88   43  167 1    
    89   43  168 1    
    90   44   45 am   BACKBONE|DICT|INTERRES
    91   44  169 1    
    92   45   46 2    
    93   45   47 1    
    94   47   48 1    
    95   47   49 1    
    96   47  170 1    
    97   48  171 1    
    98   48  172 1    
    99   48  173 1    
   100   49   50 am   BACKBONE|DICT|INTERRES
   101   49  174 1    
   102   50   51 2    
   103   50   52 1    
   104   52   53 1    
   105   52   54 1    
   106   52  175 1    
   107   53  176 1    
   108   53  177 1    
   109   53  178 1    
   110   54   55 am   BACKBONE|DICT|INTERRES
   111   54  179 1    
   112   55   56 2    
   113   55   57 1    
   114   57   58 1    
   115   57   59 1    
   116   57  180 1    
   117   58  181 1    
   118   58  182 1    
   119   58  183 1    
   120   59   60 am   BACKBONE|DICT|INTERRES
   121   59  184 1    
   122   60   61 2    
   123   60   62 1    
   124   62   63 1    
   125   62   64 1    
   126   62  185 1    
   127   63  186 1    
   128   63  187 1    
   129   63  188 1    
   130   64   65 am   BACKBONE|DICT|INTERRES
   131   64  189 1    
   132   65   66 2    
   133   67   68 2    
   134   67   69 am   BACKBONE|DICT|INTERRES
   135   69   70 1    
   136   69  190 1    
   137   70   71 1    
   138   70   72 1    
   139   70  191 1    
   140   71  192 1    
   141   71  193 1    
   142   71  194 1    
   143   72   73 2    
   144   72   74 am   BACKBONE|DICT|INTERRES
   145   74   75 1    
   146   74  195 1    
   147   75   76 1    
   148   75   77 1    
   149   75  196 1    
   150   76  197 1    
   151   76  198 1    
   152   76  199 1    
   153   77   78 2    
   154   77   79 am   BACKBONE|DICT|INTERRES
   155   79   80 1    
   156   79  200 1    
   157   80   81 1    
   158   80   82 1    
   159   80  201 1    
   160   81  202 1    
   161   81  203 1    
   162   81  204 1    
   163   82   83 2    
   164   82   84 am   BACKBONE|DICT|INTERRES
   165   84   85 1    
   166   84  205 1    
   167   85   86 1    
   168   85   87 1    
   169   85  206 1    
   170   86  207 1    
   171   86  208 1    
   172   86  209 1    
   173   87   88 2    
   174   87   89 am   BACKBONE|DICT|INTERRES
   175   89   90 1    
   176   89  210 1    
   177   90   91 1    
   178   90   92 1    
   179   90  211 1    
   180   91  212 1    
   181   91  213 1    
   182   91  214 1    
   183   92   93 2    
   184   92   94 am   BACKBONE|DICT|INTERRES
   185   94   95 1    
   186   94  215 1    
   187   95   96 1    
   188   95   97 1    
   189   95  216 1    
   190   96  217 1    
   191   96  218 1    
   192   96  219 1    
   193   97   98 2    
   194   97   99 am   BACKBONE|DICT|INTERRES
   195   99  100 1    
   196   99  220 1    
   197  100  101 1    
   198  100  102 1    
   199  100  221 1    
   200  101  222 1    
   201  101  223 1    
   202  101  224 1    
   203  102  103 2    
   204  102  104 am   BACKBONE|DICT|INTERRES
   205  104  105 1    
   206  104  225 1    
   207  105  106 1    
   208  105  107 1    
   209  105  226 1    
   210  106  227 1    
   211  106  228 1    
   212  106  229 1    
   213  107  108 2    
   214  107  109 am   BACKBONE|DICT|INTERRES
   215  109  110 1    
   216  109  230 1    
   217  110  111 1    
   218  110  112 1    
   219  110  231 1    
   220  111  232 1    
   221  111  233 1    
   222  111  234 1    
   223  112  113 2    
   224  112  114 am   BACKBONE|DICT|INTERRES
   225  114  115 1    
   226  114  235 1    
   227  115  116 1    
   228  115  117 1    
   229  115  236 1    
   230  116  237 1    
   231  116  238 1    
   232  116  239 1    
   233  117  118 2    
   234  117  119 am   BACKBONE|DICT|INTERRES
   235  119  120 1    
   236  119  240 1    
   237  120  121 1    
   238  120  124 1    
   239  120  241 1    
   240  121  122 am   BACKBONE|DICT|INTERRES
   241  121  123 2    
   242  122  242 1    
   243  122  243 1    
   244  124  125 1    
   245  124  244 1    
   246  124  245 1    
   247  125  126 1    
   248  126  246 1    
   249  126  247 1    
@<TRIPOS>SUBSTRUCTURE
     1 UNK         1 GROUP             0       ****    0 ROOT    
