@<TRIPOS>MOLECULE
3R540
247   249    1
SMALL
USER_CHARGES


@<TRIPOS>ATOM
      1 CA          1.9261  -15.8271  -47.0467 C.3       0 UNK        -0.1800 
      2 C           1.0385  -14.7798  -46.3914 C.2       0 UNK         0.5000 
      3 O           1.3766  -14.2606  -45.3268 O.2       0 UNK        -0.5000 
      4 N          -0.0981  -14.4667  -47.0276 N.am      1 UNK        -0.5000 
      5 CA         -1.0632  -13.4536  -46.5880 C.3       1 UNK         0.1400 
      6 C6         -2.3084  -13.3804  -47.5022 C.3       23 UNK        -0.0398 
      7 S7         -3.2824  -14.9260  -47.4705 S.3       23 UNK        -0.2404 
      8 C8         -3.4656  -15.3226  -49.2398 C.3       23 UNK        -0.0205 
      9 C9         -2.9053  -16.6991  -49.5547 C.ar      23 UNK        -0.0193 
     10 C10        -3.7580  -17.8011  -49.6596 C.ar      23 UNK        -0.1150 
     11 C11        -3.2478  -19.0646  -49.9676 C.ar      23 UNK        -0.0193 
     12 C12        -1.8739  -19.2217  -50.1624 C.ar      23 UNK        -0.1150 
     13 C13        -1.0043  -18.1325  -50.0353 C.ar      23 UNK        -0.0193 
     14 C14        -1.5320  -16.8711  -49.7461 C.ar      23 UNK        -0.1150 
     15 C15         0.5025  -18.2839  -50.2230 C.3       23 UNK        -0.0205 
     16 S16         1.2059  -19.8330  -49.5630 S.3       23 UNK        -0.2404 
     17 C17         0.7447  -19.7826  -47.7975 C.3       23 UNK        -0.0398 
     18 CA          0.4225  -21.1965  -47.2488 C.3       11 UNK         0.1400 
     19 N           0.7508  -21.3238  -45.8268 N.am      11 UNK        -0.5000 
     20 C           0.8488  -22.4927  -45.1789 C.2       10 UNK         0.5000 
     21 O           0.6701  -23.5867  -45.7135 O.2       10 UNK        -0.5000 
     22 CA          1.1607  -22.4309  -43.6740 C.3       10 UNK         0.1400 
     23 CB          2.6531  -22.1565  -43.4365 C.3       10 UNK        -0.1800 
     24 N           0.3529  -21.4347  -42.9701 N.am      10 UNK        -0.5000 
     25 C          -0.9820  -21.4888  -42.8572 C.2       9 UNK         0.5000 
     26 O          -1.6694  -22.3991  -43.3187 O.2       9 UNK        -0.5000 
     27 CA         -1.6725  -20.3117  -42.1458 C.3       9 UNK         0.1400 
     28 CB         -1.5325  -20.4360  -40.6214 C.3       9 UNK        -0.1800 
     29 N          -1.1717  -19.0089  -42.5837 N.am      9 UNK        -0.5000 
     30 C          -1.2554  -18.5444  -43.8392 C.2       8 UNK         0.5000 
     31 O          -1.7847  -19.1568  -44.7652 O.2       8 UNK        -0.5000 
     32 CA         -0.5777  -17.1943  -44.1224 C.3       8 UNK         0.1400 
     33 CB         -1.4152  -16.0295  -43.5738 C.3       8 UNK        -0.1800 
     34 N           0.7734  -17.1286  -43.5690 N.am      8 UNK        -0.5000 
     35 C           1.7784  -17.9515  -43.8991 C.2       7 UNK         0.5000 
     36 O           1.6909  -18.8404  -44.7451 O.2       7 UNK        -0.5000 
     37 CA          3.0860  -17.7897  -43.1101 C.3       7 UNK         0.1400 
     38 CB          3.9000  -16.5959  -43.6328 C.3       7 UNK        -0.1800 
     39 N           2.8370  -17.6454  -41.6750 N.am      7 UNK        -0.5000 
     40 C           2.3392  -18.6167  -40.8946 C.2       6 UNK         0.5000 
     41 O           2.0722  -19.7486  -41.2960 O.2       6 UNK        -0.5000 
     42 CA          2.0567  -18.2511  -39.4267 C.3       6 UNK         0.1400 
     43 CB          3.3340  -18.3724  -38.5825 C.3       6 UNK        -0.1800 
     44 N           1.5055  -16.9042  -39.2826 N.am      6 UNK        -0.5000 
     45 C           0.2952  -16.5280  -39.7199 C.2       5 UNK         0.5000 
     46 O          -0.5077  -17.2900  -40.2583 O.2       5 UNK        -0.5000 
     47 CA         -0.0441  -15.0317  -39.5806 C.3       5 UNK         0.1400 
     48 CB         -0.5823  -14.7239  -38.1754 C.3       5 UNK        -0.1800 
     49 N           1.1037  -14.1638  -39.8687 N.am      5 UNK        -0.5000 
     50 C           1.7017  -14.0971  -41.0644 C.2       4 UNK         0.5000 
     51 O           1.3340  -14.7492  -42.0441 O.2       4 UNK        -0.5000 
     52 CA          2.9408  -13.2019  -41.1788 C.3       4 UNK         0.1400 
     53 CB          4.1920  -13.9544  -40.6844 C.3       4 UNK        -0.1800 
     54 N           3.0772  -12.8205  -42.5798 N.am      4 UNK        -0.5000 
     55 C           3.9117  -11.9081  -43.0903 C.2       3 UNK         0.5000 
     56 O           4.7470  -11.2871  -42.4320 O.2       3 UNK        -0.5000 
     57 CA          3.7366  -11.6033  -44.5874 C.3       3 UNK         0.1400 
     58 CB          4.3214  -12.7287  -45.4567 C.3       3 UNK        -0.1800 
     59 N           2.3183  -11.4041  -44.8976 N.am      3 UNK        -0.5000 
     60 C           1.6682  -10.2497  -44.6790 C.2       2 UNK         0.5000 
     61 O           2.2392   -9.2198  -44.3160 O.2       2 UNK        -0.5000 
     62 CA          0.1310  -10.2215  -44.8347 C.3       2 UNK         0.1400 
     63 CB         -0.3457   -9.0397  -45.7056 C.3       2 UNK        -0.1800 
     64 N          -0.4712  -11.4879  -45.2665 N.am      2 UNK        -0.5000 
     65 C          -0.3927  -12.0701  -46.4703 C.2       1 UNK         0.5000 
     66 O           0.1915  -11.5909  -47.4441 O.2       1 UNK        -0.5000 
     67 C          -1.0237  -21.6457  -47.5578 C.2       11 UNK         0.5000 
     68 O          -1.2529  -22.2514  -48.6030 O.2       11 UNK        -0.5000 
     69 N          -1.9600  -21.3894  -46.6314 N.am      12 UNK        -0.5000 
     70 CA         -3.3444  -21.8571  -46.7066 C.3       12 UNK         0.1400 
     71 CB         -4.2085  -21.0867  -45.6978 C.3       12 UNK        -0.1800 
     72 C          -3.4899  -23.3761  -46.5050 C.2       12 UNK         0.5000 
     73 O          -4.3505  -23.9850  -47.1420 O.2       12 UNK        -0.5000 
     74 N          -2.6653  -23.9582  -45.6232 N.am      13 UNK        -0.5000 
     75 CA         -2.6196  -25.3976  -45.3622 C.3       13 UNK         0.1400 
     76 CB         -1.8601  -25.6567  -44.0519 C.3       13 UNK        -0.1800 
     77 C          -1.9898  -26.1894  -46.5231 C.2       13 UNK         0.5000 
     78 O          -2.4489  -27.2917  -46.8272 O.2       13 UNK        -0.5000 
     79 N          -0.9526  -25.6167  -47.1461 N.am      14 UNK        -0.5000 
     80 CA         -0.2869  -26.1490  -48.3325 C.3       14 UNK         0.1400 
     81 CB          1.0263  -25.3775  -48.5418 C.3       14 UNK        -0.1800 
     82 C          -1.1660  -26.0409  -49.5922 C.2       14 UNK         0.5000 
     83 O          -2.0422  -25.1784  -49.6720 O.2       14 UNK        -0.5000 
     84 N          -0.8671  -26.8717  -50.5972 N.am      15 UNK        -0.5000 
     85 CA         -1.4547  -26.8049  -51.9382 C.3       15 UNK         0.1400 
     86 CB         -1.4697  -28.2197  -52.5448 C.3       15 UNK        -0.1800 
     87 C          -0.6883  -25.7867  -52.8101 C.2       15 UNK         0.5000 
     88 O          -0.1666  -26.1375  -53.8700 O.2       15 UNK        -0.5000 
     89 N          -0.5895  -24.5472  -52.3152 N.am      16 UNK        -0.5000 
     90 CA          0.1608  -23.4481  -52.9236 C.3       16 UNK         0.1400 
     91 CB          0.4044  -22.3816  -51.8490 C.3       16 UNK        -0.1800 
     92 C          -0.5352  -22.8230  -54.1472 C.2       16 UNK         0.5000 
     93 O           0.1222  -22.1321  -54.9276 O.2       16 UNK        -0.5000 
     94 N          -1.8471  -23.0551  -54.2805 N.am      17 UNK        -0.5000 
     95 CA         -2.7824  -22.5562  -55.2875 C.3       17 UNK         0.1400 
     96 CB         -2.3687  -22.9385  -56.7209 C.3       17 UNK        -0.1800 
     97 C          -3.0791  -21.0545  -55.1526 C.2       17 UNK         0.5000 
     98 O          -4.2464  -20.6885  -54.9980 O.2       17 UNK        -0.5000 
     99 N          -2.0262  -20.2280  -55.2144 N.am      18 UNK        -0.5000 
    100 CA        -1.9752  -18.7630  -55.1253 C.3       18 UNK         0.1400 
    101 CB        -2.4131  -18.2793  -53.7300 C.3       18 UNK        -0.1800 
    102 C         -2.7422  -18.0309  -56.2453 C.2       18 UNK         0.5000 
    103 O         -2.1360  -17.2777  -57.0079 O.2       18 UNK        -0.5000 
    104 N         -4.0503  -18.2847  -56.3245 N.am      19 UNK        -0.5000 
    105 CA        -5.0100  -17.7738  -57.3021 C.3       19 UNK         0.1400 
    106 CB        -5.1647  -16.2436  -57.1935 C.3       19 UNK        -0.1800 
    107 C         -6.3729  -18.4562  -57.0994 C.2       19 UNK         0.5000 
    108 O         -7.0711  -18.7276  -58.0763 O.2       19 UNK        -0.5000 
    109 N         -6.7230  -18.7280  -55.8336 N.am      20 UNK        -0.5000 
    110 CA        -7.9962  -19.3205  -55.4153 C.3       20 UNK         0.1400 
    111 CB        -8.2674  -18.8914  -53.9636 C.3       20 UNK        -0.1800 
    112 C         -8.0499  -20.8579  -55.5386 C.2       20 UNK         0.5000 
    113 O         -9.1096  -21.4348  -55.2921 O.2       20 UNK        -0.5000 
    114 N         -6.9161  -21.4899  -55.8786 N.am      21 UNK        -0.5000 
    115 CA        -6.6613  -22.9366  -55.8674 C.3       21 UNK         0.1400 
    116 CB        -7.6125  -23.7010  -56.8126 C.3       21 UNK        -0.1800 
    117 C         -6.6314  -23.4998  -54.4286 C.2       21 UNK         0.5000 
    118 O         -7.0785  -24.6225  -54.1875 O.2       21 UNK        -0.5000 
    119 N         -6.1167  -22.6867  -53.4988 N.am      22 UNK        -0.5000 
    120 CA        -6.0069  -22.9719  -52.0631 C.3       22 UNK         0.1400 
    121 C         -4.6890  -23.7042  -51.6691 C.2       22 UNK         0.5000 
    122 N         -4.4988  -24.0177  -50.3954 N.am      22 UNK        -0.7600 
    123 O         -3.8329  -24.0015  -52.4988 O.2       22 UNK        -0.5000 
    124 C124       -6.2689  -21.6830  -51.2390 C.3       23 UNK        -0.0398 
    125 S125       -5.1244  -20.3006  -51.5966 S.3       23 UNK        -0.2404 
    126 C126       -4.1766  -20.2639  -50.0485 C.3       23 UNK        -0.0205 
    127 H127        1.8626  -15.7723  -48.1332 H         1 UNK         0.0600 
    128 H128        1.6266  -16.8263  -46.7332 H         1 UNK         0.0600 
    129 H129        2.9673  -15.6754  -46.7625 H         1 UNK         0.0600 
    130 H130       -0.3215  -14.9252  -47.8969 H         1 UNK         0.3000 
    131 H131       -1.4035  -13.7505  -45.5948 H         1 UNK         0.0600 
    132 H132       -2.0116  -13.1278  -48.5210 H         1 UNK         0.0800 
    133 H133       -2.9729  -12.5781  -47.1759 H         1 UNK         0.0800 
    134 H134       -2.9770  -14.5811  -49.8723 H         1 UNK         0.0800 
    135 H135       -4.5249  -15.2790  -49.4976 H         1 UNK         0.0800 
    136 H136       -4.8207  -17.6777  -49.5045 H         1 UNK         0.1150 
    137 H137       -1.4817  -20.1996  -50.3974 H         1 UNK         0.1150 
    138 H138       -0.8737  -16.0182  -49.6684 H         1 UNK         0.1150 
    139 H139        0.7217  -18.2318  -51.2901 H         1 UNK         0.0800 
    140 H140        1.0292  -17.4495  -49.7588 H         1 UNK         0.0800 
    141 H141       -0.0771  -19.0875  -47.6169 H         1 UNK         0.0800 
    142 H142        1.6077  -19.3655  -47.2789 H         1 UNK         0.0800 
    143 H143        1.0788  -21.9043  -47.7607 H         1 UNK         0.0600 
    144 H144        0.9401  -20.4600  -45.3230 H         1 UNK         0.3000 
    145 H145        0.9264  -23.4088  -43.2483 H         1 UNK         0.0600 
    146 H146        2.8992  -22.2128  -42.3761 H         1 UNK         0.0600 
    147 H147        2.9438  -21.1685  -43.7947 H         1 UNK         0.0600 
    148 H148        3.2730  -22.8901  -43.9534 H         1 UNK         0.0600 
    149 H149        0.8570  -20.6706  -42.5296 H         1 UNK         0.3000 
    150 H150       -2.7353  -20.3553  -42.3923 H         1 UNK         0.0600 
    151 H151       -1.9109  -21.3970  -40.2710 H         1 UNK         0.0600 
    152 H152       -2.0984  -19.6574  -40.1096 H         1 UNK         0.0600 
    153 H153       -0.4925  -20.3558  -40.3040 H         1 UNK         0.0600 
    154 H154       -0.7433  -18.4244  -41.8720 H         1 UNK         0.3000 
    155 H155       -0.4996  -17.0802  -45.2051 H         1 UNK         0.0600 
    156 H156       -2.3871  -15.9836  -44.0664 H         1 UNK         0.0600 
    157 H157       -0.9163  -15.0753  -43.7388 H         1 UNK         0.0600 
    158 H158       -1.5908  -16.1256  -42.5023 H         1 UNK         0.0600 
    159 H159        0.9535  -16.3801  -42.9044 H         1 UNK         0.3000 
    160 H160        3.6800  -18.6938  -43.2595 H         1 UNK         0.0600 
    161 H161        3.3593  -15.6556  -43.5275 H         1 UNK         0.0600 
    162 H162        4.1298  -16.7190  -44.6918 H         1 UNK         0.0600 
    163 H163        4.8489  -16.5020  -43.1051 H         1 UNK         0.0600 
    164 H164        2.9798  -16.7305  -41.2773 H         1 UNK         0.3000 
    165 H165        1.3230  -18.9622  -39.0410 H         1 UNK         0.0600 
    166 H166        3.1282  -18.1886  -37.5279 H         1 UNK         0.0600 
    167 H167        3.7582  -19.3745  -38.6598 H         1 UNK         0.0600 
    168 H168        4.1002  -17.6657  -38.9038 H         1 UNK         0.0600 
    169 H169        2.0979  -16.2112  -38.8503 H         1 UNK         0.3000 
    170 H170       -0.8295  -14.8031  -40.3043 H         1 UNK         0.0600 
    171 H171        0.1688  -14.9054  -37.4056 H         1 UNK         0.0600 
    172 H172       -0.9019  -13.6848  -38.0948 H         1 UNK         0.0600 
    173 H173       -1.4470  -15.3474  -37.9442 H         1 UNK         0.0600 
    174 H174        1.4558  -13.6056  -39.1043 H         1 UNK         0.3000 
    175 H175        2.7845  -12.3023  -40.5805 H         1 UNK         0.0600 
    176 H176        4.4066  -14.8277  -41.2995 H         1 UNK         0.0600 
    177 H177        5.0748  -13.3157  -40.6968 H         1 UNK         0.0600 
    178 H178        4.0646  -14.2985  -39.6574 H         1 UNK         0.0600 
    179 H179        2.4198  -13.2927  -43.1923 H         1 UNK         0.3000 
    180 H180        4.2871  -10.6888  -44.8188 H         1 UNK         0.0600 
    181 H181        4.1345  -12.5490  -46.5154 H         1 UNK         0.0600 
    182 H182        3.9061  -13.7035  -45.2030 H         1 UNK         0.0600 
    183 H183        5.4016  -12.7955  -45.3226 H         1 UNK         0.0600 
    184 H184        1.7936  -12.2283  -45.1696 H         1 UNK         0.3000 
    185 H185       -0.2559  -10.0508  -43.8290 H         1 UNK         0.0600 
    186 H186        0.0774   -9.0749  -46.7096 H         1 UNK         0.0600 
    187 H187       -1.4318   -9.0283  -45.7972 H         1 UNK         0.0600 
    188 H188       -0.0495   -8.0869  -45.2654 H         1 UNK         0.0600 
    189 H189       -0.9512  -11.9917  -44.5334 H         1 UNK         0.3000 
    190 H190       -1.7165  -20.8261  -45.8221 H         1 UNK         0.3000 
    191 H191       -3.7202  -21.6346  -47.7029 H         1 UNK         0.0600 
    192 H192       -4.1963  -20.0169  -45.9073 H         1 UNK         0.0600 
    193 H193       -3.8590  -21.2326  -44.6753 H         1 UNK         0.0600 
    194 H194       -5.2478  -21.4145  -45.7412 H         1 UNK         0.0600 
    195 H195       -2.0383  -23.3752  -45.0791 H         1 UNK         0.3000 
    196 H196       -3.6438  -25.7541  -45.2340 H         1 UNK         0.0600 
    197 H197       -2.3480  -25.1645  -43.2105 H         1 UNK         0.0600 
    198 H198       -0.8335  -25.2926  -44.1022 H         1 UNK         0.0600 
    199 H199       -1.8208  -26.7232  -43.8270 H         1 UNK         0.0600 
    200 H200       -0.6205  -24.7201  -46.8076 H         1 UNK         0.3000 
    201 H201       -0.0553  -27.2013  -48.1557 H         1 UNK         0.0600 
    202 H202        1.6783  -25.4647  -47.6725 H         1 UNK         0.0600 
    203 H203        0.8419  -24.3163  -48.7156 H         1 UNK         0.0600 
    204 H204        1.5780  -25.7595  -49.4016 H         1 UNK         0.0600 
    205 H205       -0.1085  -27.5279  -50.4789 H         1 UNK         0.3000 
    206 H206       -2.4900  -26.4631  -51.8712 H         1 UNK         0.0600 
    207 H207       -1.9298  -28.2156  -53.5338 H         1 UNK         0.0600 
    208 H208       -0.4628  -28.6252  -52.6507 H         1 UNK         0.0600 
    209 H209       -2.0446  -28.9072  -51.9242 H         1 UNK         0.0600 
    210 H210       -1.0703  -24.3458  -51.4457 H         1 UNK         0.3000 
    211 H211        1.1288  -23.8292  -53.2553 H         1 UNK         0.0600 
    212 H212       -0.5357  -21.9947  -51.4555 H         1 UNK         0.0600 
    213 H213        0.9673  -21.5374  -52.2493 H         1 UNK         0.0600 
    214 H214        0.9737  -22.7848  -51.0111 H         1 UNK         0.0600 
    215 H215       -2.3033  -23.5783  -53.5357 H         1 UNK         0.3000 
    216 H216       -3.7118  -23.0806  -55.0752 H         1 UNK         0.0600 
    217 H217       -3.1416  -22.6525  -57.4353 H         1 UNK         0.0600 
    218 H218       -2.2233  -24.0149  -56.8130 H         1 UNK         0.0600 
    219 H219       -1.4455  -22.4487  -57.0307 H         1 UNK         0.0600 
    220 H220       -1.1231  -20.6807  -55.3250 H         1 UNK         0.3000 
    221 H221       -0.9233  -18.4981  -55.2425 H         1 UNK         0.0600 
    222 H222       -2.3152  -17.1968  -53.6409 H         1 UNK         0.0600 
    223 H223       -3.4504  -18.5322  -53.5106 H         1 UNK         0.0600 
    224 H224       -1.7924  -18.7256  -52.9541 H         1 UNK         0.0600 
    225 H225       -4.3882  -19.0280  -55.7173 H         1 UNK         0.3000 
    226 H226       -4.6513  -18.0285  -58.3012 H         1 UNK         0.0600 
    227 H227       -4.2452  -15.7247  -57.4629 H         1 UNK         0.0600 
    228 H228       -5.9424  -15.8811  -57.8670 H         1 UNK         0.0600 
    229 H229       -5.4373  -15.9390  -56.1825 H         1 UNK         0.0600 
    230 H230       -6.1003  -18.4507  -55.0889 H         1 UNK         0.3000 
    231 H231       -8.7945  -18.9184  -56.0427 H         1 UNK         0.0600 
    232 H232       -7.5032  -19.2699  -53.2841 H         1 UNK         0.0600 
    233 H233       -9.2305  -19.2660  -53.6146 H         1 UNK         0.0600 
    234 H234       -8.2917  -17.8055  -53.8704 H         1 UNK         0.0600 
    235 H235       -6.0907  -20.9147  -55.9912 H         1 UNK         0.3000 
    236 H236       -5.6568  -23.0643  -56.2688 H         1 UNK         0.0600 
    237 H237       -8.6348  -23.7259  -56.4352 H         1 UNK         0.0600 
    238 H238       -7.6302  -23.2496  -57.8045 H         1 UNK         0.0600 
    239 H239       -7.2887  -24.7354  -56.9328 H         1 UNK         0.0600 
    240 H240       -5.7141  -21.8061  -53.7952 H         1 UNK         0.3000 
    241 H241       -6.8040  -23.6726  -51.8080 H         1 UNK         0.0600 
    242 H242       -3.6215  -24.4636  -50.1289 H         1 UNK         0.3800 
    243 H243       -5.1742  -23.8221  -49.6747 H         1 UNK         0.3800 
    244 H244       -6.2732  -21.9020  -50.1707 H         1 UNK         0.0800 
    245 H245       -7.2771  -21.3265  -51.4546 H         1 UNK         0.0800 
    246 H246       -3.6079  -21.1916  -49.9652 H         1 UNK         0.0800 
    247 H247       -4.8654  -20.2332  -49.2034 H         1 UNK         0.0800 
@<TRIPOS>BOND
     1    1    2 1    
     2    1  127 1    
     3    1  128 1    
     4    1  129 1    
     5    2    3 2    
     6    2    4 am   BACKBONE|DICT|INTERRES
     7    4    5 1    
     8    4  130 1    
     9    5    6 1    
    10    5   65 1    
    11    5  131 1    
    12    6    7 1    
    13    6  132 1    
    14    6  133 1    
    15    7    8 1    
    16    8    9 1    
    17    8  134 1    
    18    8  135 1    
    19    9   10 ar   
    20    9   14 ar   
    21   10   11 ar   
    22   10  136 1    
    23   11   12 ar   
    24   11  126 1    
    25   12   13 ar   
    26   12  137 1    
    27   13   14 ar   
    28   13   15 1    
    29   14  138 1    
    30   15   16 1    
    31   15  139 1    
    32   15  140 1    
    33   16   17 1    
    34   17   18 1    
    35   17  141 1    
    36   17  142 1    
    37   18   19 1    
    38   18   67 1    
    39   18  143 1    
    40   19   20 am   BACKBONE|DICT|INTERRES
    41   19  144 1    
    42   20   21 2    
    43   20   22 1    
    44   22   23 1    
    45   22   24 1    
    46   22  145 1    
    47   23  146 1    
    48   23  147 1    
    49   23  148 1    
    50   24   25 am   BACKBONE|DICT|INTERRES
    51   24  149 1    
    52   25   26 2    
    53   25   27 1    
    54   27   28 1    
    55   27   29 1    
    56   27  150 1    
    57   28  151 1    
    58   28  152 1    
    59   28  153 1    
    60   29   30 am   BACKBONE|DICT|INTERRES
    61   29  154 1    
    62   30   31 2    
    63   30   32 1    
    64   32   33 1    
    65   32   34 1    
    66   32  155 1    
    67   33  156 1    
    68   33  157 1    
    69   33  158 1    
    70   34   35 am   BACKBONE|DICT|INTERRES
    71   34  159 1    
    72   35   36 2    
    73   35   37 1    
    74   37   38 1    
    75   37   39 1    
    76   37  160 1    
    77   38  161 1    
    78   38  162 1    
    79   38  163 1    
    80   39   40 am   BACKBONE|DICT|INTERRES
    81   39  164 1    
    82   40   41 2    
    83   40   42 1    
    84   42   43 1    
    85   42   44 1    
    86   42  165 1    
    87   43  166 1    
    88   43  167 1    
    89   43  168 1    
    90   44   45 am   BACKBONE|DICT|INTERRES
    91   44  169 1    
    92   45   46 2    
    93   45   47 1    
    94   47   48 1    
    95   47   49 1    
    96   47  170 1    
    97   48  171 1    
    98   48  172 1    
    99   48  173 1    
   100   49   50 am   BACKBONE|DICT|INTERRES
   101   49  174 1    
   102   50   51 2    
   103   50   52 1    
   104   52   53 1    
   105   52   54 1    
   106   52  175 1    
   107   53  176 1    
   108   53  177 1    
   109   53  178 1    
   110   54   55 am   BACKBONE|DICT|INTERRES
   111   54  179 1    
   112   55   56 2    
   113   55   57 1    
   114   57   58 1    
   115   57   59 1    
   116   57  180 1    
   117   58  181 1    
   118   58  182 1    
   119   58  183 1    
   120   59   60 am   BACKBONE|DICT|INTERRES
   121   59  184 1    
   122   60   61 2    
   123   60   62 1    
   124   62   63 1    
   125   62   64 1    
   126   62  185 1    
   127   63  186 1    
   128   63  187 1    
   129   63  188 1    
   130   64   65 am   BACKBONE|DICT|INTERRES
   131   64  189 1    
   132   65   66 2    
   133   67   68 2    
   134   67   69 am   BACKBONE|DICT|INTERRES
   135   69   70 1    
   136   69  190 1    
   137   70   71 1    
   138   70   72 1    
   139   70  191 1    
   140   71  192 1    
   141   71  193 1    
   142   71  194 1    
   143   72   73 2    
   144   72   74 am   BACKBONE|DICT|INTERRES
   145   74   75 1    
   146   74  195 1    
   147   75   76 1    
   148   75   77 1    
   149   75  196 1    
   150   76  197 1    
   151   76  198 1    
   152   76  199 1    
   153   77   78 2    
   154   77   79 am   BACKBONE|DICT|INTERRES
   155   79   80 1    
   156   79  200 1    
   157   80   81 1    
   158   80   82 1    
   159   80  201 1    
   160   81  202 1    
   161   81  203 1    
   162   81  204 1    
   163   82   83 2    
   164   82   84 am   BACKBONE|DICT|INTERRES
   165   84   85 1    
   166   84  205 1    
   167   85   86 1    
   168   85   87 1    
   169   85  206 1    
   170   86  207 1    
   171   86  208 1    
   172   86  209 1    
   173   87   88 2    
   174   87   89 am   BACKBONE|DICT|INTERRES
   175   89   90 1    
   176   89  210 1    
   177   90   91 1    
   178   90   92 1    
   179   90  211 1    
   180   91  212 1    
   181   91  213 1    
   182   91  214 1    
   183   92   93 2    
   184   92   94 am   BACKBONE|DICT|INTERRES
   185   94   95 1    
   186   94  215 1    
   187   95   96 1    
   188   95   97 1    
   189   95  216 1    
   190   96  217 1    
   191   96  218 1    
   192   96  219 1    
   193   97   98 2    
   194   97   99 am   BACKBONE|DICT|INTERRES
   195   99  100 1    
   196   99  220 1    
   197  100  101 1    
   198  100  102 1    
   199  100  221 1    
   200  101  222 1    
   201  101  223 1    
   202  101  224 1    
   203  102  103 2    
   204  102  104 am   BACKBONE|DICT|INTERRES
   205  104  105 1    
   206  104  225 1    
   207  105  106 1    
   208  105  107 1    
   209  105  226 1    
   210  106  227 1    
   211  106  228 1    
   212  106  229 1    
   213  107  108 2    
   214  107  109 am   BACKBONE|DICT|INTERRES
   215  109  110 1    
   216  109  230 1    
   217  110  111 1    
   218  110  112 1    
   219  110  231 1    
   220  111  232 1    
   221  111  233 1    
   222  111  234 1    
   223  112  113 2    
   224  112  114 am   BACKBONE|DICT|INTERRES
   225  114  115 1    
   226  114  235 1    
   227  115  116 1    
   228  115  117 1    
   229  115  236 1    
   230  116  237 1    
   231  116  238 1    
   232  116  239 1    
   233  117  118 2    
   234  117  119 am   BACKBONE|DICT|INTERRES
   235  119  120 1    
   236  119  240 1    
   237  120  121 1    
   238  120  124 1    
   239  120  241 1    
   240  121  122 am   BACKBONE|DICT|INTERRES
   241  121  123 2    
   242  122  242 1    
   243  122  243 1    
   244  124  125 1    
   245  124  244 1    
   246  124  245 1    
   247  125  126 1    
   248  126  246 1    
   249  126  247 1    
@<TRIPOS>SUBSTRUCTURE
     1 UNK         1 GROUP             0       ****    0 ROOT    
