@<TRIPOS>MOLECULE
3R540
247   249    1
SMALL
USER_CHARGES


@<TRIPOS>ATOM
      1 CA         -1.8542   -7.8694  -49.6997 C.3       0 UNK        -0.1800 
      2 C          -2.2871   -9.2792  -50.0773 C.2       0 UNK         0.5000 
      3 O          -3.4713   -9.5136  -50.3189 O.2       0 UNK        -0.5000 
      4 N          -1.3362  -10.2159  -50.1294 N.am      1 UNK        -0.5000 
      5 CA         -1.5371  -11.6150  -50.4952 C.3       1 UNK         0.1400 
      6 C6         -2.1187  -12.4456  -49.3198 C.3       23 UNK        -0.0398 
      7 S7         -2.7795  -14.0666  -49.8376 S.3       23 UNK        -0.2404 
      8 C8         -3.7889  -14.4870  -48.3785 C.3       23 UNK        -0.0205 
      9 C9         -4.4822  -15.8423  -48.4867 C.ar      23 UNK        -0.0193 
     10 C10        -5.2031  -16.1875  -49.6342 C.ar      23 UNK        -0.1150 
     11 C11        -5.8834  -17.4053  -49.7104 C.ar      23 UNK        -0.0193 
     12 C12        -5.8604  -18.2747  -48.6163 C.ar      23 UNK        -0.1150 
     13 C13        -5.1517  -17.9450  -47.4542 C.ar      23 UNK        -0.0193 
     14 C14        -4.4585  -16.7297  -47.4045 C.ar      23 UNK        -0.1150 
     15 C15        -5.1779  -18.8463  -46.2192 C.3       23 UNK        -0.0205 
     16 S16        -5.1405  -20.6321  -46.5961 S.3       23 UNK        -0.2404 
     17 C17        -4.9666  -21.3565  -44.9296 C.3       23 UNK        -0.0398 
     18 CA         -3.5708  -21.9957  -44.7091 C.3       11 UNK         0.1400 
     19 N          -3.1609  -22.0680  -43.3025 N.am      11 UNK        -0.5000 
     20 C          -3.7971  -22.6473  -42.2751 C.2       10 UNK         0.5000 
     21 O          -4.8931  -23.1975  -42.3828 O.2       10 UNK        -0.5000 
     22 CA         -3.0786  -22.6566  -40.9146 C.3       10 UNK         0.1400 
     23 CB         -2.2459  -23.9394  -40.7718 C.3       10 UNK        -0.1800 
     24 N          -2.1955  -21.4999  -40.7477 N.am      10 UNK        -0.5000 
     25 C          -2.2889  -20.5973  -39.7605 C.2       9 UNK         0.5000 
     26 O          -3.1102  -20.6652  -38.8449 O.2       9 UNK        -0.5000 
     27 CA         -1.3068  -19.4057  -39.7975 C.3       9 UNK         0.1400 
     28 CB         -0.0746  -19.6972  -38.9277 C.3       9 UNK        -0.1800 
     29 N          -0.8570  -19.0598  -41.1460 N.am      9 UNK        -0.5000 
     30 C          -1.6485  -18.6314  -42.1382 C.2       8 UNK         0.5000 
     31 O          -2.8425  -18.3688  -41.9937 O.2       8 UNK        -0.5000 
     32 CA         -1.0195  -18.5143  -43.5396 C.3       8 UNK         0.1400 
     33 CB         -0.7747  -17.0399  -43.8943 C.3       8 UNK        -0.1800 
     34 N           0.2260  -19.2684  -43.7323 N.am      8 UNK        -0.5000 
     35 C           0.3849  -20.5932  -43.5923 C.2       7 UNK         0.5000 
     36 O          -0.5143  -21.3541  -43.2361 O.2       7 UNK        -0.5000 
     37 CA          1.7903  -21.1587  -43.8469 C.3       7 UNK         0.1400 
     38 CB          2.0031  -21.4428  -45.3401 C.3       7 UNK        -0.1800 
     39 N           2.8280  -20.2505  -43.3625 N.am      7 UNK        -0.5000 
     40 C           3.2225  -20.1781  -42.0832 C.2       6 UNK         0.5000 
     41 O           2.7740  -20.8949  -41.1884 O.2       6 UNK        -0.5000 
     42 CA          4.2881  -19.1200  -41.7412 C.3       6 UNK         0.1400 
     43 CB          5.6994  -19.6957  -41.9325 C.3       6 UNK        -0.1800 
     44 N           4.1547  -17.9012  -42.5393 N.am      6 UNK        -0.5000 
     45 C           3.1539  -17.0189  -42.4139 C.2       5 UNK         0.5000 
     46 O           2.2537  -17.1173  -41.5796 O.2       5 UNK        -0.5000 
     47 CA          3.1423  -15.8440  -43.4114 C.3       5 UNK         0.1400 
     48 CB          3.9254  -14.6506  -42.8441 C.3       5 UNK        -0.1800 
     49 N           3.6660  -16.1759  -44.7422 N.am      5 UNK        -0.5000 
     50 C           3.1503  -17.1071  -45.5546 C.2       4 UNK         0.5000 
     51 O           2.2323  -17.8637  -45.2297 O.2       4 UNK        -0.5000 
     52 CA          3.7667  -17.2322  -46.9556 C.3       4 UNK         0.1400 
     53 CB          4.5090  -18.5692  -47.1052 C.3       4 UNK        -0.1800 
     54 N           2.6915  -17.1734  -47.9366 N.am      4 UNK        -0.5000 
     55 C           2.1738  -16.0480  -48.4368 C.2       3 UNK         0.5000 
     56 O           2.6549  -14.9258  -48.2589 O.2       3 UNK        -0.5000 
     57 CA          0.8428  -16.2136  -49.1922 C.3       3 UNK         0.1400 
     58 CB         -0.3199  -16.1193  -48.1918 C.3       3 UNK        -0.1800 
     59 N           0.6242  -15.2251  -50.2446 N.am      3 UNK        -0.5000 
     60 C           1.3915  -15.0274  -51.3251 C.2       2 UNK         0.5000 
     61 O           2.4059  -15.6802  -51.5721 O.2       2 UNK        -0.5000 
     62 CA          0.9341  -13.9362  -52.3196 C.3       2 UNK         0.1400 
     63 CB          0.5912  -14.5478  -53.6887 C.3       2 UNK        -0.1800 
     64 N          -0.2294  -13.1794  -51.8474 N.am      2 UNK        -0.5000 
     65 C          -0.1824  -12.1644  -50.9768 C.2       1 UNK         0.5000 
     66 O           0.8659  -11.6846  -50.5364 O.2       1 UNK        -0.5000 
     67 C          -3.4075  -23.3483  -45.4350 C.2       11 UNK         0.5000 
     68 O          -2.7620  -23.4025  -46.4822 O.2       11 UNK        -0.5000 
     69 N          -3.9321  -24.4231  -44.8329 N.am      12 UNK        -0.5000 
     70 CA         -3.8574  -25.8078  -45.3079 C.3       12 UNK         0.1400 
     71 CB         -4.8692  -26.6472  -44.5117 C.3       12 UNK        -0.1800 
     72 C          -2.4479  -26.4340  -45.2266 C.2       12 UNK         0.5000 
     73 O          -2.2451  -27.5334  -45.7428 O.2       12 UNK        -0.5000 
     74 N          -1.4981  -25.7327  -44.5909 N.am      13 UNK        -0.5000 
     75 CA         -0.0826  -26.1001  -44.4957 C.3       13 UNK         0.1400 
     76 CB          0.5905  -25.1905  -43.4553 C.3       13 UNK        -0.1800 
     77 C           0.6756  -26.0324  -45.8390 C.2       13 UNK         0.5000 
     78 O           1.7721  -26.5844  -45.9395 O.2       13 UNK        -0.5000 
     79 N           0.0914  -25.3639  -46.8385 N.am      14 UNK        -0.5000 
     80 CA          0.5995  -25.2399  -48.1985 C.3       14 UNK         0.1400 
     81 CB          1.5484  -24.0294  -48.2752 C.3       14 UNK        -0.1800 
     82 C          -0.5939  -25.1256  -49.1629 C.2       14 UNK         0.5000 
     83 O          -1.7439  -25.2723  -48.7404 O.2       14 UNK        -0.5000 
     84 N          -0.3123  -24.8640  -50.4456 N.am      15 UNK        -0.5000 
     85 CA         -1.3064  -24.6297  -51.4952 C.3       15 UNK         0.1400 
     86 CB         -0.6136  -24.7345  -52.8657 C.3       15 UNK        -0.1800 
     87 C          -1.9937  -23.2645  -51.3004 C.2       15 UNK         0.5000 
     88 O          -1.5715  -22.2781  -51.9056 O.2       15 UNK        -0.5000 
     89 N          -2.9830  -23.2232  -50.3959 N.am      16 UNK        -0.5000 
     90 CA         -3.7178  -22.0389  -49.9353 C.3       16 UNK         0.1400 
     91 CB         -4.6374  -21.5027  -51.0501 C.3       16 UNK        -0.1800 
     92 C          -2.7489  -20.9742  -49.3894 C.2       16 UNK         0.5000 
     93 O          -2.5908  -19.9084  -49.9827 O.2       16 UNK        -0.5000 
     94 N          -2.0185  -21.3500  -48.3294 N.am      17 UNK        -0.5000 
     95 CA         -0.9383  -20.5880  -47.6914 C.3       17 UNK         0.1400 
     96 CB         -1.4879  -19.3012  -47.0539 C.3       17 UNK        -0.1800 
     97 C           0.2600  -20.2947  -48.6203 C.2       17 UNK         0.5000 
     98 O           1.0482  -19.3982  -48.3276 O.2       17 UNK        -0.5000 
     99 N           0.3687  -21.0541  -49.7189 N.am      18 UNK        -0.5000 
    100 CA         1.3031  -20.9023  -50.8369 C.3       18 UNK         0.1400 
    101 CB         2.7733  -20.8563  -50.3658 C.3       18 UNK        -0.1800 
    102 C          0.9444  -19.7374  -51.7847 C.2       18 UNK         0.5000 
    103 O          1.7521  -19.4101  -52.6552 O.2       18 UNK        -0.5000 
    104 N         -0.2561  -19.1517  -51.6442 N.am      19 UNK        -0.5000 
    105 CA        -0.7753  -18.1375  -52.5632 C.3       19 UNK         0.1400 
    106 CB        -1.8704  -17.3146  -51.8689 C.3       19 UNK        -0.1800 
    107 C         -1.3159  -18.7546  -53.8661 C.2       19 UNK         0.5000 
    108 O         -1.3024  -18.0793  -54.8956 O.2       19 UNK        -0.5000 
    109 N         -1.7702  -20.0165  -53.8004 N.am      20 UNK        -0.5000 
    110 CA        -2.3065  -20.8760  -54.8638 C.3       20 UNK         0.1400 
    111 CB        -1.2446  -21.1516  -55.9443 C.3       20 UNK        -0.1800 
    112 C         -3.6339  -20.4041  -55.4911 C.2       20 UNK         0.5000 
    113 O         -4.5526  -21.2126  -55.6295 O.2       20 UNK        -0.5000 
    114 N         -3.7185  -19.1245  -55.8608 N.am      21 UNK        -0.5000 
    115 CA        -4.8777  -18.4754  -56.4567 C.3       21 UNK         0.1400 
    116 CB        -4.7182  -18.4537  -57.9869 C.3       21 UNK        -0.1800 
    117 C         -4.9617  -17.0524  -55.8751 C.2       21 UNK         0.5000 
    118 O         -4.0627  -16.2590  -56.1536 O.2       21 UNK        -0.5000 
    119 N         -5.9756  -16.6812  -55.0794 N.am      22 UNK        -0.5000 
    120 CA        -7.1331  -17.4527  -54.5781 C.3       22 UNK         0.1400 
    121 C         -8.1898  -17.8382  -55.6579 C.2       22 UNK         0.5000 
    122 N         -8.1777  -17.2253  -56.8350 N.am      22 UNK        -0.7600 
    123 O         -9.0399  -18.6928  -55.4265 O.2       22 UNK        -0.5000 
    124 C124       -6.7661  -18.6372  -53.6341 C.3       23 UNK        -0.0398 
    125 S125       -5.5612  -18.1937  -52.3396 S.3       23 UNK        -0.2404 
    126 C126       -6.6682  -17.7632  -50.9632 C.3       23 UNK        -0.0205 
    127 H127       -2.3790   -7.5436  -48.8015 H         1 UNK         0.0600 
    128 H128       -0.7825   -7.8127  -49.5067 H         1 UNK         0.0600 
    129 H129       -2.0918   -7.1751  -50.5058 H         1 UNK         0.0600 
    130 H130       -0.3661   -9.9794  -49.9564 H         1 UNK         0.3000 
    131 H131       -2.2312  -11.6457  -51.3383 H         1 UNK         0.0600 
    132 H132       -2.9389  -11.8954  -48.8566 H         1 UNK         0.0800 
    133 H133       -1.3757  -12.5913  -48.5334 H         1 UNK         0.0800 
    134 H134       -4.5515  -13.7201  -48.2373 H         1 UNK         0.0800 
    135 H135       -3.1486  -14.4581  -47.4955 H         1 UNK         0.0800 
    136 H136       -5.2379  -15.5066  -50.4729 H         1 UNK         0.1150 
    137 H137       -6.4092  -19.2040  -48.6666 H         1 UNK         0.1150 
    138 H138       -3.9217  -16.4594  -46.5060 H         1 UNK         0.1150 
    139 H139       -4.3379  -18.6083  -45.5652 H         1 UNK         0.0800 
    140 H140       -6.0830  -18.6256  -45.6521 H         1 UNK         0.0800 
    141 H141       -5.7653  -22.0835  -44.7735 H         1 UNK         0.0800 
    142 H142       -5.1349  -20.5723  -44.1901 H         1 UNK         0.0800 
    143 H143       -2.8304  -21.3298  -45.1511 H         1 UNK         0.0600 
    144 H144       -2.2157  -21.7260  -43.1416 H         1 UNK         0.3000 
    145 H145       -3.8547  -22.6654  -40.1468 H         1 UNK         0.0600 
    146 H146       -1.8003  -24.0095  -39.7795 H         1 UNK         0.0600 
    147 H147       -2.8606  -24.8289  -40.9168 H         1 UNK         0.0600 
    148 H148       -1.4388  -23.9711  -41.5032 H         1 UNK         0.0600 
    149 H149       -1.4878  -21.3619  -41.4602 H         1 UNK         0.3000 
    150 H150       -1.8241  -18.5377  -39.3837 H         1 UNK         0.0600 
    151 H151       -0.3651  -19.9289  -37.9022 H         1 UNK         0.0600 
    152 H152        0.5943  -18.8369  -38.8897 H         1 UNK         0.0600 
    153 H153        0.4941  -20.5466  -39.3089 H         1 UNK         0.0600 
    154 H154        0.1177  -19.2223  -41.3550 H         1 UNK         0.3000 
    155 H155       -1.7549  -18.9170  -44.2357 H         1 UNK         0.0600 
    156 H156       -0.0638  -16.5800  -43.2080 H         1 UNK         0.0600 
    157 H157       -1.7002  -16.4652  -43.8426 H         1 UNK         0.0600 
    158 H158       -0.3829  -16.9311  -44.9050 H         1 UNK         0.0600 
    159 H159        1.0152  -18.7318  -44.0844 H         1 UNK         0.3000 
    160 H160        1.8723  -22.1074  -43.3123 H         1 UNK         0.0600 
    161 H161        3.0001  -21.8407  -45.5292 H         1 UNK         0.0600 
    162 H162        1.8817  -20.5430  -45.9434 H         1 UNK         0.0600 
    163 H163        1.2877  -22.1841  -45.6967 H         1 UNK         0.0600 
    164 H164        3.1915  -19.5807  -44.0261 H         1 UNK         0.3000 
    165 H165        4.1673  -18.8549  -40.6885 H         1 UNK         0.0600 
    166 H166        6.4623  -18.9806  -41.6241 H         1 UNK         0.0600 
    167 H167        5.8381  -20.5960  -41.3323 H         1 UNK         0.0600 
    168 H168        5.8891  -19.9625  -42.9730 H         1 UNK         0.0600 
    169 H169        4.8539  -17.7374  -43.2484 H         1 UNK         0.3000 
    170 H170        2.1029  -15.5358  -43.5384 H         1 UNK         0.0600 
    171 H171        3.5440  -14.3634  -41.8632 H         1 UNK         0.0600 
    172 H172        4.9851  -14.8820  -42.7294 H         1 UNK         0.0600 
    173 H173        3.8396  -13.7779  -43.4918 H         1 UNK         0.0600 
    174 H174        4.4230  -15.5991  -45.0800 H         1 UNK         0.3000 
    175 H175        4.4738  -16.4177  -47.1254 H         1 UNK         0.0600 
    176 H176        3.8407  -19.4205  -46.9699 H         1 UNK         0.0600 
    177 H177        4.9607  -18.6577  -48.0934 H         1 UNK         0.0600 
    178 H178        5.3102  -18.6577  -46.3706 H         1 UNK         0.0600 
    179 H179        2.1635  -18.0378  -48.0621 H         1 UNK         0.3000 
    180 H180        0.8300  -17.1964  -49.6652 H         1 UNK         0.0600 
    181 H181       -0.4368  -15.1065  -47.8048 H         1 UNK         0.0600 
    182 H182       -0.1511  -16.7703  -47.3354 H         1 UNK         0.0600 
    183 H183       -1.2639  -16.4187  -48.6454 H         1 UNK         0.0600 
    184 H184       -0.1864  -14.6357  -50.1327 H         1 UNK         0.3000 
    185 H185        1.7748  -13.2525  -52.4554 H         1 UNK         0.0600 
    186 H186        1.4219  -15.1375  -54.0786 H         1 UNK         0.0600 
    187 H187       -0.2791  -15.2019  -53.6335 H         1 UNK         0.0600 
    188 H188        0.3764  -13.7704  -54.4221 H         1 UNK         0.0600 
    189 H189       -1.1320  -13.5151  -52.1538 H         1 UNK         0.3000 
    190 H190       -4.4269  -24.2690  -43.9593 H         1 UNK         0.3000 
    191 H191       -4.1511  -25.8192  -46.3596 H         1 UNK         0.0600 
    192 H192       -4.6305  -26.6587  -43.4474 H         1 UNK         0.0600 
    193 H193       -4.8820  -27.6816  -44.8576 H         1 UNK         0.0600 
    194 H194       -5.8808  -26.2568  -44.6246 H         1 UNK         0.0600 
    195 H195       -1.7594  -24.8416  -44.1982 H         1 UNK         0.3000 
    196 H196       -0.0201  -27.1315  -44.1427 H         1 UNK         0.0600 
    197 H197        0.4594  -24.1356  -43.6985 H         1 UNK         0.0600 
    198 H198        1.6625  -25.3833  -43.3948 H         1 UNK         0.0600 
    199 H199        0.1803  -25.3637  -42.4610 H         1 UNK         0.0600 
    200 H200       -0.8478  -25.0049  -46.7100 H         1 UNK         0.3000 
    201 H201        1.1450  -26.1459  -48.4702 H         1 UNK         0.0600 
    202 H202        1.9567  -23.8956  -49.2768 H         1 UNK         0.0600 
    203 H203        2.3960  -24.1520  -47.6007 H         1 UNK         0.0600 
    204 H204        1.0380  -23.1098  -47.9949 H         1 UNK         0.0600 
    205 H205        0.6535  -24.7655  -50.7219 H         1 UNK         0.3000 
    206 H206       -2.0707  -25.4081  -51.4436 H         1 UNK         0.0600 
    207 H207       -0.1977  -25.7300  -53.0216 H         1 UNK         0.0600 
    208 H208       -1.3209  -24.5479  -53.6750 H         1 UNK         0.0600 
    209 H209        0.1979  -24.0128  -52.9679 H         1 UNK         0.0600 
    210 H210       -3.1522  -24.0719  -49.8678 H         1 UNK         0.3000 
    211 H211       -4.3481  -22.3567  -49.1035 H         1 UNK         0.0600 
    212 H212       -4.0731  -21.1296  -51.9057 H         1 UNK         0.0600 
    213 H213       -5.2472  -20.6797  -50.6770 H         1 UNK         0.0600 
    214 H214       -5.3174  -22.2751  -51.4083 H         1 UNK         0.0600 
    215 H215       -2.2322  -22.2443  -47.8928 H         1 UNK         0.3000 
    216 H216       -0.5597  -21.2198  -46.8884 H         1 UNK         0.0600 
    217 H217       -0.7221  -18.8122  -46.4535 H         1 UNK         0.0600 
    218 H218       -2.3296  -19.5118  -46.4017 H         1 UNK         0.0600 
    219 H219       -1.8287  -18.5899  -47.8055 H         1 UNK         0.0600 
    220 H220       -0.3745  -21.7181  -49.8829 H         1 UNK         0.3000 
    221 H221        1.1865  -21.8093  -51.4315 H         1 UNK         0.0600 
    222 H222        3.0251  -19.9000  -49.9065 H         1 UNK         0.0600 
    223 H223        2.9871  -21.6427  -49.6427 H         1 UNK         0.0600 
    224 H224        3.4533  -20.9953  -51.2067 H         1 UNK         0.0600 
    225 H225       -0.9018  -19.4850  -50.9336 H         1 UNK         0.3000 
    226 H226        0.0385  -17.4596  -52.8264 H         1 UNK         0.0600 
    227 H227       -2.7390  -17.9246  -51.6260 H         1 UNK         0.0600 
    228 H228       -1.5123  -16.8724  -50.9422 H         1 UNK         0.0600 
    229 H229       -2.2155  -16.5010  -52.5077 H         1 UNK         0.0600 
    230 H230       -1.7241  -20.4774  -52.8968 H         1 UNK         0.3000 
    231 H231       -2.5229  -21.8292  -54.3795 H         1 UNK         0.0600 
    232 H232       -0.3408  -21.5756  -55.5063 H         1 UNK         0.0600 
    233 H233       -0.9643  -20.2459  -56.4826 H         1 UNK         0.0600 
    234 H234       -1.6155  -21.8659  -56.6802 H         1 UNK         0.0600 
    235 H235       -2.9201  -18.5205  -55.6710 H         1 UNK         0.3000 
    236 H236       -5.7797  -19.0412  -56.2409 H         1 UNK         0.0600 
    237 H237       -4.6778  -19.4651  -58.3916 H         1 UNK         0.0600 
    238 H238       -5.5615  -17.9482  -58.4587 H         1 UNK         0.0600 
    239 H239       -3.8084  -17.9361  -58.2936 H         1 UNK         0.0600 
    240 H240       -5.9563  -15.7300  -54.7437 H         1 UNK         0.3000 
    241 H241       -7.6684  -16.7367  -53.9537 H         1 UNK         0.0600 
    242 H242       -7.5223  -16.4839  -57.0268 H         1 UNK         0.3800 
    243 H243       -8.8692  -17.4710  -57.5266 H         1 UNK         0.3800 
    244 H244       -7.6653  -19.0229  -53.1510 H         1 UNK         0.0800 
    245 H245       -6.3593  -19.4820  -54.1870 H         1 UNK         0.0800 
    246 H246       -7.3404  -18.5994  -50.7647 H         1 UNK         0.0800 
    247 H247       -7.2961  -16.9194  -51.2524 H         1 UNK         0.0800 
@<TRIPOS>BOND
     1    1    2 1    
     2    1  127 1    
     3    1  128 1    
     4    1  129 1    
     5    2    3 2    
     6    2    4 am   BACKBONE|DICT|INTERRES
     7    4    5 1    
     8    4  130 1    
     9    5    6 1    
    10    5   65 1    
    11    5  131 1    
    12    6    7 1    
    13    6  132 1    
    14    6  133 1    
    15    7    8 1    
    16    8    9 1    
    17    8  134 1    
    18    8  135 1    
    19    9   10 ar   
    20    9   14 ar   
    21   10   11 ar   
    22   10  136 1    
    23   11   12 ar   
    24   11  126 1    
    25   12   13 ar   
    26   12  137 1    
    27   13   14 ar   
    28   13   15 1    
    29   14  138 1    
    30   15   16 1    
    31   15  139 1    
    32   15  140 1    
    33   16   17 1    
    34   17   18 1    
    35   17  141 1    
    36   17  142 1    
    37   18   19 1    
    38   18   67 1    
    39   18  143 1    
    40   19   20 am   BACKBONE|DICT|INTERRES
    41   19  144 1    
    42   20   21 2    
    43   20   22 1    
    44   22   23 1    
    45   22   24 1    
    46   22  145 1    
    47   23  146 1    
    48   23  147 1    
    49   23  148 1    
    50   24   25 am   BACKBONE|DICT|INTERRES
    51   24  149 1    
    52   25   26 2    
    53   25   27 1    
    54   27   28 1    
    55   27   29 1    
    56   27  150 1    
    57   28  151 1    
    58   28  152 1    
    59   28  153 1    
    60   29   30 am   BACKBONE|DICT|INTERRES
    61   29  154 1    
    62   30   31 2    
    63   30   32 1    
    64   32   33 1    
    65   32   34 1    
    66   32  155 1    
    67   33  156 1    
    68   33  157 1    
    69   33  158 1    
    70   34   35 am   BACKBONE|DICT|INTERRES
    71   34  159 1    
    72   35   36 2    
    73   35   37 1    
    74   37   38 1    
    75   37   39 1    
    76   37  160 1    
    77   38  161 1    
    78   38  162 1    
    79   38  163 1    
    80   39   40 am   BACKBONE|DICT|INTERRES
    81   39  164 1    
    82   40   41 2    
    83   40   42 1    
    84   42   43 1    
    85   42   44 1    
    86   42  165 1    
    87   43  166 1    
    88   43  167 1    
    89   43  168 1    
    90   44   45 am   BACKBONE|DICT|INTERRES
    91   44  169 1    
    92   45   46 2    
    93   45   47 1    
    94   47   48 1    
    95   47   49 1    
    96   47  170 1    
    97   48  171 1    
    98   48  172 1    
    99   48  173 1    
   100   49   50 am   BACKBONE|DICT|INTERRES
   101   49  174 1    
   102   50   51 2    
   103   50   52 1    
   104   52   53 1    
   105   52   54 1    
   106   52  175 1    
   107   53  176 1    
   108   53  177 1    
   109   53  178 1    
   110   54   55 am   BACKBONE|DICT|INTERRES
   111   54  179 1    
   112   55   56 2    
   113   55   57 1    
   114   57   58 1    
   115   57   59 1    
   116   57  180 1    
   117   58  181 1    
   118   58  182 1    
   119   58  183 1    
   120   59   60 am   BACKBONE|DICT|INTERRES
   121   59  184 1    
   122   60   61 2    
   123   60   62 1    
   124   62   63 1    
   125   62   64 1    
   126   62  185 1    
   127   63  186 1    
   128   63  187 1    
   129   63  188 1    
   130   64   65 am   BACKBONE|DICT|INTERRES
   131   64  189 1    
   132   65   66 2    
   133   67   68 2    
   134   67   69 am   BACKBONE|DICT|INTERRES
   135   69   70 1    
   136   69  190 1    
   137   70   71 1    
   138   70   72 1    
   139   70  191 1    
   140   71  192 1    
   141   71  193 1    
   142   71  194 1    
   143   72   73 2    
   144   72   74 am   BACKBONE|DICT|INTERRES
   145   74   75 1    
   146   74  195 1    
   147   75   76 1    
   148   75   77 1    
   149   75  196 1    
   150   76  197 1    
   151   76  198 1    
   152   76  199 1    
   153   77   78 2    
   154   77   79 am   BACKBONE|DICT|INTERRES
   155   79   80 1    
   156   79  200 1    
   157   80   81 1    
   158   80   82 1    
   159   80  201 1    
   160   81  202 1    
   161   81  203 1    
   162   81  204 1    
   163   82   83 2    
   164   82   84 am   BACKBONE|DICT|INTERRES
   165   84   85 1    
   166   84  205 1    
   167   85   86 1    
   168   85   87 1    
   169   85  206 1    
   170   86  207 1    
   171   86  208 1    
   172   86  209 1    
   173   87   88 2    
   174   87   89 am   BACKBONE|DICT|INTERRES
   175   89   90 1    
   176   89  210 1    
   177   90   91 1    
   178   90   92 1    
   179   90  211 1    
   180   91  212 1    
   181   91  213 1    
   182   91  214 1    
   183   92   93 2    
   184   92   94 am   BACKBONE|DICT|INTERRES
   185   94   95 1    
   186   94  215 1    
   187   95   96 1    
   188   95   97 1    
   189   95  216 1    
   190   96  217 1    
   191   96  218 1    
   192   96  219 1    
   193   97   98 2    
   194   97   99 am   BACKBONE|DICT|INTERRES
   195   99  100 1    
   196   99  220 1    
   197  100  101 1    
   198  100  102 1    
   199  100  221 1    
   200  101  222 1    
   201  101  223 1    
   202  101  224 1    
   203  102  103 2    
   204  102  104 am   BACKBONE|DICT|INTERRES
   205  104  105 1    
   206  104  225 1    
   207  105  106 1    
   208  105  107 1    
   209  105  226 1    
   210  106  227 1    
   211  106  228 1    
   212  106  229 1    
   213  107  108 2    
   214  107  109 am   BACKBONE|DICT|INTERRES
   215  109  110 1    
   216  109  230 1    
   217  110  111 1    
   218  110  112 1    
   219  110  231 1    
   220  111  232 1    
   221  111  233 1    
   222  111  234 1    
   223  112  113 2    
   224  112  114 am   BACKBONE|DICT|INTERRES
   225  114  115 1    
   226  114  235 1    
   227  115  116 1    
   228  115  117 1    
   229  115  236 1    
   230  116  237 1    
   231  116  238 1    
   232  116  239 1    
   233  117  118 2    
   234  117  119 am   BACKBONE|DICT|INTERRES
   235  119  120 1    
   236  119  240 1    
   237  120  121 1    
   238  120  124 1    
   239  120  241 1    
   240  121  122 am   BACKBONE|DICT|INTERRES
   241  121  123 2    
   242  122  242 1    
   243  122  243 1    
   244  124  125 1    
   245  124  244 1    
   246  124  245 1    
   247  125  126 1    
   248  126  246 1    
   249  126  247 1    
@<TRIPOS>SUBSTRUCTURE
     1 UNK         1 GROUP             0       ****    0 ROOT    
