@<TRIPOS>MOLECULE
3R540
247   249    1
SMALL
USER_CHARGES


@<TRIPOS>ATOM
      1 CA         -1.2579   -9.4740  -48.7618 C.3       0 UNK        -0.1800 
      2 C          -0.3844  -10.3239  -47.8510 C.2       0 UNK         0.5000 
      3 O          -0.5220  -10.2548  -46.6298 O.2       0 UNK        -0.5000 
      4 N           0.5019  -11.1400  -48.4375 N.am      1 UNK        -0.5000 
      5 CA          1.4435  -12.0284  -47.7397 C.3       1 UNK         0.1400 
      6 C6          2.4615  -12.6978  -48.7001 C.3       23 UNK        -0.0398 
      7 S7          1.7381  -13.4047  -50.2239 S.3       23 UNK        -0.2404 
      8 C8          1.2418  -15.0751  -49.6951 C.3       23 UNK        -0.0205 
      9 C9          1.6913  -16.1327  -50.6926 C.ar      23 UNK        -0.0193 
     10 C10         1.1246  -16.1892  -51.9700 C.ar      23 UNK        -0.1150 
     11 C11         1.5612  -17.1359  -52.9017 C.ar      23 UNK        -0.0193 
     12 C12         2.5566  -18.0495  -52.5373 C.ar      23 UNK        -0.1150 
     13 C13         3.1254  -18.0088  -51.2597 C.ar      23 UNK        -0.0193 
     14 C14         2.6871  -17.0482  -50.3433 C.ar      23 UNK        -0.1150 
     15 C15         4.2566  -18.9579  -50.8838 C.3       23 UNK        -0.0205 
     16 S16         3.7066  -20.6750  -50.6254 S.3       23 UNK        -0.2404 
     17 C17         2.5960  -20.5218  -49.1832 C.3       23 UNK        -0.0398 
     18 CA          1.2529  -21.2543  -49.4028 C.3       11 UNK         0.1400 
     19 N           0.4907  -21.4065  -48.1624 N.am      11 UNK        -0.5000 
     20 C          -0.5491  -22.2398  -48.0204 C.2       10 UNK         0.5000 
     21 O          -0.8468  -23.1008  -48.8516 O.2       10 UNK        -0.5000 
     22 CA         -1.3977  -22.1023  -46.7443 C.3       10 UNK         0.1400 
     23 CB         -0.9193  -23.0919  -45.6727 C.3       10 UNK        -0.1800 
     24 N          -1.3817  -20.7463  -46.1941 N.am      10 UNK        -0.5000 
     25 C          -2.1195  -19.7236  -46.6497 C.2       9 UNK         0.5000 
     26 O          -2.9740  -19.8258  -47.5280 O.2       9 UNK        -0.5000 
     27 CA         -1.8693  -18.3435  -46.0140 C.3       9 UNK         0.1400 
     28 CB         -2.7971  -18.1407  -44.8081 C.3       9 UNK        -0.1800 
     29 N          -0.4750  -18.1292  -45.6172 N.am      9 UNK        -0.5000 
     30 C           0.5527  -18.0666  -46.4770 C.2       8 UNK         0.5000 
     31 O           0.4239  -18.1322  -47.6977 O.2       8 UNK        -0.5000 
     32 CA          1.9657  -17.9841  -45.8759 C.3       8 UNK         0.1400 
     33 CB          2.3525  -16.5353  -45.5498 C.3       8 UNK        -0.1800 
     34 N           2.0901  -18.8161  -44.6802 N.am      8 UNK        -0.5000 
     35 C           2.1362  -20.1559  -44.7028 C.2       7 UNK         0.5000 
     36 O           2.1283  -20.8183  -45.7393 O.2       7 UNK        -0.5000 
     37 CA          2.1449  -20.8758  -43.3415 C.3       7 UNK         0.1400 
     38 CB          3.5755  -20.9755  -42.7920 C.3       7 UNK        -0.1800 
     39 N           1.2916  -20.2155  -42.3527 N.am      7 UNK        -0.5000 
     40 C          -0.0426  -20.1156  -42.4448 C.2       6 UNK         0.5000 
     41 O          -0.7022  -20.6344  -43.3435 O.2       6 UNK        -0.5000 
     42 CA         -0.7486  -19.2422  -41.3891 C.3       6 UNK         0.1400 
     43 CB         -1.1777  -20.0930  -40.1850 C.3       6 UNK        -0.1800 
     44 N           0.0795  -18.1243  -40.9255 N.am      6 UNK        -0.5000 
     45 C           0.5086  -17.1240  -41.7059 C.2       5 UNK         0.5000 
     46 O           0.2230  -17.0154  -42.9009 O.2       5 UNK        -0.5000 
     47 CA          1.4939  -16.1418  -41.0641 C.3       5 UNK         0.1400 
     48 CB          2.9143  -16.7440  -41.0876 C.3       5 UNK        -0.1800 
     49 N           1.4687  -14.8767  -41.7920 N.am      5 UNK        -0.5000 
     50 C           2.0250  -13.7352  -41.3678 C.2       4 UNK         0.5000 
     51 O           2.5934  -13.6141  -40.2815 O.2       4 UNK        -0.5000 
     52 CA          1.9424  -12.5203  -42.3081 C.3       4 UNK         0.1400 
     53 CB          3.1175  -12.5312  -43.2980 C.3       4 UNK        -0.1800 
     54 N           0.6782  -12.4382  -43.0422 N.am      4 UNK        -0.5000 
     55 C          -0.4889  -12.0774  -42.4843 C.2       3 UNK         0.5000 
     56 O          -0.6156  -11.8336  -41.2834 O.2       3 UNK        -0.5000 
     57 CA         -1.7196  -11.9283  -43.4031 C.3       3 UNK         0.1400 
     58 CB         -2.0674  -10.4441  -43.5976 C.3       3 UNK        -0.1800 
     59 N          -1.5403  -12.5485  -44.7154 N.am      3 UNK        -0.5000 
     60 C          -1.6341  -13.8669  -44.9386 C.2       2 UNK         0.5000 
     61 O          -1.9526  -14.6740  -44.0676 O.2       2 UNK        -0.5000 
     62 CA         -1.2987  -14.3795  -46.3556 C.3       2 UNK         0.1400 
     63 CB         -2.5822  -14.7006  -47.1349 C.3       2 UNK        -0.1800 
     64 N          -0.4784  -13.4608  -47.1487 N.am      2 UNK        -0.5000 
     65 C           0.7633  -13.0707  -46.8279 C.2       1 UNK         0.5000 
     66 O           1.3550  -13.4671  -45.8260 O.2       1 UNK        -0.5000 
     67 C           0.3773  -20.5853  -50.4823 C.2       11 UNK         0.5000 
     68 O           0.3301  -21.0662  -51.6147 O.2       11 UNK        -0.5000 
     69 N          -0.3553  -19.5396  -50.0810 N.am      12 UNK        -0.5000 
     70 CA         -1.4367  -18.9294  -50.8442 C.3       12 UNK         0.1400 
     71 CB         -1.8313  -17.6101  -50.1605 C.3       12 UNK        -0.1800 
     72 C          -2.6629  -19.8546  -50.9646 C.2       12 UNK         0.5000 
     73 O          -2.7293  -20.9059  -50.3289 O.2       12 UNK        -0.5000 
     74 N          -3.6526  -19.4223  -51.7535 N.am      13 UNK        -0.5000 
     75 CA         -4.9784  -20.0474  -51.8041 C.3       13 UNK         0.1400 
     76 CB         -5.6366  -19.6924  -53.1457 C.3       13 UNK        -0.1800 
     77 C          -5.8819  -19.6280  -50.6209 C.2       13 UNK         0.5000 
     78 O          -6.9513  -20.2114  -50.4425 O.2       13 UNK        -0.5000 
     79 N          -5.4479  -18.6176  -49.8507 N.am      14 UNK        -0.5000 
     80 CA         -6.1820  -17.9333  -48.7823 C.3       14 UNK         0.1400 
     81 CB         -5.2787  -16.8432  -48.1864 C.3       14 UNK        -0.1800 
     82 C          -6.7239  -18.8424  -47.6638 C.2       14 UNK         0.5000 
     83 O          -7.7918  -18.5550  -47.1221 O.2       14 UNK        -0.5000 
     84 N          -6.0005  -19.9248  -47.3480 N.am      15 UNK        -0.5000 
     85 CA         -6.4081  -20.9316  -46.3646 C.3       15 UNK         0.1400 
     86 CB         -5.2025  -21.8246  -46.0341 C.3       15 UNK        -0.1800 
     87 C          -7.6008  -21.8056  -46.8056 C.2       15 UNK         0.5000 
     88 O          -8.1626  -22.5051  -45.9612 O.2       15 UNK        -0.5000 
     89 N          -7.9396  -21.7951  -48.1057 N.am      16 UNK        -0.5000 
     90 CA         -8.9198  -22.6344  -48.8100 C.3       16 UNK         0.1400 
     91 CB        -10.3416  -22.4864  -48.2345 C.3       16 UNK        -0.1800 
     92 C          -8.4747  -24.1062  -48.8915 C.2       16 UNK         0.5000 
     93 O          -8.2994  -24.6320  -49.9911 O.2       16 UNK        -0.5000 
     94 N          -8.2045  -24.7171  -47.7323 N.am      17 UNK        -0.5000 
     95 CA         -7.4833  -25.9789  -47.5739 C.3       17 UNK         0.1400 
     96 CB         -7.9348  -26.6455  -46.2624 C.3       17 UNK        -0.1800 
     97 C          -5.9639  -25.7094  -47.6183 C.2       17 UNK         0.5000 
     98 O          -5.2507  -25.9581  -46.6446 O.2       17 UNK        -0.5000 
     99 N          -5.5142  -25.1359  -48.7397 N.am      18 UNK        -0.5000 
    100 CA        -4.1399  -24.7201  -48.9973 C.3       18 UNK         0.1400 
    101 CB        -4.1399  -23.8250  -50.2420 C.3       18 UNK        -0.1800 
    102 C         -3.1828  -25.9106  -49.1784 C.2       18 UNK         0.5000 
    103 O         -3.6046  -26.9916  -49.5975 O.2       18 UNK        -0.5000 
    104 N         -1.9033  -25.6704  -48.8792 N.am      19 UNK        -0.5000 
    105 CA        -0.8165  -26.6310  -49.0299 C.3       19 UNK         0.1400 
    106 CB         0.2557  -26.3564  -47.9628 C.3       19 UNK        -0.1800 
    107 C         -0.2098  -26.5643  -50.4398 C.2       19 UNK         0.5000 
    108 O          0.0377  -27.6153  -51.0324 O.2       19 UNK        -0.5000 
    109 N          0.0154  -25.3427  -50.9480 N.am      20 UNK        -0.5000 
    110 CA         0.6183  -25.1074  -52.2645 C.3       20 UNK         0.1400 
    111 CB         1.9129  -24.2955  -52.1061 C.3       20 UNK        -0.1800 
    112 C         -0.3392  -24.4072  -53.2409 C.2       20 UNK         0.5000 
    113 O         -0.2329  -24.6506  -54.4436 O.2       20 UNK        -0.5000 
    114 N         -1.2395  -23.5490  -52.7332 N.am      21 UNK        -0.5000 
    115 CA        -2.2259  -22.7661  -53.4958 C.3       21 UNK         0.1400 
    116 CB        -3.3315  -23.6916  -54.0452 C.3       21 UNK        -0.1800 
    117 C         -1.5922  -21.8838  -54.5984 C.2       21 UNK         0.5000 
    118 O         -2.1440  -21.7725  -55.6946 O.2       21 UNK        -0.5000 
    119 N         -0.4189  -21.3140  -54.2954 N.am      22 UNK        -0.5000 
    120 CA         0.4806  -20.5894  -55.2108 C.3       22 UNK         0.1400 
    121 C          1.1252  -21.4624  -56.3339 C.2       22 UNK         0.5000 
    122 N          1.0243  -22.7862  -56.3095 N.am      22 UNK        -0.7600 
    123 O          1.7693  -20.9326  -57.2356 O.2       22 UNK        -0.5000 
    124 C124       -0.1290  -19.2714  -55.7682 C.3       23 UNK        -0.0398 
    125 S125       -0.5466  -18.0759  -54.4553 S.3       23 UNK        -0.2404 
    126 C126        1.0015  -17.1251  -54.3176 C.3       23 UNK        -0.0205 
    127 H127       -1.0361   -9.6488  -49.8148 H         1 UNK         0.0600 
    128 H128       -1.1000   -8.4163  -48.5514 H         1 UNK         0.0600 
    129 H129       -2.3099   -9.7032  -48.5924 H         1 UNK         0.0600 
    130 H130        0.5570  -11.1691  -49.4464 H         1 UNK         0.3000 
    131 H131        2.0187  -11.3897  -47.0658 H         1 UNK         0.0600 
    132 H132        3.0627  -13.4520  -48.1881 H         1 UNK         0.0800 
    133 H133        3.1783  -11.9412  -49.0219 H         1 UNK         0.0800 
    134 H134        0.1572  -15.0952  -49.5948 H         1 UNK         0.0800 
    135 H135        1.6399  -15.2990  -48.7053 H         1 UNK         0.0800 
    136 H136        0.3611  -15.4759  -52.2471 H         1 UNK         0.1150 
    137 H137        2.9064  -18.7796  -53.2533 H         1 UNK         0.1150 
    138 H138        3.1318  -17.0037  -49.3592 H         1 UNK         0.1150 
    139 H139        5.0040  -18.9484  -51.6784 H         1 UNK         0.0800 
    140 H140        4.7695  -18.6115  -49.9852 H         1 UNK         0.0800 
    141 H141        2.4308  -19.4748  -48.9310 H         1 UNK         0.0800 
    142 H142        3.1163  -20.9562  -48.3286 H         1 UNK         0.0800 
    143 H143        1.4871  -22.2630  -49.7455 H         1 UNK         0.0600 
    144 H144        0.7292  -20.7882  -47.3980 H         1 UNK         0.3000 
    145 H145       -2.4238  -22.3593  -47.0097 H         1 UNK         0.0600 
    146 H146       -1.5516  -23.0458  -44.7858 H         1 UNK         0.0600 
    147 H147        0.1059  -22.8849  -45.3636 H         1 UNK         0.0600 
    148 H148       -0.9526  -24.1172  -46.0428 H         1 UNK         0.0600 
    149 H149       -0.7945  -20.5918  -45.3819 H         1 UNK         0.3000 
    150 H150       -2.1142  -17.5886  -46.7620 H         1 UNK         0.0600 
    151 H151       -3.8433  -18.1724  -45.1156 H         1 UNK         0.0600 
    152 H152       -2.6267  -17.1773  -44.3304 H         1 UNK         0.0600 
    153 H153       -2.6562  -18.9161  -44.0560 H         1 UNK         0.0600 
    154 H154       -0.2895  -18.0089  -44.6270 H         1 UNK         0.3000 
    155 H155        2.6695  -18.3547  -46.6244 H         1 UNK         0.0600 
    156 H156        2.3713  -15.9301  -46.4560 H         1 UNK         0.0600 
    157 H157        3.3455  -16.4793  -45.1041 H         1 UNK         0.0600 
    158 H158        1.6496  -16.0670  -44.8614 H         1 UNK         0.0600 
    159 H159        2.0365  -18.3424  -43.7908 H         1 UNK         0.3000 
    160 H160        1.7648  -21.8878  -43.4970 H         1 UNK         0.0600 
    161 H161        4.0011  -19.9914  -42.5912 H         1 UNK         0.0600 
    162 H162        4.2320  -21.4786  -43.5032 H         1 UNK         0.0600 
    163 H163        3.6027  -21.5488  -41.8651 H         1 UNK         0.0600 
    164 H164        1.7541  -19.7718  -41.5737 H         1 UNK         0.3000 
    165 H165       -1.6459  -18.8250  -41.8502 H         1 UNK         0.0600 
    166 H166       -1.7468  -19.5020  -39.4671 H         1 UNK         0.0600 
    167 H167       -1.8149  -20.9206  -40.4999 H         1 UNK         0.0600 
    168 H168       -0.3189  -20.5191  -39.6649 H         1 UNK         0.0600 
    169 H169        0.3651  -18.1493  -39.9570 H         1 UNK         0.3000 
    170 H170        1.1834  -15.9630  -40.0326 H         1 UNK         0.0600 
    171 H171        3.2696  -16.8918  -42.1083 H         1 UNK         0.0600 
    172 H172        3.6318  -16.1023  -40.5768 H         1 UNK         0.0600 
    173 H173        2.9437  -17.7116  -40.5853 H         1 UNK         0.0600 
    174 H174        0.9785  -14.9056  -42.6776 H         1 UNK         0.3000 
    175 H175        2.0342  -11.6204  -41.6958 H         1 UNK         0.0600 
    176 H176        3.1357  -13.4449  -43.8931 H         1 UNK         0.0600 
    177 H177        3.0694  -11.6840  -43.9823 H         1 UNK         0.0600 
    178 H178        4.0697  -12.4702  -42.7697 H         1 UNK         0.0600 
    179 H179        0.7137  -12.6585  -44.0313 H         1 UNK         0.3000 
    180 H180       -2.5632  -12.4070  -42.9011 H         1 UNK         0.0600 
    181 H181       -2.9425  -10.3223  -44.2362 H         1 UNK         0.0600 
    182 H182       -1.2418   -9.8936  -44.0496 H         1 UNK         0.0600 
    183 H183       -2.2934   -9.9676  -42.6428 H         1 UNK         0.0600 
    184 H184       -1.2573  -11.9341  -45.4706 H         1 UNK         0.3000 
    185 H185       -0.7328  -15.3043  -46.2324 H         1 UNK         0.0600 
    186 H186       -3.1540  -13.7989  -47.3572 H         1 UNK         0.0600 
    187 H187       -2.3574  -15.1997  -48.0777 H         1 UNK         0.0600 
    188 H188       -3.2304  -15.3640  -46.5614 H         1 UNK         0.0600 
    189 H189       -0.9037  -13.0658  -47.9746 H         1 UNK         0.3000 
    190 H190       -0.2245  -19.1887  -49.1373 H         1 UNK         0.3000 
    191 H191       -1.0600  -18.7164  -51.8410 H         1 UNK         0.0600 
    192 H192       -0.9557  -16.9956  -49.9720 H         1 UNK         0.0600 
    193 H193       -2.3199  -17.7826  -49.2021 H         1 UNK         0.0600 
    194 H194       -2.5094  -17.0235  -50.7807 H         1 UNK         0.0600 
    195 H195       -3.5358  -18.5655  -52.2759 H         1 UNK         0.3000 
    196 H196       -4.8689  -21.1328  -51.7631 H         1 UNK         0.0600 
    197 H197       -5.0287  -20.0331  -53.9844 H         1 UNK         0.0600 
    198 H198       -5.7835  -18.6168  -53.2509 H         1 UNK         0.0600 
    199 H199       -6.6136  -20.1683  -53.2405 H         1 UNK         0.0600 
    200 H200       -4.5383  -18.2410  -50.0645 H         1 UNK         0.3000 
    201 H201       -7.0421  -17.4476  -49.2470 H         1 UNK         0.0600 
    202 H202       -4.9647  -16.1267  -48.9457 H         1 UNK         0.0600 
    203 H203       -4.3830  -17.2726  -47.7374 H         1 UNK         0.0600 
    204 H204       -5.7990  -16.2830  -47.4083 H         1 UNK         0.0600 
    205 H205       -5.0963  -20.0535  -47.7902 H         1 UNK         0.3000 
    206 H206       -6.7089  -20.4156  -45.4506 H         1 UNK         0.0600 
    207 H207       -4.8030  -22.2962  -46.9316 H         1 UNK         0.0600 
    208 H208       -4.4044  -21.2506  -45.5650 H         1 UNK         0.0600 
    209 H209       -5.4734  -22.6202  -45.3385 H         1 UNK         0.0600 
    210 H210       -7.4128  -21.1803  -48.7185 H         1 UNK         0.3000 
    211 H211       -8.9452  -22.2557  -49.8331 H         1 UNK         0.0600 
    212 H212      -10.4246  -22.8833  -47.2227 H         1 UNK         0.0600 
    213 H213      -11.0639  -23.0224  -48.8510 H         1 UNK         0.0600 
    214 H214      -10.6476  -21.4406  -48.2100 H         1 UNK         0.0600 
    215 H215       -8.3111  -24.1552  -46.8917 H         1 UNK         0.3000 
    216 H216       -7.7288  -26.6514  -48.3984 H         1 UNK         0.0600 
    217 H217       -7.4258  -27.5985  -46.1127 H         1 UNK         0.0600 
    218 H218       -9.0059  -26.8478  -46.2733 H         1 UNK         0.0600 
    219 H219       -7.7220  -26.0170  -45.3966 H         1 UNK         0.0600 
    220 H220       -6.1784  -24.9868  -49.4886 H         1 UNK         0.3000 
    221 H221       -3.7947  -24.1322  -48.1449 H         1 UNK         0.0600 
    222 H222       -4.5736  -24.3361  -51.1012 H         1 UNK         0.0600 
    223 H223       -4.7129  -22.9144  -50.0669 H         1 UNK         0.0600 
    224 H224       -3.1275  -23.5245  -50.5102 H         1 UNK         0.0600 
    225 H225       -1.6235  -24.7197  -48.6498 H         1 UNK         0.3000 
    226 H226       -1.1979  -27.6420  -48.8704 H         1 UNK         0.0600 
    227 H227       -0.1566  -26.4531  -46.9584 H         1 UNK         0.0600 
    228 H228        1.0785  -27.0675  -48.0456 H         1 UNK         0.0600 
    229 H229        0.6772  -25.3548  -48.0563 H         1 UNK         0.0600 
    230 H230       -0.2127  -24.5331  -50.3841 H         1 UNK         0.3000 
    231 H231        0.8927  -26.0558  -52.7308 H         1 UNK         0.0600 
    232 H232        2.4273  -24.1966  -53.0629 H         1 UNK         0.0600 
    233 H233        2.6028  -24.7788  -51.4143 H         1 UNK         0.0600 
    234 H234        1.7199  -23.2892  -51.7418 H         1 UNK         0.0600 
    235 H235       -1.2099  -23.3511  -51.7436 H         1 UNK         0.3000 
    236 H236       -2.6930  -22.0850  -52.7872 H         1 UNK         0.0600 
    237 H237       -2.9574  -24.3390  -54.8390 H         1 UNK         0.0600 
    238 H238       -3.7415  -24.3306  -53.2650 H         1 UNK         0.0600 
    239 H239       -4.1574  -23.1108  -54.4572 H         1 UNK         0.0600 
    240 H240       -0.0753  -21.4060  -53.3402 H         1 UNK         0.3000 
    241 H241        1.3290  -20.3050  -54.5879 H         1 UNK         0.0600 
    242 H242        1.4621  -23.3222  -57.0415 H         1 UNK         0.3800 
    243 H243        0.4987  -23.2707  -55.5886 H         1 UNK         0.3800 
    244 H244       -1.0326  -19.4811  -56.3410 H         1 UNK         0.0800 
    245 H245        0.5499  -18.7854  -56.4703 H         1 UNK         0.0800 
    246 H246        0.8085  -16.0973  -54.6285 H         1 UNK         0.0800 
    247 H247        1.7544  -17.5070  -55.0080 H         1 UNK         0.0800 
@<TRIPOS>BOND
     1    1    2 1    
     2    1  127 1    
     3    1  128 1    
     4    1  129 1    
     5    2    3 2    
     6    2    4 am   BACKBONE|DICT|INTERRES
     7    4    5 1    
     8    4  130 1    
     9    5    6 1    
    10    5   65 1    
    11    5  131 1    
    12    6    7 1    
    13    6  132 1    
    14    6  133 1    
    15    7    8 1    
    16    8    9 1    
    17    8  134 1    
    18    8  135 1    
    19    9   10 ar   
    20    9   14 ar   
    21   10   11 ar   
    22   10  136 1    
    23   11   12 ar   
    24   11  126 1    
    25   12   13 ar   
    26   12  137 1    
    27   13   14 ar   
    28   13   15 1    
    29   14  138 1    
    30   15   16 1    
    31   15  139 1    
    32   15  140 1    
    33   16   17 1    
    34   17   18 1    
    35   17  141 1    
    36   17  142 1    
    37   18   19 1    
    38   18   67 1    
    39   18  143 1    
    40   19   20 am   BACKBONE|DICT|INTERRES
    41   19  144 1    
    42   20   21 2    
    43   20   22 1    
    44   22   23 1    
    45   22   24 1    
    46   22  145 1    
    47   23  146 1    
    48   23  147 1    
    49   23  148 1    
    50   24   25 am   BACKBONE|DICT|INTERRES
    51   24  149 1    
    52   25   26 2    
    53   25   27 1    
    54   27   28 1    
    55   27   29 1    
    56   27  150 1    
    57   28  151 1    
    58   28  152 1    
    59   28  153 1    
    60   29   30 am   BACKBONE|DICT|INTERRES
    61   29  154 1    
    62   30   31 2    
    63   30   32 1    
    64   32   33 1    
    65   32   34 1    
    66   32  155 1    
    67   33  156 1    
    68   33  157 1    
    69   33  158 1    
    70   34   35 am   BACKBONE|DICT|INTERRES
    71   34  159 1    
    72   35   36 2    
    73   35   37 1    
    74   37   38 1    
    75   37   39 1    
    76   37  160 1    
    77   38  161 1    
    78   38  162 1    
    79   38  163 1    
    80   39   40 am   BACKBONE|DICT|INTERRES
    81   39  164 1    
    82   40   41 2    
    83   40   42 1    
    84   42   43 1    
    85   42   44 1    
    86   42  165 1    
    87   43  166 1    
    88   43  167 1    
    89   43  168 1    
    90   44   45 am   BACKBONE|DICT|INTERRES
    91   44  169 1    
    92   45   46 2    
    93   45   47 1    
    94   47   48 1    
    95   47   49 1    
    96   47  170 1    
    97   48  171 1    
    98   48  172 1    
    99   48  173 1    
   100   49   50 am   BACKBONE|DICT|INTERRES
   101   49  174 1    
   102   50   51 2    
   103   50   52 1    
   104   52   53 1    
   105   52   54 1    
   106   52  175 1    
   107   53  176 1    
   108   53  177 1    
   109   53  178 1    
   110   54   55 am   BACKBONE|DICT|INTERRES
   111   54  179 1    
   112   55   56 2    
   113   55   57 1    
   114   57   58 1    
   115   57   59 1    
   116   57  180 1    
   117   58  181 1    
   118   58  182 1    
   119   58  183 1    
   120   59   60 am   BACKBONE|DICT|INTERRES
   121   59  184 1    
   122   60   61 2    
   123   60   62 1    
   124   62   63 1    
   125   62   64 1    
   126   62  185 1    
   127   63  186 1    
   128   63  187 1    
   129   63  188 1    
   130   64   65 am   BACKBONE|DICT|INTERRES
   131   64  189 1    
   132   65   66 2    
   133   67   68 2    
   134   67   69 am   BACKBONE|DICT|INTERRES
   135   69   70 1    
   136   69  190 1    
   137   70   71 1    
   138   70   72 1    
   139   70  191 1    
   140   71  192 1    
   141   71  193 1    
   142   71  194 1    
   143   72   73 2    
   144   72   74 am   BACKBONE|DICT|INTERRES
   145   74   75 1    
   146   74  195 1    
   147   75   76 1    
   148   75   77 1    
   149   75  196 1    
   150   76  197 1    
   151   76  198 1    
   152   76  199 1    
   153   77   78 2    
   154   77   79 am   BACKBONE|DICT|INTERRES
   155   79   80 1    
   156   79  200 1    
   157   80   81 1    
   158   80   82 1    
   159   80  201 1    
   160   81  202 1    
   161   81  203 1    
   162   81  204 1    
   163   82   83 2    
   164   82   84 am   BACKBONE|DICT|INTERRES
   165   84   85 1    
   166   84  205 1    
   167   85   86 1    
   168   85   87 1    
   169   85  206 1    
   170   86  207 1    
   171   86  208 1    
   172   86  209 1    
   173   87   88 2    
   174   87   89 am   BACKBONE|DICT|INTERRES
   175   89   90 1    
   176   89  210 1    
   177   90   91 1    
   178   90   92 1    
   179   90  211 1    
   180   91  212 1    
   181   91  213 1    
   182   91  214 1    
   183   92   93 2    
   184   92   94 am   BACKBONE|DICT|INTERRES
   185   94   95 1    
   186   94  215 1    
   187   95   96 1    
   188   95   97 1    
   189   95  216 1    
   190   96  217 1    
   191   96  218 1    
   192   96  219 1    
   193   97   98 2    
   194   97   99 am   BACKBONE|DICT|INTERRES
   195   99  100 1    
   196   99  220 1    
   197  100  101 1    
   198  100  102 1    
   199  100  221 1    
   200  101  222 1    
   201  101  223 1    
   202  101  224 1    
   203  102  103 2    
   204  102  104 am   BACKBONE|DICT|INTERRES
   205  104  105 1    
   206  104  225 1    
   207  105  106 1    
   208  105  107 1    
   209  105  226 1    
   210  106  227 1    
   211  106  228 1    
   212  106  229 1    
   213  107  108 2    
   214  107  109 am   BACKBONE|DICT|INTERRES
   215  109  110 1    
   216  109  230 1    
   217  110  111 1    
   218  110  112 1    
   219  110  231 1    
   220  111  232 1    
   221  111  233 1    
   222  111  234 1    
   223  112  113 2    
   224  112  114 am   BACKBONE|DICT|INTERRES
   225  114  115 1    
   226  114  235 1    
   227  115  116 1    
   228  115  117 1    
   229  115  236 1    
   230  116  237 1    
   231  116  238 1    
   232  116  239 1    
   233  117  118 2    
   234  117  119 am   BACKBONE|DICT|INTERRES
   235  119  120 1    
   236  119  240 1    
   237  120  121 1    
   238  120  124 1    
   239  120  241 1    
   240  121  122 am   BACKBONE|DICT|INTERRES
   241  121  123 2    
   242  122  242 1    
   243  122  243 1    
   244  124  125 1    
   245  124  244 1    
   246  124  245 1    
   247  125  126 1    
   248  126  246 1    
   249  126  247 1    
@<TRIPOS>SUBSTRUCTURE
     1 UNK         1 GROUP             0       ****    0 ROOT    
