@<TRIPOS>MOLECULE
3R540
247   249    1
SMALL
USER_CHARGES


@<TRIPOS>ATOM
      1 CA          1.4726  -10.7730  -50.5328 C.3       0 UNK        -0.1800 
      2 C           1.3395  -11.5767  -49.2477 C.2       0 UNK         0.5000 
      3 O           2.0969  -11.3508  -48.3044 O.2       0 UNK        -0.5000 
      4 N           0.3706  -12.5020  -49.2021 N.am      1 UNK        -0.5000 
      5 CA          0.0938  -13.4117  -48.0791 C.3       1 UNK         0.1400 
      6 C6         -1.0541  -14.3986  -48.4151 C.3       23 UNK        -0.0398 
      7 S7         -0.5767  -15.5625  -49.7407 S.3       23 UNK        -0.2404 
      8 C8         -1.2031  -17.1508  -49.1028 C.3       23 UNK        -0.0205 
      9 C9         -0.4845  -18.3288  -49.7426 C.ar      23 UNK        -0.0193 
     10 C10        -1.1184  -19.0913  -50.7249 C.ar      23 UNK        -0.1150 
     11 C11        -0.4715  -20.1848  -51.3059 C.ar      23 UNK        -0.0193 
     12 C12         0.8253  -20.5125  -50.8986 C.ar      23 UNK        -0.1150 
     13 C13         1.4779  -19.7500  -49.9252 C.ar      23 UNK        -0.0193 
     14 C14         0.8133  -18.6642  -49.3453 C.ar      23 UNK        -0.1150 
     15 C15         2.9150  -20.0700  -49.5330 C.3       23 UNK        -0.0205 
     16 S16         3.0785  -21.6336  -48.6119 S.3       23 UNK        -0.2404 
     17 C17         2.1906  -21.2493  -47.0649 C.3       23 UNK        -0.0398 
     18 CA          1.2688  -22.3945  -46.5846 C.3       11 UNK         0.1400 
     19 N           0.7930  -22.1543  -45.2200 N.am      11 UNK        -0.5000 
     20 C           0.1195  -23.0345  -44.4671 C.2       10 UNK         0.5000 
     21 O          -0.1190  -24.1895  -44.8146 O.2       10 UNK        -0.5000 
     22 CA         -0.4336  -22.5199  -43.1253 C.3       10 UNK         0.1400 
     23 CB          0.6321  -22.5763  -42.0208 C.3       10 UNK        -0.1800 
     24 N          -0.9672  -21.1617  -43.2376 N.am      10 UNK        -0.5000 
     25 C          -2.0540  -20.8429  -43.9560 C.2       9 UNK         0.5000 
     26 O          -2.7516  -21.6711  -44.5411 O.2       9 UNK        -0.5000 
     27 CA         -2.3910  -19.3468  -44.0819 C.3       9 UNK         0.1400 
     28 CB         -3.1902  -18.8726  -42.8597 C.3       9 UNK        -0.1800 
     29 N          -1.1978  -18.5146  -44.2544 N.am      9 UNK        -0.5000 
     30 C          -0.3845  -18.5790  -45.3189 C.2       8 UNK         0.5000 
     31 O          -0.6036  -19.2974  -46.2918 O.2       8 UNK        -0.5000 
     32 CA          0.9209  -17.7639  -45.2710 C.3       8 UNK         0.1400 
     33 CB          0.7108  -16.3243  -45.7482 C.3       8 UNK        -0.1800 
     34 N           1.5193  -17.7407  -43.9416 N.am      8 UNK        -0.5000 
     35 C           2.0379  -18.8071  -43.3227 C.2       7 UNK         0.5000 
     36 O           2.0502  -19.9372  -43.8099 O.2       7 UNK        -0.5000 
     37 CA          2.6144  -18.5693  -41.9189 C.3       7 UNK         0.1400 
     38 CB          4.0514  -18.0338  -42.0071 C.3       7 UNK        -0.1800 
     39 N           1.7928  -17.6298  -41.1568 N.am      7 UNK        -0.5000 
     40 C           0.6440  -17.9545  -40.5503 C.2       6 UNK         0.5000 
     41 O           0.1725  -19.0924  -40.5419 O.2       6 UNK        -0.5000 
     42 CA         -0.1165  -16.8065  -39.8578 C.3       6 UNK         0.1400 
     43 CB          0.4673  -16.5323  -38.4636 C.3       6 UNK        -0.1800 
     44 N          -0.1217  -15.5638  -40.6349 N.am      6 UNK        -0.5000 
     45 C          -0.7352  -15.4238  -41.8176 C.2       5 UNK         0.5000 
     46 O          -1.3429  -16.3326  -42.3796 O.2       5 UNK        -0.5000 
     47 CA         -0.6325  -14.0550  -42.5138 C.3       5 UNK         0.1400 
     48 CB         -1.6962  -13.0904  -41.9688 C.3       5 UNK        -0.1800 
     49 N           0.6794  -13.4009  -42.4636 N.am      5 UNK        -0.5000 
     50 C           1.8656  -13.9573  -42.7499 C.2       4 UNK         0.5000 
     51 O           2.0442  -15.1656  -42.9049 O.2       4 UNK        -0.5000 
     52 CA          3.0344  -12.9790  -42.9328 C.3       4 UNK         0.1400 
     53 CB          4.3160  -13.6569  -43.4555 C.3       4 UNK        -0.1800 
     54 N           2.6254  -11.9171  -43.8502 N.am      4 UNK        -0.5000 
     55 C           3.0615  -10.6523  -43.8076 C.2       3 UNK         0.5000 
     56 O           3.8691  -10.2402  -42.9736 O.2       3 UNK        -0.5000 
     57 CA          2.5155   -9.6738  -44.8679 C.3       3 UNK         0.1400 
     58 CB          3.5669   -9.4305  -45.9614 C.3       3 UNK        -0.1800 
     59 N           1.2665  -10.1147  -45.4948 N.am      3 UNK        -0.5000 
     60 C           0.0730  -10.1272  -44.8819 C.2       2 UNK         0.5000 
     61 O          -0.0926   -9.7649  -43.7167 O.2       2 UNK        -0.5000 
     62 CA         -1.1432  -10.6350  -45.6862 C.3       2 UNK         0.1400 
     63 CB         -1.9875   -9.4516  -46.1829 C.3       2 UNK        -0.1800 
     64 N          -0.8088  -11.4873  -46.8301 N.am      2 UNK        -0.5000 
     65 C          -0.1926  -12.6750  -46.7523 C.2       1 UNK         0.5000 
     66 O           0.1867  -13.1690  -45.6922 O.2       1 UNK        -0.5000 
     67 C           0.1010  -22.6723  -47.5586 C.2       11 UNK         0.5000 
     68 O           0.1530  -23.6543  -48.2993 O.2       11 UNK        -0.5000 
     69 N          -0.9563  -21.8493  -47.4982 N.am      12 UNK        -0.5000 
     70 CA         -2.1852  -22.0251  -48.2732 C.3       12 UNK         0.1400 
     71 CB         -3.1162  -20.8229  -48.0570 C.3       12 UNK        -0.1800 
     72 C          -2.9124  -23.3421  -47.9468 C.2       12 UNK         0.5000 
     73 O          -3.3665  -24.0236  -48.8663 O.2       12 UNK        -0.5000 
     74 N          -2.9798  -23.6951  -46.6550 N.am      13 UNK        -0.5000 
     75 CA         -3.5359  -24.9568  -46.1649 C.3       13 UNK         0.1400 
     76 CB         -3.6592  -24.9137  -44.6350 C.3       13 UNK        -0.1800 
     77 C          -2.7196  -26.1809  -46.6187 C.2       13 UNK         0.5000 
     78 O          -3.3092  -27.1630  -47.0697 O.2       13 UNK        -0.5000 
     79 N          -1.3833  -26.0871  -46.5469 N.am      14 UNK        -0.5000 
     80 CA         -0.4415  -27.1030  -47.0310 C.3       14 UNK         0.1400 
     81 CB          0.9862  -26.7281  -46.6068 C.3       14 UNK        -0.1800 
     82 C          -0.5177  -27.3232  -48.5549 C.2       14 UNK         0.5000 
     83 O          -0.3114  -28.4445  -49.0190 O.2       14 UNK        -0.5000 
     84 N          -0.8753  -26.2666  -49.2962 N.am      15 UNK        -0.5000 
     85 CA         -1.1876  -26.2850  -50.7263 C.3       15 UNK         0.1400 
     86 CB         -0.9618  -24.8742  -51.2965 C.3       15 UNK        -0.1800 
     87 C          -2.6104  -26.8064  -51.0424 C.2       15 UNK         0.5000 
     88 O          -3.0560  -26.6704  -52.1814 O.2       15 UNK        -0.5000 
     89 N          -3.2975  -27.3898  -50.0480 N.am      16 UNK        -0.5000 
     90 CA         -4.6393  -27.9784  -50.1013 C.3       16 UNK         0.1400 
     91 CB         -4.7099  -29.1395  -51.1164 C.3       16 UNK        -0.1800 
     92 C          -5.7463  -26.9235  -50.2910 C.2       16 UNK         0.5000 
     93 O          -6.7042  -27.1566  -51.0303 O.2       16 UNK        -0.5000 
     94 N          -5.5906  -25.7849  -49.5989 N.am      17 UNK        -0.5000 
     95 CA         -6.4854  -24.6228  -49.5819 C.3       17 UNK         0.1400 
     96 CB         -7.8670  -24.9867  -48.9983 C.3       17 UNK        -0.1800 
     97 C          -6.5616  -23.9157  -50.9498 C.2       17 UNK         0.5000 
     98 O          -7.6319  -23.4563  -51.3521 O.2       17 UNK        -0.5000 
     99 N          -5.4130  -23.8415  -51.6385 N.am      18 UNK        -0.5000 
    100 CA        -5.2551  -23.1879  -52.9399 C.3       18 UNK         0.1400 
    101 CB        -3.8561  -23.4951  -53.4938 C.3       18 UNK        -0.1800 
    102 C         -5.4995  -21.6692  -52.8775 C.2       18 UNK         0.5000 
    103 O         -6.1470  -21.1235  -53.7721 O.2       18 UNK        -0.5000 
    104 N         -5.0025  -21.0367  -51.8018 N.am      19 UNK        -0.5000 
    105 CA        -5.1883  -19.6316  -51.4254 C.3       19 UNK         0.1400 
    106 CB        -6.5787  -19.4564  -50.7770 C.3       19 UNK        -0.1800 
    107 C         -4.9129  -18.6558  -52.5906 C.2       19 UNK         0.5000 
    108 O         -3.7600  -18.5135  -52.9993 O.2       19 UNK        -0.5000 
    109 N         -5.9727  -18.0359  -53.1276 N.am      20 UNK        -0.5000 
    110 CA        -5.9446  -17.0823  -54.2383 C.3       20 UNK         0.1400 
    111 CB        -7.3692  -16.5609  -54.4800 C.3       20 UNK        -0.1800 
    112 C         -5.3435  -17.6291  -55.5489 C.2       20 UNK         0.5000 
    113 O         -4.8563  -16.8350  -56.3549 O.2       20 UNK        -0.5000 
    114 N         -5.3395  -18.9588  -55.7346 N.am      21 UNK        -0.5000 
    115 CA        -4.7148  -19.6309  -56.8789 C.3       21 UNK         0.1400 
    116 CB        -5.0961  -21.1180  -56.8747 C.3       21 UNK        -0.1800 
    117 C         -3.1816  -19.4600  -56.9380 C.2       21 UNK         0.5000 
    118 O         -2.6093  -19.5788  -58.0223 O.2       21 UNK        -0.5000 
    119 N         -2.5505  -19.1518  -55.7961 N.am      22 UNK        -0.5000 
    120 CA        -1.1406  -18.7383  -55.7128 C.3       22 UNK         0.1400 
    121 C         -0.8939  -17.2480  -56.1010 C.2       22 UNK         0.5000 
    122 N         -1.9089  -16.4368  -56.3790 N.am      22 UNK        -0.7600 
    123 O          0.2539  -16.8166  -56.1692 O.2       22 UNK        -0.5000 
    124 C124       -0.5262  -19.0603  -54.3274 C.3       23 UNK        -0.0398 
    125 S125       -0.4098  -20.8554  -54.0109 S.3       23 UNK        -0.2404 
    126 C126       -1.1795  -21.0114  -52.3690 C.3       23 UNK        -0.0205 
    127 H127        1.3371   -9.7113  -50.3263 H         1 UNK         0.0600 
    128 H128        2.4649  -10.9142  -50.9612 H         1 UNK         0.0600 
    129 H129        0.7345  -11.0725  -51.2772 H         1 UNK         0.0600 
    130 H130       -0.2059  -12.6438  -50.0194 H         1 UNK         0.3000 
    131 H131        1.0035  -13.9923  -47.9119 H         1 UNK         0.0600 
    132 H132       -1.3461  -14.9661  -47.5301 H         1 UNK         0.0800 
    133 H133       -1.9482  -13.8579  -48.7299 H         1 UNK         0.0800 
    134 H134       -1.0876  -17.2152  -48.0229 H         1 UNK         0.0800 
    135 H135       -2.2763  -17.2069  -49.2908 H         1 UNK         0.0800 
    136 H136       -2.1176  -18.8299  -51.0374 H         1 UNK         0.1150 
    137 H137        1.3323  -21.3539  -51.3500 H         1 UNK         0.1150 
    138 H138        1.3078  -18.0683  -48.5917 H         1 UNK         0.1150 
    139 H139        3.5198  -20.1344  -50.4385 H         1 UNK         0.0800 
    140 H140        3.3444  -19.2609  -48.9400 H         1 UNK         0.0800 
    141 H141        1.6222  -20.3283  -47.1804 H         1 UNK         0.0800 
    142 H142        2.9443  -21.0395  -46.3046 H         1 UNK         0.0800 
    143 H143        1.8716  -23.3041  -46.5431 H         1 UNK         0.0600 
    144 H144        0.9984  -21.2433  -44.8217 H         1 UNK         0.3000 
    145 H145       -1.2540  -23.1777  -42.8309 H         1 UNK         0.0600 
    146 H146        0.2272  -22.2425  -41.0652 H         1 UNK         0.0600 
    147 H147        0.9934  -23.5961  -41.8832 H         1 UNK         0.0600 
    148 H148        1.4955  -21.9536  -42.2524 H         1 UNK         0.0600 
    149 H149       -0.4421  -20.4234  -42.7902 H         1 UNK         0.3000 
    150 H150       -3.0183  -19.2220  -44.9669 H         1 UNK         0.0600 
    151 H151       -4.0711  -19.4960  -42.7007 H         1 UNK         0.0600 
    152 H152       -3.5388  -17.8484  -42.9919 H         1 UNK         0.0600 
    153 H153       -2.5912  -18.9082  -41.9486 H         1 UNK         0.0600 
    154 H154       -0.9974  -17.8500  -43.5121 H         1 UNK         0.3000 
    155 H155        1.6391  -18.2367  -45.9433 H         1 UNK         0.0600 
    156 H156       -0.1308  -15.8498  -45.2432 H         1 UNK         0.0600 
    157 H157        0.5257  -16.2968  -46.8186 H         1 UNK         0.0600 
    158 H158        1.5952  -15.7117  -45.5721 H         1 UNK         0.0600 
    159 H159        1.5899  -16.8317  -43.4884 H         1 UNK         0.3000 
    160 H160        2.6391  -19.5283  -41.3967 H         1 UNK         0.0600 
    161 H161        4.4860  -17.9074  -41.0155 H         1 UNK         0.0600 
    162 H162        4.0938  -17.0703  -42.5169 H         1 UNK         0.0600 
    163 H163        4.6914  -18.7248  -42.5573 H         1 UNK         0.0600 
    164 H164        2.0626  -16.6559  -41.1975 H         1 UNK         0.3000 
    165 H165       -1.1529  -17.1280  -39.7333 H         1 UNK         0.0600 
    166 H166       -0.1205  -15.7852  -37.9300 H         1 UNK         0.0600 
    167 H167        0.4681  -17.4383  -37.8559 H         1 UNK         0.0600 
    168 H168        1.4958  -16.1737  -38.5199 H         1 UNK         0.0600 
    169 H169        0.3737  -14.7736  -40.2489 H         1 UNK         0.3000 
    170 H170       -0.8565  -14.2279  -43.5667 H         1 UNK         0.0600 
    171 H171       -2.6909  -13.5356  -42.0170 H         1 UNK         0.0600 
    172 H172       -1.5035  -12.8261  -40.9284 H         1 UNK         0.0600 
    173 H173       -1.7266  -12.1680  -42.5493 H         1 UNK         0.0600 
    174 H174        0.6577  -12.3975  -42.3521 H         1 UNK         0.3000 
    175 H175        3.2421  -12.5565  -41.9477 H         1 UNK         0.0600 
    176 H176        5.1332  -12.9415  -43.5472 H         1 UNK         0.0600 
    177 H177        4.6489  -14.4428  -42.7765 H         1 UNK         0.0600 
    178 H178        4.1567  -14.1113  -44.4342 H         1 UNK         0.0600 
    179 H179        1.9364  -12.1781  -44.5470 H         1 UNK         0.3000 
    180 H180        2.3249   -8.7227  -44.3663 H         1 UNK         0.0600 
    181 H181        3.8325  -10.3550  -46.4753 H         1 UNK         0.0600 
    182 H182        4.4831   -9.0180  -45.5373 H         1 UNK         0.0600 
    183 H183        3.2067   -8.7223  -46.7079 H         1 UNK         0.0600 
    184 H184        1.3365  -10.4595  -46.4455 H         1 UNK         0.3000 
    185 H185       -1.7547  -11.2274  -45.0025 H         1 UNK         0.0600 
    186 H186       -2.9006   -9.7943  -46.6701 H         1 UNK         0.0600 
    187 H187       -2.2861   -8.8079  -45.3543 H         1 UNK         0.0600 
    188 H188       -1.4361   -8.8360  -46.8947 H         1 UNK         0.0600 
    189 H189       -1.0573  -11.1368  -47.7437 H         1 UNK         0.3000 
    190 H190       -0.9035  -21.0226  -46.9074 H         1 UNK         0.3000 
    191 H191       -1.9061  -22.0531  -49.3282 H         1 UNK         0.0600 
    192 H192       -3.4177  -20.7297  -47.0138 H         1 UNK         0.0600 
    193 H193       -4.0243  -20.9186  -48.6527 H         1 UNK         0.0600 
    194 H194       -2.6312  -19.8908  -48.3448 H         1 UNK         0.0600 
    195 H195       -2.6344  -23.0467  -45.9535 H         1 UNK         0.3000 
    196 H196       -4.5413  -25.0582  -46.5789 H         1 UNK         0.0600 
    197 H197       -2.6888  -24.7927  -44.1541 H         1 UNK         0.0600 
    198 H198       -4.1025  -25.8341  -44.2530 H         1 UNK         0.0600 
    199 H199       -4.2955  -24.0885  -44.3146 H         1 UNK         0.0600 
    200 H200       -0.9729  -25.2637  -46.1129 H         1 UNK         0.3000 
    201 H201       -0.7006  -28.0486  -46.5506 H         1 UNK         0.0600 
    202 H202        1.2959  -25.7744  -47.0341 H         1 UNK         0.0600 
    203 H203        1.7025  -27.4828  -46.9339 H         1 UNK         0.0600 
    204 H204        1.0677  -26.6512  -45.5225 H         1 UNK         0.0600 
    205 H205       -0.9549  -25.3672  -48.8340 H         1 UNK         0.3000 
    206 H206       -0.4878  -26.9596  -51.2229 H         1 UNK         0.0600 
    207 H207        0.0485  -24.5209  -51.0889 H         1 UNK         0.0600 
    208 H208       -1.0922  -24.8589  -52.3791 H         1 UNK         0.0600 
    209 H209       -1.6590  -24.1543  -50.8701 H         1 UNK         0.0600 
    210 H210       -2.8696  -27.4087  -49.1301 H         1 UNK         0.3000 
    211 H211       -4.8109  -28.4092  -49.1140 H         1 UNK         0.0600 
    212 H212       -4.6301  -28.7887  -52.1455 H         1 UNK         0.0600 
    213 H213       -5.6562  -29.6745  -51.0293 H         1 UNK         0.0600 
    214 H214       -3.9127  -29.8627  -50.9444 H         1 UNK         0.0600 
    215 H215       -4.7235  -25.6566  -49.0903 H         1 UNK         0.3000 
    216 H216       -6.0340  -23.9013  -48.9001 H         1 UNK         0.0600 
    217 H217       -7.7686  -25.4778  -48.0302 H         1 UNK         0.0600 
    218 H218       -8.4733  -24.0929  -48.8472 H         1 UNK         0.0600 
    219 H219       -8.4267  -25.6509  -49.6571 H         1 UNK         0.0600 
    220 H220       -4.5907  -24.2694  -51.2364 H         1 UNK         0.3000 
    221 H221       -5.9935  -23.6115  -53.6237 H         1 UNK         0.0600 
    222 H222       -3.0764  -23.2248  -52.7839 H         1 UNK         0.0600 
    223 H223       -3.7489  -24.5563  -53.7173 H         1 UNK         0.0600 
    224 H224       -3.6600  -22.9510  -54.4172 H         1 UNK         0.0600 
    225 H225       -4.4817  -21.5969  -51.1443 H         1 UNK         0.3000 
    226 H226       -4.4411  -19.4088  -50.6630 H         1 UNK         0.0600 
    227 H227       -6.6705  -20.0794  -49.8871 H         1 UNK         0.0600 
    228 H228       -6.7434  -18.4251  -50.4622 H         1 UNK         0.0600 
    229 H229       -7.3867  -19.7368  -51.4540 H         1 UNK         0.0600 
    230 H230       -6.8842  -18.2532  -52.7525 H         1 UNK         0.3000 
    231 H231       -5.3210  -16.2416  -53.9276 H         1 UNK         0.0600 
    232 H232       -7.7704  -16.0780  -53.5887 H         1 UNK         0.0600 
    233 H233       -8.0485  -17.3663  -54.7619 H         1 UNK         0.0600 
    234 H234       -7.3851  -15.8219  -55.2823 H         1 UNK         0.0600 
    235 H235       -5.7343  -19.5583  -55.0161 H         1 UNK         0.3000 
    236 H236       -5.1248  -19.1825  -57.7862 H         1 UNK         0.0600 
    237 H237       -4.6834  -21.6326  -56.0087 H         1 UNK         0.0600 
    238 H238       -6.1780  -21.2506  -56.8613 H         1 UNK         0.0600 
    239 H239       -4.7166  -21.6208  -57.7650 H         1 UNK         0.0600 
    240 H240       -3.0898  -19.0554  -54.9431 H         1 UNK         0.3000 
    241 H241       -0.5796  -19.3165  -56.4495 H         1 UNK         0.0600 
    242 H242       -1.7140  -15.4819  -56.6346 H         1 UNK         0.3800 
    243 H243       -2.8714  -16.7548  -56.3526 H         1 UNK         0.3800 
    244 H244        0.4870  -18.6630  -54.2464 H         1 UNK         0.0800 
    245 H245       -1.1037  -18.5709  -53.5428 H         1 UNK         0.0800 
    246 H246       -1.1536  -22.0584  -52.0697 H         1 UNK         0.0800 
    247 H247       -2.2310  -20.7342  -52.4447 H         1 UNK         0.0800 
@<TRIPOS>BOND
     1    1    2 1    
     2    1  127 1    
     3    1  128 1    
     4    1  129 1    
     5    2    3 2    
     6    2    4 am   BACKBONE|DICT|INTERRES
     7    4    5 1    
     8    4  130 1    
     9    5    6 1    
    10    5   65 1    
    11    5  131 1    
    12    6    7 1    
    13    6  132 1    
    14    6  133 1    
    15    7    8 1    
    16    8    9 1    
    17    8  134 1    
    18    8  135 1    
    19    9   10 ar   
    20    9   14 ar   
    21   10   11 ar   
    22   10  136 1    
    23   11   12 ar   
    24   11  126 1    
    25   12   13 ar   
    26   12  137 1    
    27   13   14 ar   
    28   13   15 1    
    29   14  138 1    
    30   15   16 1    
    31   15  139 1    
    32   15  140 1    
    33   16   17 1    
    34   17   18 1    
    35   17  141 1    
    36   17  142 1    
    37   18   19 1    
    38   18   67 1    
    39   18  143 1    
    40   19   20 am   BACKBONE|DICT|INTERRES
    41   19  144 1    
    42   20   21 2    
    43   20   22 1    
    44   22   23 1    
    45   22   24 1    
    46   22  145 1    
    47   23  146 1    
    48   23  147 1    
    49   23  148 1    
    50   24   25 am   BACKBONE|DICT|INTERRES
    51   24  149 1    
    52   25   26 2    
    53   25   27 1    
    54   27   28 1    
    55   27   29 1    
    56   27  150 1    
    57   28  151 1    
    58   28  152 1    
    59   28  153 1    
    60   29   30 am   BACKBONE|DICT|INTERRES
    61   29  154 1    
    62   30   31 2    
    63   30   32 1    
    64   32   33 1    
    65   32   34 1    
    66   32  155 1    
    67   33  156 1    
    68   33  157 1    
    69   33  158 1    
    70   34   35 am   BACKBONE|DICT|INTERRES
    71   34  159 1    
    72   35   36 2    
    73   35   37 1    
    74   37   38 1    
    75   37   39 1    
    76   37  160 1    
    77   38  161 1    
    78   38  162 1    
    79   38  163 1    
    80   39   40 am   BACKBONE|DICT|INTERRES
    81   39  164 1    
    82   40   41 2    
    83   40   42 1    
    84   42   43 1    
    85   42   44 1    
    86   42  165 1    
    87   43  166 1    
    88   43  167 1    
    89   43  168 1    
    90   44   45 am   BACKBONE|DICT|INTERRES
    91   44  169 1    
    92   45   46 2    
    93   45   47 1    
    94   47   48 1    
    95   47   49 1    
    96   47  170 1    
    97   48  171 1    
    98   48  172 1    
    99   48  173 1    
   100   49   50 am   BACKBONE|DICT|INTERRES
   101   49  174 1    
   102   50   51 2    
   103   50   52 1    
   104   52   53 1    
   105   52   54 1    
   106   52  175 1    
   107   53  176 1    
   108   53  177 1    
   109   53  178 1    
   110   54   55 am   BACKBONE|DICT|INTERRES
   111   54  179 1    
   112   55   56 2    
   113   55   57 1    
   114   57   58 1    
   115   57   59 1    
   116   57  180 1    
   117   58  181 1    
   118   58  182 1    
   119   58  183 1    
   120   59   60 am   BACKBONE|DICT|INTERRES
   121   59  184 1    
   122   60   61 2    
   123   60   62 1    
   124   62   63 1    
   125   62   64 1    
   126   62  185 1    
   127   63  186 1    
   128   63  187 1    
   129   63  188 1    
   130   64   65 am   BACKBONE|DICT|INTERRES
   131   64  189 1    
   132   65   66 2    
   133   67   68 2    
   134   67   69 am   BACKBONE|DICT|INTERRES
   135   69   70 1    
   136   69  190 1    
   137   70   71 1    
   138   70   72 1    
   139   70  191 1    
   140   71  192 1    
   141   71  193 1    
   142   71  194 1    
   143   72   73 2    
   144   72   74 am   BACKBONE|DICT|INTERRES
   145   74   75 1    
   146   74  195 1    
   147   75   76 1    
   148   75   77 1    
   149   75  196 1    
   150   76  197 1    
   151   76  198 1    
   152   76  199 1    
   153   77   78 2    
   154   77   79 am   BACKBONE|DICT|INTERRES
   155   79   80 1    
   156   79  200 1    
   157   80   81 1    
   158   80   82 1    
   159   80  201 1    
   160   81  202 1    
   161   81  203 1    
   162   81  204 1    
   163   82   83 2    
   164   82   84 am   BACKBONE|DICT|INTERRES
   165   84   85 1    
   166   84  205 1    
   167   85   86 1    
   168   85   87 1    
   169   85  206 1    
   170   86  207 1    
   171   86  208 1    
   172   86  209 1    
   173   87   88 2    
   174   87   89 am   BACKBONE|DICT|INTERRES
   175   89   90 1    
   176   89  210 1    
   177   90   91 1    
   178   90   92 1    
   179   90  211 1    
   180   91  212 1    
   181   91  213 1    
   182   91  214 1    
   183   92   93 2    
   184   92   94 am   BACKBONE|DICT|INTERRES
   185   94   95 1    
   186   94  215 1    
   187   95   96 1    
   188   95   97 1    
   189   95  216 1    
   190   96  217 1    
   191   96  218 1    
   192   96  219 1    
   193   97   98 2    
   194   97   99 am   BACKBONE|DICT|INTERRES
   195   99  100 1    
   196   99  220 1    
   197  100  101 1    
   198  100  102 1    
   199  100  221 1    
   200  101  222 1    
   201  101  223 1    
   202  101  224 1    
   203  102  103 2    
   204  102  104 am   BACKBONE|DICT|INTERRES
   205  104  105 1    
   206  104  225 1    
   207  105  106 1    
   208  105  107 1    
   209  105  226 1    
   210  106  227 1    
   211  106  228 1    
   212  106  229 1    
   213  107  108 2    
   214  107  109 am   BACKBONE|DICT|INTERRES
   215  109  110 1    
   216  109  230 1    
   217  110  111 1    
   218  110  112 1    
   219  110  231 1    
   220  111  232 1    
   221  111  233 1    
   222  111  234 1    
   223  112  113 2    
   224  112  114 am   BACKBONE|DICT|INTERRES
   225  114  115 1    
   226  114  235 1    
   227  115  116 1    
   228  115  117 1    
   229  115  236 1    
   230  116  237 1    
   231  116  238 1    
   232  116  239 1    
   233  117  118 2    
   234  117  119 am   BACKBONE|DICT|INTERRES
   235  119  120 1    
   236  119  240 1    
   237  120  121 1    
   238  120  124 1    
   239  120  241 1    
   240  121  122 am   BACKBONE|DICT|INTERRES
   241  121  123 2    
   242  122  242 1    
   243  122  243 1    
   244  124  125 1    
   245  124  244 1    
   246  124  245 1    
   247  125  126 1    
   248  126  246 1    
   249  126  247 1    
@<TRIPOS>SUBSTRUCTURE
     1 UNK         1 GROUP             0       ****    0 ROOT    
