@<TRIPOS>MOLECULE
3R540
247   249    1
SMALL
USER_CHARGES


@<TRIPOS>ATOM
      1 CA          3.5070  -16.6578  -51.5391 C.3       0 UNK        -0.1800 
      2 C           3.7914  -15.2395  -52.0295 C.2       0 UNK         0.5000 
      3 O           4.4279  -15.0792  -53.0694 O.2       0 UNK        -0.5000 
      4 N           3.3592  -14.1839  -51.3295 N.am      1 UNK        -0.5000 
      5 CA          2.6426  -14.1819  -50.0531 C.3       1 UNK         0.1400 
      6 C6          1.1542  -13.7785  -50.2195 C.3       23 UNK        -0.0398 
      7 S7          0.1475  -15.1327  -50.9021 S.3       23 UNK        -0.2404 
      8 C8         -0.4112  -15.9032  -49.3530 C.3       23 UNK        -0.0205 
      9 C9         -0.9879  -17.2880  -49.5845 C.ar      23 UNK        -0.0193 
     10 C10        -2.3516  -17.5270  -49.4122 C.ar      23 UNK        -0.1150 
     11 C11        -2.8708  -18.8163  -49.5563 C.ar      23 UNK        -0.0193 
     12 C12        -2.0144  -19.8705  -49.8901 C.ar      23 UNK        -0.1150 
     13 C13        -0.6466  -19.6427  -50.0748 C.ar      23 UNK        -0.0193 
     14 C14        -0.1437  -18.3465  -49.9227 C.ar      23 UNK        -0.1150 
     15 C15         0.2782  -20.8034  -50.4308 C.3       23 UNK        -0.0205 
     16 S16         1.8678  -20.8043  -49.5213 S.3       23 UNK        -0.2404 
     17 C17         1.3335  -20.6762  -47.7763 C.3       23 UNK        -0.0398 
     18 CA          1.2285  -22.0311  -47.0408 C.3       11 UNK         0.1400 
     19 N           1.0122  -21.8471  -45.6058 N.am      11 UNK        -0.5000 
     20 C           0.9855  -22.8284  -44.6935 C.2       10 UNK         0.5000 
     21 O           1.2057  -24.0120  -44.9495 O.2       10 UNK        -0.5000 
     22 CA          0.5925  -22.4241  -43.2622 C.3       10 UNK         0.1400 
     23 CB          1.7817  -21.7887  -42.5269 C.3       10 UNK        -0.1800 
     24 N          -0.5539  -21.5137  -43.2331 N.am      10 UNK        -0.5000 
     25 C          -1.7815  -21.8301  -43.6718 C.2       9 UNK         0.5000 
     26 O          -2.0862  -22.9396  -44.1112 O.2       9 UNK        -0.5000 
     27 CA         -2.8380  -20.7110  -43.6524 C.3       9 UNK         0.1400 
     28 CB         -3.3922  -20.5081  -42.2344 C.3       9 UNK        -0.1800 
     29 N          -2.3313  -19.4398  -44.1714 N.am      9 UNK        -0.5000 
     30 C          -1.9096  -19.2476  -45.4297 C.2       8 UNK         0.5000 
     31 O          -1.9249  -20.1204  -46.2955 O.2       8 UNK        -0.5000 
     32 CA         -1.3189  -17.8662  -45.7633 C.3       8 UNK         0.1400 
     33 CB         -2.4283  -16.8208  -45.9509 C.3       8 UNK        -0.1800 
     34 N          -0.3733  -17.4008  -44.7492 N.am      8 UNK        -0.5000 
     35 C           0.7593  -18.0355  -44.4143 C.2       7 UNK         0.5000 
     36 O           1.1631  -19.0588  -44.9646 O.2       7 UNK        -0.5000 
     37 CA          1.5471  -17.4587  -43.2282 C.3       7 UNK         0.1400 
     38 CB          2.3878  -16.2506  -43.6639 C.3       7 UNK        -0.1800 
     39 N           0.6661  -17.0793  -42.1247 N.am      7 UNK        -0.5000 
     40 C          -0.0230  -17.9518  -41.3752 C.2       6 UNK         0.5000 
     41 O           0.0351  -19.1733  -41.5149 O.2       6 UNK        -0.5000 
     42 CA         -0.9698  -17.3519  -40.3211 C.3       6 UNK         0.1400 
     43 CB         -0.1990  -16.9810  -39.0454 C.3       6 UNK        -0.1800 
     44 N          -1.6833  -16.1751  -40.8192 N.am      6 UNK        -0.5000 
     45 C          -2.5940  -16.2062  -41.8022 C.2       5 UNK         0.5000 
     46 O          -2.9480  -17.2359  -42.3749 O.2       5 UNK        -0.5000 
     47 CA         -3.1741  -14.8529  -42.2483 C.3       5 UNK         0.1400 
     48 CB         -4.3644  -14.4569  -41.3620 C.3       5 UNK        -0.1800 
     49 N          -2.1864  -13.7699  -42.2513 N.am      5 UNK        -0.5000 
     50 C          -1.1070  -13.7295  -43.0426 C.2       4 UNK         0.5000 
     51 O          -0.7857  -14.6357  -43.8164 O.2       4 UNK        -0.5000 
     52 CA         -0.2274  -12.4782  -42.9426 C.3       4 UNK         0.1400 
     53 CB          0.9994  -12.7382  -42.0537 C.3       4 UNK        -0.1800 
     54 N           0.2094  -12.1274  -44.2887 N.am      4 UNK        -0.5000 
     55 C           0.2346  -10.8916  -44.8010 C.2       3 UNK         0.5000 
     56 O          -0.0294   -9.8770  -44.1525 O.2       3 UNK        -0.5000 
     57 CA          0.6038  -10.7897  -46.2964 C.3       3 UNK         0.1400 
     58 CB          0.8560   -9.3424  -46.7704 C.3       3 UNK        -0.1800 
     59 N           1.7173  -11.6716  -46.6662 N.am      3 UNK        -0.5000 
     60 C           2.9898  -11.6041  -46.2421 C.2       2 UNK         0.5000 
     61 O           3.4132  -10.7440  -45.4693 O.2       2 UNK        -0.5000 
     62 CA          3.9582  -12.6915  -46.7546 C.3       2 UNK         0.1400 
     63 CB          4.3923  -13.6053  -45.5977 C.3       2 UNK        -0.1800 
     64 N           3.3858  -13.5246  -47.8184 N.am      2 UNK        -0.5000 
     65 C           3.3557  -13.1924  -49.1160 C.2       1 UNK         0.5000 
     66 O           3.8278  -12.1473  -49.5706 O.2       1 UNK        -0.5000 
     67 C           0.1453  -22.9345  -47.6579 C.2       11 UNK         0.5000 
     68 O           0.4910  -23.9081  -48.3242 O.2       11 UNK        -0.5000 
     69 N          -1.1335  -22.6233  -47.4005 N.am      12 UNK        -0.5000 
     70 CA         -2.2848  -23.3814  -47.8899 C.3       12 UNK         0.1400 
     71 CB         -3.5848  -22.6850  -47.4640 C.3       12 UNK        -0.1800 
     72 C          -2.2795  -24.8479  -47.4288 C.2       12 UNK         0.5000 
     73 O          -2.5585  -25.7331  -48.2362 O.2       12 UNK        -0.5000 
     74 N          -1.9230  -25.0804  -46.1583 N.am      13 UNK        -0.5000 
     75 CA         -1.7635  -26.4117  -45.5763 C.3       13 UNK         0.1400 
     76 CB         -1.5973  -26.2867  -44.0541 C.3       13 UNK        -0.1800 
     77 C          -0.5912  -27.1996  -46.1917 C.2       13 UNK         0.5000 
     78 O          -0.7428  -28.3907  -46.4650 O.2       13 UNK        -0.5000 
     79 N           0.5495  -26.5274  -46.3985 N.am      14 UNK        -0.5000 
     80 CA          1.7653  -27.1161  -46.9593 C.3       14 UNK         0.1400 
     81 CB          2.9581  -26.1867  -46.6846 C.3       14 UNK        -0.1800 
     82 C           1.6496  -27.4197  -48.4635 C.2       14 UNK         0.5000 
     83 O           2.0165  -28.5147  -48.8922 O.2       14 UNK        -0.5000 
     84 N           1.1589  -26.4442  -49.2382 N.am      15 UNK        -0.5000 
     85 CA          1.0419  -26.5240  -50.6943 C.3       15 UNK         0.1400 
     86 CB          0.9634  -25.1009  -51.2722 C.3       15 UNK        -0.1800 
     87 C          -0.1717  -27.3445  -51.1601 C.2       15 UNK         0.5000 
     88 O          -0.1417  -27.8729  -52.2721 O.2       15 UNK        -0.5000 
     89 N          -1.2209  -27.4040  -50.3245 N.am      16 UNK        -0.5000 
     90 CA         -2.5464  -27.9678  -50.6096 C.3       16 UNK         0.1400 
     91 CB         -2.4674  -29.4929  -50.8325 C.3       16 UNK        -0.1800 
     92 C          -3.2712  -27.2202  -51.7521 C.2       16 UNK         0.5000 
     93 O          -4.0493  -27.8258  -52.4919 O.2       16 UNK        -0.5000 
     94 N          -2.9940  -25.9166  -51.8827 N.am      17 UNK        -0.5000 
     95 CA         -3.4870  -25.0388  -52.9362 C.3       17 UNK         0.1400 
     96 CB         -2.6812  -25.2711  -54.2280 C.3       17 UNK        -0.1800 
     97 C          -3.3710  -23.5778  -52.4802 C.2       17 UNK         0.5000 
     98 O          -2.5484  -23.2615  -51.6168 O.2       17 UNK        -0.5000 
     99 N          -4.1943  -22.7183  -53.0866 N.am      18 UNK        -0.5000 
    100 CA        -4.1975  -21.2715  -52.8901 C.3       18 UNK         0.1400 
    101 CB        -5.5972  -20.7507  -53.2523 C.3       18 UNK        -0.1800 
    102 C         -3.1400  -20.5839  -53.7722 C.2       18 UNK         0.5000 
    103 O         -2.8242  -21.0875  -54.8533 O.2       18 UNK        -0.5000 
    104 N         -2.6654  -19.4155  -53.3265 N.am      19 UNK        -0.5000 
    105 CA        -1.8015  -18.5131  -54.0963 C.3       19 UNK         0.1400 
    106 CB        -0.3356  -18.6952  -53.6662 C.3       19 UNK        -0.1800 
    107 C         -2.2704  -17.0488  -53.9744 C.2       19 UNK         0.5000 
    108 O         -1.5086  -16.1325  -54.2860 O.2       19 UNK        -0.5000 
    109 N         -3.5191  -16.8524  -53.5385 N.am      20 UNK        -0.5000 
    110 CA        -4.1871  -15.5702  -53.3513 C.3       20 UNK         0.1400 
    111 CB        -3.7610  -14.9513  -52.0037 C.3       20 UNK        -0.1800 
    112 C         -5.7050  -15.8074  -53.4452 C.2       20 UNK         0.5000 
    113 O         -6.1327  -16.8735  -53.9011 O.2       20 UNK        -0.5000 
    114 N         -6.5041  -14.8335  -52.9910 N.am      21 UNK        -0.5000 
    115 CA        -7.9641  -14.9113  -52.8778 C.3       21 UNK         0.1400 
    116 CB        -8.5284  -13.4823  -52.7807 C.3       21 UNK        -0.1800 
    117 C         -8.3956  -15.8053  -51.6925 C.2       21 UNK         0.5000 
    118 O         -8.9947  -15.3243  -50.7286 O.2       21 UNK        -0.5000 
    119 N         -8.0406  -17.0888  -51.7782 N.am      22 UNK        -0.5000 
    120 CA        -8.1929  -18.1085  -50.7306 C.3       22 UNK         0.1400 
    121 C         -8.5851  -19.5110  -51.2791 C.2       22 UNK         0.5000 
    122 N         -8.9314  -19.6528  -52.5535 N.am      22 UNK        -0.7600 
    123 O         -8.6059  -20.4866  -50.5337 O.2       22 UNK        -0.5000 
    124 C124       -6.9692  -18.1373  -49.7725 C.3       23 UNK        -0.0398 
    125 S125       -5.3607  -18.3123  -50.6241 S.3       23 UNK        -0.2404 
    126 C126       -4.3515  -19.0576  -49.3131 C.3       23 UNK        -0.0205 
    127 H127        2.4371  -16.8304  -51.4370 H         1 UNK         0.0600 
    128 H128        3.9893  -16.8416  -50.5792 H         1 UNK         0.0600 
    129 H129        3.8908  -17.3915  -52.2482 H         1 UNK         0.0600 
    130 H130        3.6162  -13.2576  -51.6441 H         1 UNK         0.3000 
    131 H131        2.6953  -15.1629  -49.5794 H         1 UNK         0.0600 
    132 H132        1.0619  -12.9126  -50.8775 H         1 UNK         0.0800 
    133 H133        0.7105  -13.4755  -49.2694 H         1 UNK         0.0800 
    134 H134        0.4260  -15.9889  -48.6589 H         1 UNK         0.0800 
    135 H135       -1.1452  -15.2531  -48.8743 H         1 UNK         0.0800 
    136 H136       -3.0113  -16.7133  -49.1463 H         1 UNK         0.1150 
    137 H137       -2.4080  -20.8721  -49.9926 H         1 UNK         0.1150 
    138 H138        0.9120  -18.1598  -50.0566 H         1 UNK         0.1150 
    139 H139       -0.2252  -21.7571  -50.2662 H         1 UNK         0.0800 
    140 H140        0.4918  -20.7592  -51.4987 H         1 UNK         0.0800 
    141 H141        0.3991  -20.1213  -47.6962 H         1 UNK         0.0800 
    142 H142        2.0781  -20.0568  -47.2753 H         1 UNK         0.0800 
    143 H143        2.1848  -22.5466  -47.1512 H         1 UNK         0.0600 
    144 H144        0.8554  -20.8907  -45.2976 H         1 UNK         0.3000 
    145 H145        0.3093  -23.3331  -42.7275 H         1 UNK         0.0600 
    146 H146        1.5357  -21.5839  -41.4849 H         1 UNK         0.0600 
    147 H147        2.6458  -22.4542  -42.5326 H         1 UNK         0.0600 
    148 H148        2.0863  -20.8491  -42.9888 H         1 UNK         0.0600 
    149 H149       -0.3903  -20.5889  -42.8469 H         1 UNK         0.3000 
    150 H150       -3.6625  -21.0250  -44.2957 H         1 UNK         0.0600 
    151 H151       -3.7818  -21.4427  -41.8290 H         1 UNK         0.0600 
    152 H152       -4.2093  -19.7865  -42.2312 H         1 UNK         0.0600 
    153 H153       -2.6248  -20.1460  -41.5496 H         1 UNK         0.0600 
    154 H154       -2.3271  -18.6552  -43.5256 H         1 UNK         0.3000 
    155 H155       -0.7760  -17.9603  -46.7057 H         1 UNK         0.0600 
    156 H156       -2.0211  -15.8751  -46.3087 H         1 UNK         0.0600 
    157 H157       -3.1658  -17.1577  -46.6794 H         1 UNK         0.0600 
    158 H158       -2.9595  -16.6250  -45.0203 H         1 UNK         0.0600 
    159 H159       -0.6083  -16.5369  -44.2697 H         1 UNK         0.3000 
    160 H160        2.2276  -18.2333  -42.8683 H         1 UNK         0.0600 
    161 H161        1.7660  -15.4441  -44.0524 H         1 UNK         0.0600 
    162 H162        3.0887  -16.5317  -44.4510 H         1 UNK         0.0600 
    163 H163        2.9734  -15.8551  -42.8339 H         1 UNK         0.0600 
    164 H164        0.5212  -16.0925  -41.9756 H         1 UNK         0.3000 
    165 H165       -1.7086  -18.1143  -40.0646 H         1 UNK         0.0600 
    166 H166       -0.8741  -16.6268  -38.2662 H         1 UNK         0.0600 
    167 H167        0.3315  -17.8463  -38.6455 H         1 UNK         0.0600 
    168 H168        0.5393  -16.2000  -39.2310 H         1 UNK         0.0600 
    169 H169       -1.4516  -15.2855  -40.4029 H         1 UNK         0.3000 
    170 H170       -3.5388  -14.9729  -43.2704 H         1 UNK         0.0600 
    171 H171       -5.1243  -15.2397  -41.3568 H         1 UNK         0.0600 
    172 H172       -4.0601  -14.2880  -40.3283 H         1 UNK         0.0600 
    173 H173       -4.8411  -13.5464  -41.7253 H         1 UNK         0.0600 
    174 H174       -2.3751  -12.9897  -41.6382 H         1 UNK         0.3000 
    175 H175       -0.8196  -11.6686  -42.5105 H         1 UNK         0.0600 
    176 H176        0.7000  -13.0233  -41.0444 H         1 UNK         0.0600 
    177 H177        1.6254  -13.5372  -42.4514 H         1 UNK         0.0600 
    178 H178        1.6172  -11.8440  -41.9697 H         1 UNK         0.0600 
    179 H179        0.3861  -12.9188  -44.8924 H         1 UNK         0.3000 
    180 H180       -0.2662  -11.1578  -46.8421 H         1 UNK         0.0600 
    181 H181        1.6710   -8.8690  -46.2224 H         1 UNK         0.0600 
    182 H182       -0.0321   -8.7257  -46.6281 H         1 UNK         0.0600 
    183 H183        1.1035   -9.3128  -47.8315 H         1 UNK         0.0600 
    184 H184        1.4831  -12.4283  -47.2895 H         1 UNK         0.3000 
    185 H185        4.8465  -12.1845  -47.1377 H         1 UNK         0.0600 
    186 H186        4.8908  -13.0344  -44.8131 H         1 UNK         0.0600 
    187 H187        3.5381  -14.1057  -45.1435 H         1 UNK         0.0600 
    188 H188        5.0924  -14.3695  -45.9357 H         1 UNK         0.0600 
    189 H189        2.9938  -14.4078  -47.5243 H         1 UNK         0.3000 
    190 H190       -1.3435  -21.7824  -46.8662 H         1 UNK         0.3000 
    191 H191       -2.2358  -23.3762  -48.9797 H         1 UNK         0.0600 
    192 H192       -3.6938  -22.6639  -46.3794 H         1 UNK         0.0600 
    193 H193       -4.4556  -23.1969  -47.8750 H         1 UNK         0.0600 
    194 H194       -3.6125  -21.6563  -47.8183 H         1 UNK         0.0600 
    195 H195       -1.7503  -24.2887  -45.5456 H         1 UNK         0.3000 
    196 H196       -2.6793  -26.9736  -45.7713 H         1 UNK         0.0600 
    197 H197       -1.4904  -27.2679  -43.5900 H         1 UNK         0.0600 
    198 H198       -2.4646  -25.8050  -43.6022 H         1 UNK         0.0600 
    199 H199       -0.7164  -25.6999  -43.7918 H         1 UNK         0.0600 
    200 H200        0.6064  -25.5546  -46.1134 H         1 UNK         0.3000 
    201 H201        1.9535  -28.0605  -46.4442 H         1 UNK         0.0600 
    202 H202        3.1086  -26.0470  -45.6140 H         1 UNK         0.0600 
    203 H203        2.8137  -25.2024  -47.1318 H         1 UNK         0.0600 
    204 H204        3.8809  -26.6020  -47.0915 H         1 UNK         0.0600 
    205 H205        0.8917  -25.5566  -48.8116 H         1 UNK         0.3000 
    206 H206        1.9403  -27.0015  -51.0910 H         1 UNK         0.0600 
    207 H207        1.8262  -24.5042  -50.9754 H         1 UNK         0.0600 
    208 H208        0.9403  -25.1218  -52.3624 H         1 UNK         0.0600 
    209 H209        0.0659  -24.5783  -50.9376 H         1 UNK         0.0600 
    210 H210       -1.1551  -26.9081  -49.4436 H         1 UNK         0.3000 
    211 H211       -3.1488  -27.8066  -49.7154 H         1 UNK         0.0600 
    212 H212       -1.9563  -29.7439  -51.7621 H         1 UNK         0.0600 
    213 H213       -3.4647  -29.9314  -50.8816 H         1 UNK         0.0600 
    214 H214       -1.9387  -29.9829  -50.0148 H         1 UNK         0.0600 
    215 H215       -2.3898  -25.4643  -51.2082 H         1 UNK         0.3000 
    216 H216       -4.5412  -25.2593  -53.1175 H         1 UNK         0.0600 
    217 H217       -1.6166  -25.0924  -54.0707 H         1 UNK         0.0600 
    218 H218       -3.0124  -24.6040  -55.0250 H         1 UNK         0.0600 
    219 H219       -2.7976  -26.2919  -54.5921 H         1 UNK         0.0600 
    220 H220       -4.7978  -23.0609  -53.8197 H         1 UNK         0.3000 
    221 H221       -3.9955  -21.0439  -51.8419 H         1 UNK         0.0600 
    222 H222       -6.3504  -21.1597  -52.5792 H         1 UNK         0.0600 
    223 H223       -5.8773  -21.0187  -54.2717 H         1 UNK         0.0600 
    224 H224       -5.6525  -19.6646  -53.1813 H         1 UNK         0.0600 
    225 H225       -2.9486  -19.0766  -52.4163 H         1 UNK         0.3000 
    226 H226       -1.8726  -18.7556  -55.1584 H         1 UNK         0.0600 
    227 H227        0.3350  -18.1279  -54.3123 H         1 UNK         0.0600 
    228 H228       -0.1735  -18.3472  -52.6477 H         1 UNK         0.0600 
    229 H229       -0.0321  -19.7404  -53.7225 H         1 UNK         0.0600 
    230 H230       -4.1293  -17.6487  -53.4098 H         1 UNK         0.3000 
    231 H231       -3.9086  -14.8980  -54.1651 H         1 UNK         0.0600 
    232 H232       -4.1000  -15.5537  -51.1605 H         1 UNK         0.0600 
    233 H233       -4.1636  -13.9462  -51.8780 H         1 UNK         0.0600 
    234 H234       -2.6770  -14.8668  -51.9336 H         1 UNK         0.0600 
    235 H235       -6.0774  -14.0035  -52.6062 H         1 UNK         0.3000 
    236 H236       -8.3634  -15.3632  -53.7884 H         1 UNK         0.0600 
    237 H237       -8.2615  -12.8931  -53.6582 H         1 UNK         0.0600 
    238 H238       -9.6173  -13.4954  -52.7195 H         1 UNK         0.0600 
    239 H239       -8.1550  -12.9593  -51.8994 H         1 UNK         0.0600 
    240 H240       -7.4787  -17.3645  -52.5781 H         1 UNK         0.3000 
    241 H241       -9.0576  -17.8300  -50.1258 H         1 UNK         0.0600 
    242 H242       -9.1964  -20.5640  -52.8924 H         1 UNK         0.3800 
    243 H243       -8.9690  -18.8602  -53.1737 H         1 UNK         0.3800 
    244 H244       -7.0793  -18.9288  -49.0294 H         1 UNK         0.0800 
    245 H245       -6.9376  -17.2065  -49.2050 H         1 UNK         0.0800 
    246 H246       -4.6231  -18.6327  -48.3457 H         1 UNK         0.0800 
    247 H247       -4.5755  -20.1232  -49.2622 H         1 UNK         0.0800 
@<TRIPOS>BOND
     1    1    2 1    
     2    1  127 1    
     3    1  128 1    
     4    1  129 1    
     5    2    3 2    
     6    2    4 am   BACKBONE|DICT|INTERRES
     7    4    5 1    
     8    4  130 1    
     9    5    6 1    
    10    5   65 1    
    11    5  131 1    
    12    6    7 1    
    13    6  132 1    
    14    6  133 1    
    15    7    8 1    
    16    8    9 1    
    17    8  134 1    
    18    8  135 1    
    19    9   10 ar   
    20    9   14 ar   
    21   10   11 ar   
    22   10  136 1    
    23   11   12 ar   
    24   11  126 1    
    25   12   13 ar   
    26   12  137 1    
    27   13   14 ar   
    28   13   15 1    
    29   14  138 1    
    30   15   16 1    
    31   15  139 1    
    32   15  140 1    
    33   16   17 1    
    34   17   18 1    
    35   17  141 1    
    36   17  142 1    
    37   18   19 1    
    38   18   67 1    
    39   18  143 1    
    40   19   20 am   BACKBONE|DICT|INTERRES
    41   19  144 1    
    42   20   21 2    
    43   20   22 1    
    44   22   23 1    
    45   22   24 1    
    46   22  145 1    
    47   23  146 1    
    48   23  147 1    
    49   23  148 1    
    50   24   25 am   BACKBONE|DICT|INTERRES
    51   24  149 1    
    52   25   26 2    
    53   25   27 1    
    54   27   28 1    
    55   27   29 1    
    56   27  150 1    
    57   28  151 1    
    58   28  152 1    
    59   28  153 1    
    60   29   30 am   BACKBONE|DICT|INTERRES
    61   29  154 1    
    62   30   31 2    
    63   30   32 1    
    64   32   33 1    
    65   32   34 1    
    66   32  155 1    
    67   33  156 1    
    68   33  157 1    
    69   33  158 1    
    70   34   35 am   BACKBONE|DICT|INTERRES
    71   34  159 1    
    72   35   36 2    
    73   35   37 1    
    74   37   38 1    
    75   37   39 1    
    76   37  160 1    
    77   38  161 1    
    78   38  162 1    
    79   38  163 1    
    80   39   40 am   BACKBONE|DICT|INTERRES
    81   39  164 1    
    82   40   41 2    
    83   40   42 1    
    84   42   43 1    
    85   42   44 1    
    86   42  165 1    
    87   43  166 1    
    88   43  167 1    
    89   43  168 1    
    90   44   45 am   BACKBONE|DICT|INTERRES
    91   44  169 1    
    92   45   46 2    
    93   45   47 1    
    94   47   48 1    
    95   47   49 1    
    96   47  170 1    
    97   48  171 1    
    98   48  172 1    
    99   48  173 1    
   100   49   50 am   BACKBONE|DICT|INTERRES
   101   49  174 1    
   102   50   51 2    
   103   50   52 1    
   104   52   53 1    
   105   52   54 1    
   106   52  175 1    
   107   53  176 1    
   108   53  177 1    
   109   53  178 1    
   110   54   55 am   BACKBONE|DICT|INTERRES
   111   54  179 1    
   112   55   56 2    
   113   55   57 1    
   114   57   58 1    
   115   57   59 1    
   116   57  180 1    
   117   58  181 1    
   118   58  182 1    
   119   58  183 1    
   120   59   60 am   BACKBONE|DICT|INTERRES
   121   59  184 1    
   122   60   61 2    
   123   60   62 1    
   124   62   63 1    
   125   62   64 1    
   126   62  185 1    
   127   63  186 1    
   128   63  187 1    
   129   63  188 1    
   130   64   65 am   BACKBONE|DICT|INTERRES
   131   64  189 1    
   132   65   66 2    
   133   67   68 2    
   134   67   69 am   BACKBONE|DICT|INTERRES
   135   69   70 1    
   136   69  190 1    
   137   70   71 1    
   138   70   72 1    
   139   70  191 1    
   140   71  192 1    
   141   71  193 1    
   142   71  194 1    
   143   72   73 2    
   144   72   74 am   BACKBONE|DICT|INTERRES
   145   74   75 1    
   146   74  195 1    
   147   75   76 1    
   148   75   77 1    
   149   75  196 1    
   150   76  197 1    
   151   76  198 1    
   152   76  199 1    
   153   77   78 2    
   154   77   79 am   BACKBONE|DICT|INTERRES
   155   79   80 1    
   156   79  200 1    
   157   80   81 1    
   158   80   82 1    
   159   80  201 1    
   160   81  202 1    
   161   81  203 1    
   162   81  204 1    
   163   82   83 2    
   164   82   84 am   BACKBONE|DICT|INTERRES
   165   84   85 1    
   166   84  205 1    
   167   85   86 1    
   168   85   87 1    
   169   85  206 1    
   170   86  207 1    
   171   86  208 1    
   172   86  209 1    
   173   87   88 2    
   174   87   89 am   BACKBONE|DICT|INTERRES
   175   89   90 1    
   176   89  210 1    
   177   90   91 1    
   178   90   92 1    
   179   90  211 1    
   180   91  212 1    
   181   91  213 1    
   182   91  214 1    
   183   92   93 2    
   184   92   94 am   BACKBONE|DICT|INTERRES
   185   94   95 1    
   186   94  215 1    
   187   95   96 1    
   188   95   97 1    
   189   95  216 1    
   190   96  217 1    
   191   96  218 1    
   192   96  219 1    
   193   97   98 2    
   194   97   99 am   BACKBONE|DICT|INTERRES
   195   99  100 1    
   196   99  220 1    
   197  100  101 1    
   198  100  102 1    
   199  100  221 1    
   200  101  222 1    
   201  101  223 1    
   202  101  224 1    
   203  102  103 2    
   204  102  104 am   BACKBONE|DICT|INTERRES
   205  104  105 1    
   206  104  225 1    
   207  105  106 1    
   208  105  107 1    
   209  105  226 1    
   210  106  227 1    
   211  106  228 1    
   212  106  229 1    
   213  107  108 2    
   214  107  109 am   BACKBONE|DICT|INTERRES
   215  109  110 1    
   216  109  230 1    
   217  110  111 1    
   218  110  112 1    
   219  110  231 1    
   220  111  232 1    
   221  111  233 1    
   222  111  234 1    
   223  112  113 2    
   224  112  114 am   BACKBONE|DICT|INTERRES
   225  114  115 1    
   226  114  235 1    
   227  115  116 1    
   228  115  117 1    
   229  115  236 1    
   230  116  237 1    
   231  116  238 1    
   232  116  239 1    
   233  117  118 2    
   234  117  119 am   BACKBONE|DICT|INTERRES
   235  119  120 1    
   236  119  240 1    
   237  120  121 1    
   238  120  124 1    
   239  120  241 1    
   240  121  122 am   BACKBONE|DICT|INTERRES
   241  121  123 2    
   242  122  242 1    
   243  122  243 1    
   244  124  125 1    
   245  124  244 1    
   246  124  245 1    
   247  125  126 1    
   248  126  246 1    
   249  126  247 1    
@<TRIPOS>SUBSTRUCTURE
     1 UNK         1 GROUP             0       ****    0 ROOT    
