@<TRIPOS>MOLECULE
3R540
247   249    1
SMALL
USER_CHARGES


@<TRIPOS>ATOM
      1 CA         -3.1545  -16.0758  -43.0258 C.3       0 UNK        -0.1800 
      2 C          -2.9855  -14.5637  -42.9440 C.2       0 UNK         0.5000 
      3 O          -2.7757  -14.0332  -41.8529 O.2       0 UNK        -0.5000 
      4 N          -3.0860  -13.8679  -44.0838 N.am      1 UNK        -0.5000 
      5 CA         -2.8709  -12.4224  -44.1982 C.3       1 UNK         0.1400 
      6 C6         -3.5652  -11.8313  -45.4547 C.3       23 UNK        -0.0398 
      7 S7         -2.9458  -12.4855  -47.0473 S.3       23 UNK        -0.2404 
      8 C8         -4.2742  -13.6272  -47.5413 C.3       23 UNK        -0.0205 
      9 C9         -3.6888  -14.8995  -48.1292 C.ar      23 UNK        -0.0193 
     10 C10        -3.3200  -14.9515  -49.4774 C.ar      23 UNK        -0.1150 
     11 C11        -2.7519  -16.1130  -50.0083 C.ar      23 UNK        -0.0193 
     12 C12        -2.5514  -17.2200  -49.1818 C.ar      23 UNK        -0.1150 
     13 C13        -2.9319  -17.1868  -47.8401 C.ar      23 UNK        -0.0193 
     14 C14        -3.5047  -16.0243  -47.3192 C.ar      23 UNK        -0.1150 
     15 C15        -2.7131  -18.4046  -46.9600 C.3       23 UNK        -0.0205 
     16 S16        -3.9544  -19.6885  -47.2855 S.3       23 UNK        -0.2404 
     17 C17        -3.5334  -20.9246  -46.0126 C.3       23 UNK        -0.0398 
     18 CA         -2.6146  -22.0376  -46.5736 C.3       11 UNK         0.1400 
     19 N          -1.1954  -21.6694  -46.5620 N.am      11 UNK        -0.5000 
     20 C          -0.2618  -22.3050  -47.2846 C.2       10 UNK         0.5000 
     21 O          -0.5066  -23.2545  -48.0283 O.2       10 UNK        -0.5000 
     22 CA          1.1933  -21.8408  -47.1126 C.3       10 UNK         0.1400 
     23 CB          1.4287  -20.4951  -47.8140 C.3       10 UNK        -0.1800 
     24 N           1.6005  -21.7423  -45.7118 N.am      10 UNK        -0.5000 
     25 C           1.6303  -22.7627  -44.8431 C.2       9 UNK         0.5000 
     26 O           1.2601  -23.9047  -45.1144 O.2       9 UNK        -0.5000 
     27 CA          2.1405  -22.4488  -43.4281 C.3       9 UNK         0.1400 
     28 CB          3.6760  -22.4021  -43.3996 C.3       9 UNK        -0.1800 
     29 N           1.6034  -21.1773  -42.9490 N.am      9 UNK        -0.5000 
     30 C           0.4181  -21.0447  -42.3389 C.2       8 UNK         0.5000 
     31 O          -0.3089  -21.9926  -42.0450 O.2       8 UNK        -0.5000 
     32 CA         -0.0513  -19.6120  -42.0188 C.3       8 UNK         0.1400 
     33 CB          0.4000  -19.1973  -40.6106 C.3       8 UNK        -0.1800 
     34 N           0.4092  -18.6121  -42.9834 N.am      8 UNK        -0.5000 
     35 C           0.0696  -18.5934  -44.2789 C.2       7 UNK         0.5000 
     36 O          -0.6529  -19.4355  -44.8115 O.2       7 UNK        -0.5000 
     37 CA          0.6797  -17.4676  -45.1313 C.3       7 UNK         0.1400 
     38 CB         -0.1096  -16.1695  -44.9261 C.3       7 UNK        -0.1800 
     39 N           2.0997  -17.2029  -44.8794 N.am      7 UNK        -0.5000 
     40 C           3.0901  -18.1083  -44.8650 C.2       6 UNK         0.5000 
     41 O           2.9054  -19.3254  -44.9153 O.2       6 UNK        -0.5000 
     42 CA          4.5270  -17.5469  -44.7912 C.3       6 UNK         0.1400 
     43 CB          5.5947  -18.5962  -45.1660 C.3       6 UNK        -0.1800 
     44 N           4.7109  -16.3201  -45.5801 N.am      6 UNK        -0.5000 
     45 C           4.4917  -16.1660  -46.8950 C.2       5 UNK         0.5000 
     46 O           4.1013  -17.0612  -47.6472 O.2       5 UNK        -0.5000 
     47 CA          4.7484  -14.7624  -47.4699 C.3       5 UNK         0.1400 
     48 CB          5.8996  -14.7847  -48.4880 C.3       5 UNK        -0.1800 
     49 N           3.5438  -14.2423  -48.1139 N.am      5 UNK        -0.5000 
     50 C           2.4649  -13.8081  -47.4520 C.2       4 UNK         0.5000 
     51 O           2.3927  -13.7666  -46.2219 O.2       4 UNK        -0.5000 
     52 CA          1.2730  -13.3513  -48.3084 C.3       4 UNK         0.1400 
     53 CB          0.1578  -14.4069  -48.3377 C.3       4 UNK        -0.1800 
     54 N           0.7321  -12.0994  -47.7878 N.am      4 UNK        -0.5000 
     55 C           1.1230  -10.8834  -48.1887 C.2       3 UNK         0.5000 
     56 O           1.9542  -10.6920  -49.0777 O.2       3 UNK        -0.5000 
     57 CA          0.4788   -9.6698  -47.4914 C.3       3 UNK         0.1400 
     58 CB         -0.7564   -9.1954  -48.2727 C.3       3 UNK        -0.1800 
     59 N           0.0916   -9.9309  -46.1052 N.am      3 UNK        -0.5000 
     60 C           0.9475  -10.0724  -45.0829 C.2       2 UNK         0.5000 
     61 O           2.1698   -9.9764  -45.1998 O.2       2 UNK        -0.5000 
     62 CA          0.3398  -10.3469  -43.6905 C.3       2 UNK         0.1400 
     63 CB          0.3642   -9.0715  -42.8333 C.3       2 UNK        -0.1800 
     64 N          -1.0341  -10.8594  -43.7354 N.am      2 UNK        -0.5000 
     65 C          -1.3641  -12.0855  -44.1613 C.2       1 UNK         0.5000 
     66 O          -0.5363  -12.9085  -44.5555 O.2       1 UNK        -0.5000 
     67 C          -2.8709  -23.3840  -45.8696 C.2       11 UNK         0.5000 
     68 O          -3.7987  -24.0851  -46.2700 O.2       11 UNK        -0.5000 
     69 N          -2.0518  -23.7531  -44.8739 N.am      12 UNK        -0.5000 
     70 CA         -2.1278  -25.0619  -44.2196 C.3       12 UNK         0.1400 
     71 CB         -1.2907  -25.0667  -42.9325 C.3       12 UNK        -0.1800 
     72 C          -1.7052  -26.2016  -45.1638 C.2       12 UNK         0.5000 
     73 O          -2.3942  -27.2197  -45.2312 O.2       12 UNK        -0.5000 
     74 N          -0.6094  -25.9903  -45.9060 N.am      13 UNK        -0.5000 
     75 CA         -0.0985  -26.9137  -46.9193 C.3       13 UNK         0.1400 
     76 CB          1.2990  -26.4554  -47.3637 C.3       13 UNK        -0.1800 
     77 C          -1.0387  -27.0488  -48.1317 C.2       13 UNK         0.5000 
     78 O          -1.2480  -28.1602  -48.6189 O.2       13 UNK        -0.5000 
     79 N          -1.5965  -25.9192  -48.5867 N.am      14 UNK        -0.5000 
     80 CA         -2.5088  -25.8427  -49.7289 C.3       14 UNK         0.1400 
     81 CB         -2.5203  -24.3986  -50.2441 C.3       14 UNK        -0.1800 
     82 C          -3.9502  -26.2909  -49.4195 C.2       14 UNK         0.5000 
     83 O          -4.7292  -26.4617  -50.3565 O.2       14 UNK        -0.5000 
     84 N          -4.2961  -26.4282  -48.1311 N.am      15 UNK        -0.5000 
     85 CA         -5.6411  -26.6849  -47.6014 C.3       15 UNK         0.1400 
     86 CB         -6.1492  -28.0820  -48.0150 C.3       15 UNK        -0.1800 
     87 C          -6.6206  -25.5428  -47.9518 C.2       15 UNK         0.5000 
     88 O          -7.7145  -25.7837  -48.4648 O.2       15 UNK        -0.5000 
     89 N          -6.1719  -24.3103  -47.6763 N.am      16 UNK        -0.5000 
     90 CA         -6.8442  -23.0194  -47.8629 C.3       16 UNK         0.1400 
     91 CB         -8.1464  -22.9493  -47.0391 C.3       16 UNK        -0.1800 
     92 C          -7.0553  -22.5941  -49.3320 C.2       16 UNK         0.5000 
     93 O          -7.7411  -21.5995  -49.5755 O.2       16 UNK        -0.5000 
     94 N          -6.4544  -23.3136  -50.2893 N.am      17 UNK        -0.5000 
     95 CA         -6.4665  -22.9700  -51.7090 C.3       17 UNK         0.1400 
     96 CB         -6.1823  -24.2309  -52.5419 C.3       17 UNK        -0.1800 
     97 C          -5.4430  -21.8565  -51.9894 C.2       17 UNK         0.5000 
     98 O          -4.2672  -22.1486  -52.2149 O.2       17 UNK        -0.5000 
     99 N          -5.9003  -20.5972  -51.9647 N.am      18 UNK        -0.5000 
    100 CA        -5.0825  -19.3951  -52.1685 C.3       18 UNK         0.1400 
    101 CB        -5.9679  -18.1463  -52.0516 C.3       18 UNK        -0.1800 
    102 C         -4.3048  -19.3874  -53.5001 C.2       18 UNK         0.5000 
    103 O         -3.1565  -18.9465  -53.5356 O.2       18 UNK        -0.5000 
    104 N         -4.9239  -19.9324  -54.5562 N.am      19 UNK        -0.5000 
    105 CA        -4.3284  -20.0964  -55.8838 C.3       19 UNK         0.1400 
    106 CB        -5.4133  -20.5782  -56.8591 C.3       19 UNK        -0.1800 
    107 C         -3.1169  -21.0510  -55.9116 C.2       19 UNK         0.5000 
    108 O         -2.2551  -20.8981  -56.7777 O.2       19 UNK        -0.5000 
    109 N         -3.0676  -22.0061  -54.9726 N.am      20 UNK        -0.5000 
    110 CA        -1.9347  -22.9060  -54.7752 C.3       20 UNK         0.1400 
    111 CB        -2.4403  -24.2839  -54.3218 C.3       20 UNK        -0.1800 
    112 C         -0.9401  -22.3141  -53.7635 C.2       20 UNK         0.5000 
    113 O          0.2622  -22.3252  -54.0286 O.2       20 UNK        -0.5000 
    114 N         -1.4533  -21.7774  -52.6456 N.am      21 UNK        -0.5000 
    115 CA        -0.6759  -21.1840  -51.5524 C.3       21 UNK         0.1400 
    116 CB        -1.6283  -20.7436  -50.4327 C.3       21 UNK        -0.1800 
    117 C          0.2181  -20.0081  -51.9920 C.2       21 UNK         0.5000 
    118 O          1.3821  -19.9550  -51.5944 O.2       21 UNK        -0.5000 
    119 N         -0.3282  -19.1199  -52.8310 N.am      22 UNK        -0.5000 
    120 CA         0.4000  -18.0178  -53.4834 C.3       22 UNK         0.1400 
    121 C          0.8500  -18.3652  -54.9351 C.2       22 UNK         0.5000 
    122 N          0.8328  -19.6226  -55.3618 N.am      22 UNK        -0.7600 
    123 O          1.2449  -17.4824  -55.6922 O.2       22 UNK        -0.5000 
    124 C124       -0.3883  -16.6815  -53.4140 C.3       23 UNK        -0.0398 
    125 S125       -0.5681  -16.0732  -51.7011 S.3       23 UNK        -0.2404 
    126 C126       -2.3663  -16.1959  -51.4739 C.3       23 UNK        -0.0205 
    127 H127       -3.3344  -16.4133  -44.0453 H         1 UNK         0.0600 
    128 H128       -3.9982  -16.3914  -42.4123 H         1 UNK         0.0600 
    129 H129       -2.2596  -16.5759  -42.6552 H         1 UNK         0.0600 
    130 H130       -3.1937  -14.3519  -44.9617 H         1 UNK         0.3000 
    131 H131       -3.3294  -11.9496  -43.3268 H         1 UNK         0.0600 
    132 H132       -3.4445  -10.7470  -45.4727 H         1 UNK         0.0800 
    133 H133       -4.6418  -11.9908  -45.3866 H         1 UNK         0.0800 
    134 H134       -4.9187  -13.1354  -48.2713 H         1 UNK         0.0800 
    135 H135       -4.9094  -13.8748  -46.6898 H         1 UNK         0.0800 
    136 H136       -3.4647  -14.0851  -50.1072 H         1 UNK         0.1150 
    137 H137       -2.0992  -18.1112  -49.5863 H         1 UNK         0.1150 
    138 H138       -3.8040  -15.9941  -46.2829 H         1 UNK         0.1150 
    139 H139       -1.7187  -18.8106  -47.1477 H         1 UNK         0.0800 
    140 H140       -2.7499  -18.1243  -45.9068 H         1 UNK         0.0800 
    141 H141       -4.4866  -21.3341  -45.6722 H         1 UNK         0.0800 
    142 H142       -3.0925  -20.4457  -45.1374 H         1 UNK         0.0800 
    143 H143       -2.8968  -22.2032  -47.6155 H         1 UNK         0.0600 
    144 H144       -0.9229  -20.9040  -45.9488 H         1 UNK         0.3000 
    145 H145        1.8366  -22.5852  -47.5860 H         1 UNK         0.0600 
    146 H146        2.4585  -20.1579  -47.6924 H         1 UNK         0.0600 
    147 H147        1.2410  -20.5782  -48.8843 H         1 UNK         0.0600 
    148 H148        0.7741  -19.7163  -47.4248 H         1 UNK         0.0600 
    149 H149        1.9551  -20.8391  -45.4070 H         1 UNK         0.3000 
    150 H150        1.8187  -23.2552  -42.7656 H         1 UNK         0.0600 
    151 H151        4.0996  -23.3513  -43.7300 H         1 UNK         0.0600 
    152 H152        4.0449  -22.2148  -42.3911 H         1 UNK         0.0600 
    153 H153        4.0725  -21.6226  -44.0509 H         1 UNK         0.0600 
    154 H154        2.1053  -20.3431  -43.2270 H         1 UNK         0.3000 
    155 H155       -1.1432  -19.6143  -42.0404 H         1 UNK         0.0600 
    156 H156        1.4870  -19.1476  -40.5348 H         1 UNK         0.0600 
    157 H157        0.0509  -19.9107  -39.8628 H         1 UNK         0.0600 
    158 H158       -0.0019  -18.2211  -40.3388 H         1 UNK         0.0600 
    159 H159        1.0285  -17.8941  -42.6375 H         1 UNK         0.3000 
    160 H160        0.5916  -17.7534  -46.1802 H         1 UNK         0.0600 
    161 H161       -0.1345  -15.8689  -43.8782 H         1 UNK         0.0600 
    162 H162       -1.1384  -16.2746  -45.2691 H         1 UNK         0.0600 
    163 H163        0.3350  -15.3481  -45.4829 H         1 UNK         0.0600 
    164 H164        2.3614  -16.2274  -44.8436 H         1 UNK         0.3000 
    165 H165        4.6893  -17.2710  -43.7485 H         1 UNK         0.0600 
    166 H166        5.4573  -18.9678  -46.1820 H         1 UNK         0.0600 
    167 H167        6.5995  -18.1803  -45.0936 H         1 UNK         0.0600 
    168 H168        5.5517  -19.4555  -44.4957 H         1 UNK         0.0600 
    169 H169        5.0109  -15.5116  -45.0528 H         1 UNK         0.3000 
    170 H170        5.0291  -14.0858  -46.6595 H         1 UNK         0.0600 
    171 H171        5.6729  -15.4253  -49.3413 H         1 UNK         0.0600 
    172 H172        6.1113  -13.7843  -48.8662 H         1 UNK         0.0600 
    173 H173        6.8161  -15.1598  -48.0307 H         1 UNK         0.0600 
    174 H174        3.5216  -14.2851  -49.1223 H         1 UNK         0.3000 
    175 H175        1.6159  -13.2091  -49.3356 H         1 UNK         0.0600 
    176 H176       -0.3809  -14.4608  -47.3929 H         1 UNK         0.0600 
    177 H177       -0.5721  -14.1678  -49.1103 H         1 UNK         0.0600 
    178 H178        0.5495  -15.4007  -48.5590 H         1 UNK         0.0600 
    179 H179        0.1051  -12.1786  -46.9987 H         1 UNK         0.3000 
    180 H180        1.2125   -8.8608  -47.4936 H         1 UNK         0.0600 
    181 H181       -1.1804   -8.2929  -47.8321 H         1 UNK         0.0600 
    182 H182       -1.5362   -9.9576  -48.2953 H         1 UNK         0.0600 
    183 H183       -0.4980   -8.9607  -49.3061 H         1 UNK         0.0600 
    184 H184       -0.8955  -10.0187  -45.9186 H         1 UNK         0.3000 
    185 H185        0.9686  -11.0961  -43.2044 H         1 UNK         0.0600 
    186 H186        0.0083   -9.2684  -41.8218 H         1 UNK         0.0600 
    187 H187        1.3776   -8.6769  -42.7478 H         1 UNK         0.0600 
    188 H188       -0.2584   -8.2858  -43.2630 H         1 UNK         0.0600 
    189 H189       -1.7584  -10.2287  -43.4224 H         1 UNK         0.3000 
    190 H190       -1.2923  -23.1450  -44.6039 H         1 UNK         0.3000 
    191 H191       -3.1678  -25.2389  -43.9364 H         1 UNK         0.0600 
    192 H192       -1.3316  -26.0412  -42.4445 H         1 UNK         0.0600 
    193 H193       -1.6664  -24.3333  -42.2193 H         1 UNK         0.0600 
    194 H194       -0.2423  -24.8413  -43.1252 H         1 UNK         0.0600 
    195 H195       -0.0717  -25.1406  -45.7552 H         1 UNK         0.3000 
    196 H196       -0.0031  -27.8996  -46.4597 H         1 UNK         0.0600 
    197 H197        1.2751  -25.4559  -47.8000 H         1 UNK         0.0600 
    198 H198        1.9918  -26.4341  -46.5222 H         1 UNK         0.0600 
    199 H199        1.7142  -27.1323  -48.1113 H         1 UNK         0.0600 
    200 H200       -1.3144  -25.0339  -48.1747 H         1 UNK         0.3000 
    201 H201       -2.1280  -26.4856  -50.5251 H         1 UNK         0.0600 
    202 H202       -3.1502  -24.3033  -51.1259 H         1 UNK         0.0600 
    203 H203       -2.9114  -23.7146  -49.4915 H         1 UNK         0.0600 
    204 H204       -1.5202  -24.0662  -50.5222 H         1 UNK         0.0600 
    205 H205       -3.5888  -26.2271  -47.4368 H         1 UNK         0.3000 
    206 H206       -5.5441  -26.6816  -46.5146 H         1 UNK         0.0600 
    207 H207       -5.4341  -28.8573  -47.7402 H         1 UNK         0.0600 
    208 H208       -7.0899  -28.3157  -47.5154 H         1 UNK         0.0600 
    209 H209       -6.3255  -28.1532  -49.0885 H         1 UNK         0.0600 
    210 H210       -5.2540  -24.2494  -47.2348 H         1 UNK         0.3000 
    211 H211       -6.1611  -22.2782  -47.4462 H         1 UNK         0.0600 
    212 H212       -8.5572  -21.9391  -47.0400 H         1 UNK         0.0600 
    213 H213       -7.9703  -23.2240  -45.9991 H         1 UNK         0.0600 
    214 H214       -8.9147  -23.6123  -47.4373 H         1 UNK         0.0600 
    215 H215       -5.9099  -24.1211  -50.0221 H         1 UNK         0.3000 
    216 H216       -7.4598  -22.6105  -51.9862 H         1 UNK         0.0600 
    217 H217       -5.2113  -24.6657  -52.3073 H         1 UNK         0.0600 
    218 H218       -6.1889  -24.0037  -53.6086 H         1 UNK         0.0600 
    219 H219       -6.9382  -24.9964  -52.3661 H         1 UNK         0.0600 
    220 H220       -6.8686  -20.4453  -51.7174 H         1 UNK         0.3000 
    221 H221       -4.3558  -19.3571  -51.3577 H         1 UNK         0.0600 
    222 H222       -6.4410  -18.0901  -51.0709 H         1 UNK         0.0600 
    223 H223       -6.7546  -18.1370  -52.8068 H         1 UNK         0.0600 
    224 H224       -5.3793  -17.2364  -52.1774 H         1 UNK         0.0600 
    225 H225       -5.8635  -20.2796  -54.4335 H         1 UNK         0.3000 
    226 H226       -3.9790  -19.1165  -56.2157 H         1 UNK         0.0600 
    227 H227       -5.8191  -21.5463  -56.5627 H         1 UNK         0.0600 
    228 H228       -6.2393  -19.8688  -56.9134 H         1 UNK         0.0600 
    229 H229       -5.0123  -20.6853  -57.8679 H         1 UNK         0.0600 
    230 H230       -3.7875  -22.0300  -54.2614 H         1 UNK         0.3000 
    231 H231       -1.4041  -23.0475  -55.7193 H         1 UNK         0.0600 
    232 H232       -3.0298  -24.2199  -53.4093 H         1 UNK         0.0600 
    233 H233       -1.6088  -24.9631  -54.1301 H         1 UNK         0.0600 
    234 H234       -3.0658  -24.7422  -55.0878 H         1 UNK         0.0600 
    235 H235       -2.4587  -21.8315  -52.5024 H         1 UNK         0.3000 
    236 H236       -0.0246  -21.9647  -51.1541 H         1 UNK         0.0600 
    237 H237       -2.2144  -21.5766  -50.0506 H         1 UNK         0.0600 
    238 H238       -1.0825  -20.3183  -49.5906 H         1 UNK         0.0600 
    239 H239       -2.3235  -19.9884  -50.7900 H         1 UNK         0.0600 
    240 H240       -1.3000  -19.2294  -53.1087 H         1 UNK         0.3000 
    241 H241        1.3371  -17.8489  -52.9503 H         1 UNK         0.0600 
    242 H242        1.1254  -19.8248  -56.3044 H         1 UNK         0.3800 
    243 H243        0.5669  -20.3828  -54.7490 H         1 UNK         0.3800 
    244 H244       -1.3656  -16.7889  -53.8870 H         1 UNK         0.0800 
    245 H245        0.1295  -15.8969  -53.9678 H         1 UNK         0.0800 
    246 H246       -2.7157  -17.1484  -51.8651 H         1 UNK         0.0800 
    247 H247       -2.8628  -15.4172  -52.0545 H         1 UNK         0.0800 
@<TRIPOS>BOND
     1    1    2 1    
     2    1  127 1    
     3    1  128 1    
     4    1  129 1    
     5    2    3 2    
     6    2    4 am   BACKBONE|DICT|INTERRES
     7    4    5 1    
     8    4  130 1    
     9    5    6 1    
    10    5   65 1    
    11    5  131 1    
    12    6    7 1    
    13    6  132 1    
    14    6  133 1    
    15    7    8 1    
    16    8    9 1    
    17    8  134 1    
    18    8  135 1    
    19    9   10 ar   
    20    9   14 ar   
    21   10   11 ar   
    22   10  136 1    
    23   11   12 ar   
    24   11  126 1    
    25   12   13 ar   
    26   12  137 1    
    27   13   14 ar   
    28   13   15 1    
    29   14  138 1    
    30   15   16 1    
    31   15  139 1    
    32   15  140 1    
    33   16   17 1    
    34   17   18 1    
    35   17  141 1    
    36   17  142 1    
    37   18   19 1    
    38   18   67 1    
    39   18  143 1    
    40   19   20 am   BACKBONE|DICT|INTERRES
    41   19  144 1    
    42   20   21 2    
    43   20   22 1    
    44   22   23 1    
    45   22   24 1    
    46   22  145 1    
    47   23  146 1    
    48   23  147 1    
    49   23  148 1    
    50   24   25 am   BACKBONE|DICT|INTERRES
    51   24  149 1    
    52   25   26 2    
    53   25   27 1    
    54   27   28 1    
    55   27   29 1    
    56   27  150 1    
    57   28  151 1    
    58   28  152 1    
    59   28  153 1    
    60   29   30 am   BACKBONE|DICT|INTERRES
    61   29  154 1    
    62   30   31 2    
    63   30   32 1    
    64   32   33 1    
    65   32   34 1    
    66   32  155 1    
    67   33  156 1    
    68   33  157 1    
    69   33  158 1    
    70   34   35 am   BACKBONE|DICT|INTERRES
    71   34  159 1    
    72   35   36 2    
    73   35   37 1    
    74   37   38 1    
    75   37   39 1    
    76   37  160 1    
    77   38  161 1    
    78   38  162 1    
    79   38  163 1    
    80   39   40 am   BACKBONE|DICT|INTERRES
    81   39  164 1    
    82   40   41 2    
    83   40   42 1    
    84   42   43 1    
    85   42   44 1    
    86   42  165 1    
    87   43  166 1    
    88   43  167 1    
    89   43  168 1    
    90   44   45 am   BACKBONE|DICT|INTERRES
    91   44  169 1    
    92   45   46 2    
    93   45   47 1    
    94   47   48 1    
    95   47   49 1    
    96   47  170 1    
    97   48  171 1    
    98   48  172 1    
    99   48  173 1    
   100   49   50 am   BACKBONE|DICT|INTERRES
   101   49  174 1    
   102   50   51 2    
   103   50   52 1    
   104   52   53 1    
   105   52   54 1    
   106   52  175 1    
   107   53  176 1    
   108   53  177 1    
   109   53  178 1    
   110   54   55 am   BACKBONE|DICT|INTERRES
   111   54  179 1    
   112   55   56 2    
   113   55   57 1    
   114   57   58 1    
   115   57   59 1    
   116   57  180 1    
   117   58  181 1    
   118   58  182 1    
   119   58  183 1    
   120   59   60 am   BACKBONE|DICT|INTERRES
   121   59  184 1    
   122   60   61 2    
   123   60   62 1    
   124   62   63 1    
   125   62   64 1    
   126   62  185 1    
   127   63  186 1    
   128   63  187 1    
   129   63  188 1    
   130   64   65 am   BACKBONE|DICT|INTERRES
   131   64  189 1    
   132   65   66 2    
   133   67   68 2    
   134   67   69 am   BACKBONE|DICT|INTERRES
   135   69   70 1    
   136   69  190 1    
   137   70   71 1    
   138   70   72 1    
   139   70  191 1    
   140   71  192 1    
   141   71  193 1    
   142   71  194 1    
   143   72   73 2    
   144   72   74 am   BACKBONE|DICT|INTERRES
   145   74   75 1    
   146   74  195 1    
   147   75   76 1    
   148   75   77 1    
   149   75  196 1    
   150   76  197 1    
   151   76  198 1    
   152   76  199 1    
   153   77   78 2    
   154   77   79 am   BACKBONE|DICT|INTERRES
   155   79   80 1    
   156   79  200 1    
   157   80   81 1    
   158   80   82 1    
   159   80  201 1    
   160   81  202 1    
   161   81  203 1    
   162   81  204 1    
   163   82   83 2    
   164   82   84 am   BACKBONE|DICT|INTERRES
   165   84   85 1    
   166   84  205 1    
   167   85   86 1    
   168   85   87 1    
   169   85  206 1    
   170   86  207 1    
   171   86  208 1    
   172   86  209 1    
   173   87   88 2    
   174   87   89 am   BACKBONE|DICT|INTERRES
   175   89   90 1    
   176   89  210 1    
   177   90   91 1    
   178   90   92 1    
   179   90  211 1    
   180   91  212 1    
   181   91  213 1    
   182   91  214 1    
   183   92   93 2    
   184   92   94 am   BACKBONE|DICT|INTERRES
   185   94   95 1    
   186   94  215 1    
   187   95   96 1    
   188   95   97 1    
   189   95  216 1    
   190   96  217 1    
   191   96  218 1    
   192   96  219 1    
   193   97   98 2    
   194   97   99 am   BACKBONE|DICT|INTERRES
   195   99  100 1    
   196   99  220 1    
   197  100  101 1    
   198  100  102 1    
   199  100  221 1    
   200  101  222 1    
   201  101  223 1    
   202  101  224 1    
   203  102  103 2    
   204  102  104 am   BACKBONE|DICT|INTERRES
   205  104  105 1    
   206  104  225 1    
   207  105  106 1    
   208  105  107 1    
   209  105  226 1    
   210  106  227 1    
   211  106  228 1    
   212  106  229 1    
   213  107  108 2    
   214  107  109 am   BACKBONE|DICT|INTERRES
   215  109  110 1    
   216  109  230 1    
   217  110  111 1    
   218  110  112 1    
   219  110  231 1    
   220  111  232 1    
   221  111  233 1    
   222  111  234 1    
   223  112  113 2    
   224  112  114 am   BACKBONE|DICT|INTERRES
   225  114  115 1    
   226  114  235 1    
   227  115  116 1    
   228  115  117 1    
   229  115  236 1    
   230  116  237 1    
   231  116  238 1    
   232  116  239 1    
   233  117  118 2    
   234  117  119 am   BACKBONE|DICT|INTERRES
   235  119  120 1    
   236  119  240 1    
   237  120  121 1    
   238  120  124 1    
   239  120  241 1    
   240  121  122 am   BACKBONE|DICT|INTERRES
   241  121  123 2    
   242  122  242 1    
   243  122  243 1    
   244  124  125 1    
   245  124  244 1    
   246  124  245 1    
   247  125  126 1    
   248  126  246 1    
   249  126  247 1    
@<TRIPOS>SUBSTRUCTURE
     1 UNK         1 GROUP             0       ****    0 ROOT    
