@<TRIPOS>MOLECULE
3R540
247   249    1
SMALL
USER_CHARGES


@<TRIPOS>ATOM
      1 CA          4.0571  -10.7721  -46.9041 C.3       0 UNK        -0.1800 
      2 C           2.9155  -10.5969  -47.8954 C.2       0 UNK         0.5000 
      3 O           2.5163   -9.4678  -48.1801 O.2       0 UNK        -0.5000 
      4 N           2.4052  -11.7104  -48.4300 N.am      1 UNK        -0.5000 
      5 CA          1.2711  -11.7629  -49.3522 C.3       1 UNK         0.1400 
      6 C6          0.3896  -13.0111  -49.0859 C.3       23 UNK        -0.0398 
      7 S7         -0.4418  -12.9474  -47.4617 S.3       23 UNK        -0.2404 
      8 C8         -0.1726  -14.6360  -46.8274 C.3       23 UNK        -0.0205 
      9 C9         -0.7040  -15.7406  -47.7351 C.ar      23 UNK        -0.0193 
     10 C10        -1.9631  -15.6432  -48.3360 C.ar      23 UNK        -0.1150 
     11 C11        -2.4248  -16.6516  -49.1855 C.ar      23 UNK        -0.0193 
     12 C12        -1.6423  -17.7900  -49.3883 C.ar      23 UNK        -0.1150 
     13 C13        -0.3886  -17.9148  -48.7857 C.ar      23 UNK        -0.0193 
     14 C14         0.0759  -16.8775  -47.9660 C.ar      23 UNK        -0.1150 
     15 C15         0.4366  -19.1694  -49.0738 C.3       23 UNK        -0.0205 
     16 S16         1.6431  -19.6361  -47.7831 S.3       23 UNK        -0.2404 
     17 C17         0.5696  -19.8418  -46.3232 C.3       23 UNK        -0.0398 
     18 CA          0.1011  -21.3012  -46.1122 C.3       11 UNK         0.1400 
     19 N          -0.1854  -21.5918  -44.7062 N.am      11 UNK        -0.5000 
     20 C          -0.3280  -22.8251  -44.2000 C.2       10 UNK         0.5000 
     21 O          -0.1386  -23.8523  -44.8505 O.2       10 UNK        -0.5000 
     22 CA         -0.8149  -22.9304  -42.7417 C.3       10 UNK         0.1400 
     23 CB          0.3666  -23.0509  -41.7686 C.3       10 UNK        -0.1800 
     24 N          -1.6621  -21.8002  -42.3548 N.am      10 UNK        -0.5000 
     25 C          -2.9169  -21.6282  -42.7962 C.2       9 UNK         0.5000 
     26 O          -3.4940  -22.4334  -43.5257 O.2       9 UNK        -0.5000 
     27 CA         -3.6263  -20.3149  -42.4135 C.3       9 UNK         0.1400 
     28 CB         -4.3515  -20.4660  -41.0686 C.3       9 UNK        -0.1800 
     29 N          -2.7225  -19.1650  -42.3488 N.am      9 UNK        -0.5000 
     30 C          -1.9875  -18.7023  -43.3693 C.2       8 UNK         0.5000 
     31 O          -2.0269  -19.1816  -44.5016 O.2       8 UNK        -0.5000 
     32 CA         -1.0079  -17.5499  -43.0715 C.3       8 UNK         0.1400 
     33 CB         -1.4574  -16.6666  -41.8883 C.3       8 UNK        -0.1800 
     34 N           0.3704  -18.0139  -42.8648 N.am      8 UNK        -0.5000 
     35 C           0.8014  -18.9490  -42.0011 C.2       7 UNK         0.5000 
     36 O           0.0608  -19.6352  -41.2963 O.2       7 UNK        -0.5000 
     37 CA          2.3235  -19.1312  -41.8805 C.3       7 UNK         0.1400 
     38 CB          2.8894  -19.9683  -43.0382 C.3       7 UNK        -0.1800 
     39 N           3.0062  -17.8397  -41.8318 N.am      7 UNK        -0.5000 
     40 C           3.1972  -17.1227  -40.7145 C.2       6 UNK         0.5000 
     41 O           2.8766  -17.5083  -39.5899 O.2       6 UNK        -0.5000 
     42 CA          3.8575  -15.7386  -40.8784 C.3       6 UNK         0.1400 
     43 CB          5.3832  -15.8504  -40.7373 C.3       6 UNK        -0.1800 
     44 N           3.5412  -15.1196  -42.1658 N.am      6 UNK        -0.5000 
     45 C           2.3448  -14.6080  -42.4880 C.2       5 UNK         0.5000 
     46 O           1.4240  -14.4744  -41.6834 O.2       5 UNK        -0.5000 
     47 CA          2.1272  -14.2060  -43.9598 C.3       5 UNK         0.1400 
     48 CB          2.1913  -12.6816  -44.1353 C.3       5 UNK        -0.1800 
     49 N           3.0814  -14.8292  -44.8803 N.am      5 UNK        -0.5000 
     50 C           3.1151  -16.1277  -45.2021 C.2       4 UNK         0.5000 
     51 O           2.3094  -16.9536  -44.7670 O.2       4 UNK        -0.5000 
     52 CA          4.2815  -16.5699  -46.1119 C.3       4 UNK         0.1400 
     53 CB          4.7340  -18.0044  -45.7907 C.3       4 UNK        -0.1800 
     54 N           4.0294  -16.4694  -47.5525 N.am      4 UNK        -0.5000 
     55 C           3.6698  -15.3739  -48.2344 C.2       3 UNK         0.5000 
     56 O           3.3398  -14.3088  -47.7071 O.2       3 UNK        -0.5000 
     57 CA          3.7252  -15.4842  -49.7761 C.3       3 UNK         0.1400 
     58 CB          2.6098  -16.3864  -50.3224 C.3       3 UNK        -0.1800 
     59 N           3.6416  -14.1808  -50.4406 N.am      3 UNK        -0.5000 
     60 C           4.5385  -13.1940  -50.3088 C.2       2 UNK         0.5000 
     61 O           5.6128  -13.3243  -49.7204 O.2       2 UNK        -0.5000 
     62 CA          4.1828  -11.8230  -50.9149 C.3       2 UNK         0.1400 
     63 CB          5.1497  -11.4977  -52.0656 C.3       2 UNK        -0.1800 
     64 N           2.8151  -11.6990  -51.4329 N.am      2 UNK        -0.5000 
     65 C           1.5913  -11.6419  -50.8704 C.2       1 UNK         0.5000 
     66 O           0.6259  -11.4847  -51.6159 O.2       1 UNK        -0.5000 
     67 C          -1.1254  -21.6317  -46.9840 C.2       11 UNK         0.5000 
     68 O          -0.9831  -22.3016  -48.0045 O.2       11 UNK        -0.5000 
     69 N          -2.3159  -21.2016  -46.5414 N.am      12 UNK        -0.5000 
     70 CA         -3.5969  -21.4908  -47.1882 C.3       12 UNK         0.1400 
     71 CB         -4.7145  -20.7032  -46.4914 C.3       12 UNK        -0.1800 
     72 C          -3.9279  -22.9953  -47.2348 C.2       12 UNK         0.5000 
     73 O          -4.4702  -23.4653  -48.2370 O.2       12 UNK        -0.5000 
     74 N          -3.5587  -23.7193  -46.1674 N.am      13 UNK        -0.5000 
     75 CA         -3.6280  -25.1765  -46.0737 C.3       13 UNK         0.1400 
     76 CB         -3.3292  -25.6238  -44.6355 C.3       13 UNK        -0.1800 
     77 C          -2.6850  -25.8762  -47.0704 C.2       13 UNK         0.5000 
     78 O          -3.0975  -26.8368  -47.7195 O.2       13 UNK        -0.5000 
     79 N          -1.4484  -25.3727  -47.1942 N.am      14 UNK        -0.5000 
     80 CA         -0.4486  -25.8644  -48.1450 C.3       14 UNK         0.1400 
     81 CB          0.9249  -25.2670  -47.8040 C.3       14 UNK        -0.1800 
     82 C          -0.8243  -25.5746  -49.6108 C.2       14 UNK         0.5000 
     83 O          -0.5909  -26.4187  -50.4776 O.2       14 UNK        -0.5000 
     84 N          -1.4263  -24.4043  -49.8612 N.am      15 UNK        -0.5000 
     85 CA         -1.9228  -23.9442  -51.1581 C.3       15 UNK         0.1400 
     86 CB         -2.0632  -22.4135  -51.1191 C.3       15 UNK        -0.1800 
     87 C          -3.2320  -24.6560  -51.5618 C.2       15 UNK         0.5000 
     88 O          -4.2919  -24.0267  -51.6451 O.2       15 UNK        -0.5000 
     89 N          -3.1201  -25.9738  -51.7814 N.am      16 UNK        -0.5000 
     90 CA         -4.1464  -26.9215  -52.2365 C.3       16 UNK         0.1400 
     91 CB         -4.6012  -26.5666  -53.6667 C.3       16 UNK        -0.1800 
     92 C          -5.3462  -27.0787  -51.2778 C.2       16 UNK         0.5000 
     93 O          -6.3907  -27.5823  -51.6936 O.2       16 UNK        -0.5000 
     94 N          -5.1867  -26.6259  -50.0251 N.am      17 UNK        -0.5000 
     95 CA         -6.2122  -26.5010  -48.9836 C.3       17 UNK         0.1400 
     96 CB         -6.6762  -27.8890  -48.4974 C.3       17 UNK        -0.1800 
     97 C          -7.3808  -25.5742  -49.3824 C.2       17 UNK         0.5000 
     98 O          -8.4894  -25.7266  -48.8661 O.2       17 UNK        -0.5000 
     99 N          -7.1128  -24.6395  -50.3024 N.am      18 UNK        -0.5000 
    100 CA        -8.1061  -23.7722  -50.9312 C.3       18 UNK         0.1400 
    101 CB        -8.4220  -24.3365  -52.3283 C.3       18 UNK        -0.1800 
    102 C         -7.6342  -22.3119  -51.0201 C.2       18 UNK         0.5000 
    103 O         -8.3509  -21.4960  -51.6012 O.2       18 UNK        -0.5000 
    104 N         -6.4441  -22.0055  -50.4751 N.am      19 UNK        -0.5000 
    105 CA        -5.7412  -20.7226  -50.5908 C.3       19 UNK         0.1400 
    106 CB        -6.5008  -19.6038  -49.8467 C.3       19 UNK        -0.1800 
    107 C         -5.4302  -20.3695  -52.0608 C.2       19 UNK         0.5000 
    108 O         -5.6030  -19.2222  -52.4769 O.2       19 UNK        -0.5000 
    109 N         -4.9850  -21.3766  -52.8275 N.am      20 UNK        -0.5000 
    110 CA        -4.7972  -21.3362  -54.2827 C.3       20 UNK         0.1400 
    111 CB        -4.3857  -22.7341  -54.7671 C.3       20 UNK        -0.1800 
    112 C         -3.8082  -20.2723  -54.8017 C.2       20 UNK         0.5000 
    113 O         -3.8912  -19.8971  -55.9716 O.2       20 UNK        -0.5000 
    114 N         -2.9083  -19.7909  -53.9332 N.am      21 UNK        -0.5000 
    115 CA        -2.0001  -18.6780  -54.2168 C.3       21 UNK         0.1400 
    116 CB        -0.8852  -18.6569  -53.1601 C.3       21 UNK        -0.1800 
    117 C         -2.7184  -17.3126  -54.2787 C.2       21 UNK         0.5000 
    118 O         -2.2172  -16.4053  -54.9443 O.2       21 UNK        -0.5000 
    119 N         -3.8677  -17.1943  -53.6006 N.am      22 UNK        -0.5000 
    120 CA        -4.7376  -16.0076  -53.6050 C.3       22 UNK         0.1400 
    121 C         -6.0116  -16.2308  -54.4624 C.2       22 UNK         0.5000 
    122 N         -6.6031  -17.4195  -54.4563 N.am      22 UNK        -0.7600 
    123 O         -6.4659  -15.3172  -55.1456 O.2       22 UNK        -0.5000 
    124 C124       -5.1357  -15.5681  -52.1729 C.3       23 UNK        -0.0398 
    125 S125       -3.6860  -15.1687  -51.1401 S.3       23 UNK        -0.2404 
    126 C126       -3.7553  -16.5038  -49.9047 C.3       23 UNK        -0.0205 
    127 H127        3.7751  -10.3688  -45.9316 H         1 UNK         0.0600 
    128 H128        4.3212  -11.8220  -46.7733 H         1 UNK         0.0600 
    129 H129        4.9426  -10.2410  -47.2530 H         1 UNK         0.0600 
    130 H130        2.7722  -12.6161  -48.1411 H         1 UNK         0.3000 
    131 H131        0.6391  -10.8972  -49.1419 H         1 UNK         0.0600 
    132 H132       -0.4012  -13.1118  -49.8320 H         1 UNK         0.0800 
    133 H133        0.9883  -13.9180  -49.1577 H         1 UNK         0.0800 
    134 H134        0.8961  -14.7646  -46.6636 H         1 UNK         0.0800 
    135 H135       -0.6540  -14.7271  -45.8536 H         1 UNK         0.0800 
    136 H136       -2.5738  -14.7670  -48.1707 H         1 UNK         0.1150 
    137 H137       -2.0069  -18.5805  -50.0276 H         1 UNK         0.1150 
    138 H138        1.0482  -16.9514  -47.5012 H         1 UNK         0.1150 
    139 H139       -0.2279  -20.0163  -49.2451 H         1 UNK         0.0800 
    140 H140        0.9716  -19.0209  -50.0118 H         1 UNK         0.0800 
    141 H141       -0.2692  -19.1475  -46.3654 H         1 UNK         0.0800 
    142 H142        1.1591  -19.5150  -45.4689 H         1 UNK         0.0800 
    143 H143        0.9123  -21.9672  -46.4151 H         1 UNK         0.0600 
    144 H144       -0.4457  -20.8039  -44.1309 H         1 UNK         0.3000 
    145 H145       -1.4053  -23.8450  -42.6585 H         1 UNK         0.0600 
    146 H146        0.0185  -23.2228  -40.7500 H         1 UNK         0.0600 
    147 H147        1.0104  -23.8893  -42.0375 H         1 UNK         0.0600 
    148 H148        0.9824  -22.1533  -41.7609 H         1 UNK         0.0600 
    149 H149       -1.2312  -21.0730  -41.7907 H         1 UNK         0.3000 
    150 H150       -4.3724  -20.1058  -43.1823 H         1 UNK         0.0600 
    151 H151       -5.0493  -21.3042  -41.0935 H         1 UNK         0.0600 
    152 H152       -4.9275  -19.5723  -40.8281 H         1 UNK         0.0600 
    153 H153       -3.6513  -20.6453  -40.2517 H         1 UNK         0.0600 
    154 H154       -2.5915  -18.7447  -41.4402 H         1 UNK         0.3000 
    155 H155       -0.9932  -16.9237  -43.9651 H         1 UNK         0.0600 
    156 H156       -2.4918  -16.3416  -42.0083 H         1 UNK         0.0600 
    157 H157       -0.8491  -15.7660  -41.8253 H         1 UNK         0.0600 
    158 H158       -1.3773  -17.1821  -40.9308 H         1 UNK         0.0600 
    159 H159        1.0656  -17.5647  -43.4554 H         1 UNK         0.3000 
    160 H160        2.5160  -19.6788  -40.9552 H         1 UNK         0.0600 
    161 H161        3.9321  -20.2280  -42.8558 H         1 UNK         0.0600 
    162 H162        2.8473  -19.4329  -43.9838 H         1 UNK         0.0600 
    163 H163        2.3413  -20.9013  -43.1660 H         1 UNK         0.0600 
    164 H164        3.2507  -17.4278  -42.7205 H         1 UNK         0.3000 
    165 H165        3.4859  -15.0930  -40.0796 H         1 UNK         0.0600 
    166 H166        5.8573  -14.8702  -40.7925 H         1 UNK         0.0600 
    167 H167        5.6547  -16.2876  -39.7755 H         1 UNK         0.0600 
    168 H168        5.8163  -16.4782  -41.5171 H         1 UNK         0.0600 
    169 H169        4.2550  -15.1538  -42.8778 H         1 UNK         0.3000 
    170 H170        1.1239  -14.5388  -44.2287 H         1 UNK         0.0600 
    171 H171        1.4769  -12.1813  -43.4803 H         1 UNK         0.0600 
    172 H172        3.1823  -12.2903  -43.9029 H         1 UNK         0.0600 
    173 H173        1.9468  -12.3950  -45.1587 H         1 UNK         0.0600 
    174 H174        3.7294  -14.2078  -45.3443 H         1 UNK         0.3000 
    175 H175        5.1258  -15.9132  -45.8928 H         1 UNK         0.0600 
    176 H176        5.6455  -18.2614  -46.3306 H         1 UNK         0.0600 
    177 H177        4.9466  -18.1216  -44.7273 H         1 UNK         0.0600 
    178 H178        3.9714  -18.7365  -46.0569 H         1 UNK         0.0600 
    179 H179        4.2376  -17.3047  -48.0796 H         1 UNK         0.3000 
    180 H180        4.6871  -15.9294  -50.0386 H         1 UNK         0.0600 
    181 H181        2.6505  -17.3748  -49.8660 H         1 UNK         0.0600 
    182 H182        2.7098  -16.5275  -51.3987 H         1 UNK         0.0600 
    183 H183        1.6199  -15.9727  -50.1333 H         1 UNK         0.0600 
    184 H184        2.8043  -13.9943  -50.9705 H         1 UNK         0.3000 
    185 H185        4.3433  -11.0627  -50.1536 H         1 UNK         0.0600 
    186 H186        4.9676  -10.4998  -52.4653 H         1 UNK         0.0600 
    187 H187        6.1870  -11.5222  -51.7285 H         1 UNK         0.0600 
    188 H188        5.0551  -12.2109  -52.8855 H         1 UNK         0.0600 
    189 H189        2.8038  -11.6156  -52.4384 H         1 UNK         0.3000 
    190 H190       -2.3403  -20.6062  -45.7177 H         1 UNK         0.3000 
    191 H191       -3.5226  -21.1377  -48.2167 H         1 UNK         0.0600 
    192 H192       -4.8023  -20.9752  -45.4400 H         1 UNK         0.0600 
    193 H193       -5.6798  -20.8993  -46.9584 H         1 UNK         0.0600 
    194 H194       -4.5342  -19.6294  -46.5471 H         1 UNK         0.0600 
    195 H195       -3.2124  -23.2289  -45.3496 H         1 UNK         0.3000 
    196 H196       -4.6515  -25.4741  -46.2995 H         1 UNK         0.0600 
    197 H197       -2.3150  -25.3660  -44.3334 H         1 UNK         0.0600 
    198 H198       -3.4344  -26.7048  -44.5354 H         1 UNK         0.0600 
    199 H199       -4.0183  -25.1639  -43.9269 H         1 UNK         0.0600 
    200 H200       -1.1682  -24.6018  -46.5996 H         1 UNK         0.3000 
    201 H201       -0.3814  -26.9483  -48.0304 H         1 UNK         0.0600 
    202 H202        0.9264  -24.1801  -47.8870 H         1 UNK         0.0600 
    203 H203        1.6940  -25.6481  -48.4768 H         1 UNK         0.0600 
    204 H204        1.2249  -25.5242  -46.7880 H         1 UNK         0.0600 
    205 H205       -1.5139  -23.7443  -49.0925 H         1 UNK         0.3000 
    206 H206       -1.1764  -24.1843  -51.9181 H         1 UNK         0.0600 
    207 H207       -1.1143  -21.9378  -50.8707 H         1 UNK         0.0600 
    208 H208       -2.3718  -22.0279  -52.0895 H         1 UNK         0.0600 
    209 H209       -2.7966  -22.0987  -50.3779 H         1 UNK         0.0600 
    210 H210       -2.2078  -26.3811  -51.5945 H         1 UNK         0.3000 
    211 H211       -3.6595  -27.8968  -52.2744 H         1 UNK         0.0600 
    212 H212       -5.2067  -25.6607  -53.6798 H         1 UNK         0.0600 
    213 H213       -5.2055  -27.3665  -54.0959 H         1 UNK         0.0600 
    214 H214       -3.7496  -26.4136  -54.3296 H         1 UNK         0.0600 
    215 H215       -4.2790  -26.2577  -49.7742 H         1 UNK         0.3000 
    216 H216       -5.7284  -26.0047  -48.1465 H         1 UNK         0.0600 
    217 H217       -5.8261  -28.5060  -48.2060 H         1 UNK         0.0600 
    218 H218       -7.3254  -27.8023  -47.6255 H         1 UNK         0.0600 
    219 H219       -7.2325  -28.4237  -49.2675 H         1 UNK         0.0600 
    220 H220       -6.1718  -24.5887  -50.6775 H         1 UNK         0.3000 
    221 H221       -9.0266  -23.7595  -50.3445 H         1 UNK         0.0600 
    222 H222       -7.5381  -24.3354  -52.9678 H         1 UNK         0.0600 
    223 H223       -8.7864  -25.3621  -52.2655 H         1 UNK         0.0600 
    224 H224       -9.1931  -23.7494  -52.8286 H         1 UNK         0.0600 
    225 H225       -5.9328  -22.7406  -50.0022 H         1 UNK         0.3000 
    226 H226       -4.7792  -20.8509  -50.0991 H         1 UNK         0.0600 
    227 H227       -6.7529  -19.9029  -48.8303 H         1 UNK         0.0600 
    228 H228       -5.8976  -18.6996  -49.7778 H         1 UNK         0.0600 
    229 H229       -7.4282  -19.3348  -50.3528 H         1 UNK         0.0600 
    230 H230       -4.8623  -22.2872  -52.3932 H         1 UNK         0.3000 
    231 H231       -5.7686  -21.1003  -54.7219 H         1 UNK         0.0600 
    232 H232       -5.1482  -23.4714  -54.5186 H         1 UNK         0.0600 
    233 H233       -3.4455  -23.0558  -54.3180 H         1 UNK         0.0600 
    234 H234       -4.2578  -22.7552  -55.8501 H         1 UNK         0.0600 
    235 H235       -2.9080  -20.1547  -52.9933 H         1 UNK         0.3000 
    236 H236       -1.5386  -18.8526  -55.1911 H         1 UNK         0.0600 
    237 H237       -0.1534  -17.8788  -53.3811 H         1 UNK         0.0600 
    238 H238       -1.2814  -18.4562  -52.1666 H         1 UNK         0.0600 
    239 H239       -0.3506  -19.6063  -53.1259 H         1 UNK         0.0600 
    240 H240       -4.2449  -18.0062  -53.1252 H         1 UNK         0.3000 
    241 H241       -4.2048  -15.1694  -54.0582 H         1 UNK         0.0600 
    242 H242       -6.2768  -18.1535  -53.8335 H         1 UNK         0.3800 
    243 H243       -7.4274  -17.5668  -55.0161 H         1 UNK         0.3800 
    244 H244       -5.7635  -14.6762  -52.2126 H         1 UNK         0.0800 
    245 H245       -5.7373  -16.3387  -51.6872 H         1 UNK         0.0800 
    246 H246       -4.0148  -17.4372  -50.4055 H         1 UNK         0.0800 
    247 H247       -4.5476  -16.2987  -49.1835 H         1 UNK         0.0800 
@<TRIPOS>BOND
     1    1    2 1    
     2    1  127 1    
     3    1  128 1    
     4    1  129 1    
     5    2    3 2    
     6    2    4 am   BACKBONE|DICT|INTERRES
     7    4    5 1    
     8    4  130 1    
     9    5    6 1    
    10    5   65 1    
    11    5  131 1    
    12    6    7 1    
    13    6  132 1    
    14    6  133 1    
    15    7    8 1    
    16    8    9 1    
    17    8  134 1    
    18    8  135 1    
    19    9   10 ar   
    20    9   14 ar   
    21   10   11 ar   
    22   10  136 1    
    23   11   12 ar   
    24   11  126 1    
    25   12   13 ar   
    26   12  137 1    
    27   13   14 ar   
    28   13   15 1    
    29   14  138 1    
    30   15   16 1    
    31   15  139 1    
    32   15  140 1    
    33   16   17 1    
    34   17   18 1    
    35   17  141 1    
    36   17  142 1    
    37   18   19 1    
    38   18   67 1    
    39   18  143 1    
    40   19   20 am   BACKBONE|DICT|INTERRES
    41   19  144 1    
    42   20   21 2    
    43   20   22 1    
    44   22   23 1    
    45   22   24 1    
    46   22  145 1    
    47   23  146 1    
    48   23  147 1    
    49   23  148 1    
    50   24   25 am   BACKBONE|DICT|INTERRES
    51   24  149 1    
    52   25   26 2    
    53   25   27 1    
    54   27   28 1    
    55   27   29 1    
    56   27  150 1    
    57   28  151 1    
    58   28  152 1    
    59   28  153 1    
    60   29   30 am   BACKBONE|DICT|INTERRES
    61   29  154 1    
    62   30   31 2    
    63   30   32 1    
    64   32   33 1    
    65   32   34 1    
    66   32  155 1    
    67   33  156 1    
    68   33  157 1    
    69   33  158 1    
    70   34   35 am   BACKBONE|DICT|INTERRES
    71   34  159 1    
    72   35   36 2    
    73   35   37 1    
    74   37   38 1    
    75   37   39 1    
    76   37  160 1    
    77   38  161 1    
    78   38  162 1    
    79   38  163 1    
    80   39   40 am   BACKBONE|DICT|INTERRES
    81   39  164 1    
    82   40   41 2    
    83   40   42 1    
    84   42   43 1    
    85   42   44 1    
    86   42  165 1    
    87   43  166 1    
    88   43  167 1    
    89   43  168 1    
    90   44   45 am   BACKBONE|DICT|INTERRES
    91   44  169 1    
    92   45   46 2    
    93   45   47 1    
    94   47   48 1    
    95   47   49 1    
    96   47  170 1    
    97   48  171 1    
    98   48  172 1    
    99   48  173 1    
   100   49   50 am   BACKBONE|DICT|INTERRES
   101   49  174 1    
   102   50   51 2    
   103   50   52 1    
   104   52   53 1    
   105   52   54 1    
   106   52  175 1    
   107   53  176 1    
   108   53  177 1    
   109   53  178 1    
   110   54   55 am   BACKBONE|DICT|INTERRES
   111   54  179 1    
   112   55   56 2    
   113   55   57 1    
   114   57   58 1    
   115   57   59 1    
   116   57  180 1    
   117   58  181 1    
   118   58  182 1    
   119   58  183 1    
   120   59   60 am   BACKBONE|DICT|INTERRES
   121   59  184 1    
   122   60   61 2    
   123   60   62 1    
   124   62   63 1    
   125   62   64 1    
   126   62  185 1    
   127   63  186 1    
   128   63  187 1    
   129   63  188 1    
   130   64   65 am   BACKBONE|DICT|INTERRES
   131   64  189 1    
   132   65   66 2    
   133   67   68 2    
   134   67   69 am   BACKBONE|DICT|INTERRES
   135   69   70 1    
   136   69  190 1    
   137   70   71 1    
   138   70   72 1    
   139   70  191 1    
   140   71  192 1    
   141   71  193 1    
   142   71  194 1    
   143   72   73 2    
   144   72   74 am   BACKBONE|DICT|INTERRES
   145   74   75 1    
   146   74  195 1    
   147   75   76 1    
   148   75   77 1    
   149   75  196 1    
   150   76  197 1    
   151   76  198 1    
   152   76  199 1    
   153   77   78 2    
   154   77   79 am   BACKBONE|DICT|INTERRES
   155   79   80 1    
   156   79  200 1    
   157   80   81 1    
   158   80   82 1    
   159   80  201 1    
   160   81  202 1    
   161   81  203 1    
   162   81  204 1    
   163   82   83 2    
   164   82   84 am   BACKBONE|DICT|INTERRES
   165   84   85 1    
   166   84  205 1    
   167   85   86 1    
   168   85   87 1    
   169   85  206 1    
   170   86  207 1    
   171   86  208 1    
   172   86  209 1    
   173   87   88 2    
   174   87   89 am   BACKBONE|DICT|INTERRES
   175   89   90 1    
   176   89  210 1    
   177   90   91 1    
   178   90   92 1    
   179   90  211 1    
   180   91  212 1    
   181   91  213 1    
   182   91  214 1    
   183   92   93 2    
   184   92   94 am   BACKBONE|DICT|INTERRES
   185   94   95 1    
   186   94  215 1    
   187   95   96 1    
   188   95   97 1    
   189   95  216 1    
   190   96  217 1    
   191   96  218 1    
   192   96  219 1    
   193   97   98 2    
   194   97   99 am   BACKBONE|DICT|INTERRES
   195   99  100 1    
   196   99  220 1    
   197  100  101 1    
   198  100  102 1    
   199  100  221 1    
   200  101  222 1    
   201  101  223 1    
   202  101  224 1    
   203  102  103 2    
   204  102  104 am   BACKBONE|DICT|INTERRES
   205  104  105 1    
   206  104  225 1    
   207  105  106 1    
   208  105  107 1    
   209  105  226 1    
   210  106  227 1    
   211  106  228 1    
   212  106  229 1    
   213  107  108 2    
   214  107  109 am   BACKBONE|DICT|INTERRES
   215  109  110 1    
   216  109  230 1    
   217  110  111 1    
   218  110  112 1    
   219  110  231 1    
   220  111  232 1    
   221  111  233 1    
   222  111  234 1    
   223  112  113 2    
   224  112  114 am   BACKBONE|DICT|INTERRES
   225  114  115 1    
   226  114  235 1    
   227  115  116 1    
   228  115  117 1    
   229  115  236 1    
   230  116  237 1    
   231  116  238 1    
   232  116  239 1    
   233  117  118 2    
   234  117  119 am   BACKBONE|DICT|INTERRES
   235  119  120 1    
   236  119  240 1    
   237  120  121 1    
   238  120  124 1    
   239  120  241 1    
   240  121  122 am   BACKBONE|DICT|INTERRES
   241  121  123 2    
   242  122  242 1    
   243  122  243 1    
   244  124  125 1    
   245  124  244 1    
   246  124  245 1    
   247  125  126 1    
   248  126  246 1    
   249  126  247 1    
@<TRIPOS>SUBSTRUCTURE
     1 UNK         1 GROUP             0       ****    0 ROOT    
