@<TRIPOS>MOLECULE
3R540
247   249    1
SMALL
USER_CHARGES


@<TRIPOS>ATOM
      1 CA          5.9049  -14.8234  -47.5464 C.3       0 UNK        -0.1800 
      2 C           4.5022  -14.3763  -47.1666 C.2       0 UNK         0.5000 
      3 O           4.1075  -14.5151  -46.0075 O.2       0 UNK        -0.5000 
      4 N           3.7456  -13.8333  -48.1295 N.am      1 UNK        -0.5000 
      5 CA          2.3638  -13.3650  -47.9541 C.3       1 UNK         0.1400 
      6 C6          1.6865  -12.9827  -49.2913 C.3       23 UNK        -0.0398 
      7 S7          1.6308  -14.3917  -50.4508 S.3       23 UNK        -0.2404 
      8 C8         -0.1031  -14.9099  -50.2804 C.3       23 UNK        -0.0205 
      9 C9         -0.3438  -16.2648  -50.9262 C.ar      23 UNK        -0.0193 
     10 C10        -0.8062  -16.3576  -52.2418 C.ar      23 UNK        -0.1150 
     11 C11        -1.0522  -17.6073  -52.8194 C.ar      23 UNK        -0.0193 
     12 C12        -0.8382  -18.7669  -52.0663 C.ar      23 UNK        -0.1150 
     13 C13        -0.3666  -18.6905  -50.7520 C.ar      23 UNK        -0.0193 
     14 C14        -0.1121  -17.4333  -50.1968 C.ar      23 UNK        -0.1150 
     15 C15        -0.1079  -19.9662  -49.9537 C.3       23 UNK        -0.0205 
     16 S16        -0.8428  -19.9149  -48.2808 S.3       23 UNK        -0.2404 
     17 C17        -1.5026  -21.5997  -48.0635 C.3       23 UNK        -0.0398 
     18 CA         -0.7562  -22.3943  -46.9689 C.3       11 UNK         0.1400 
     19 N          -0.7997  -21.7287  -45.6639 N.am      11 UNK        -0.5000 
     20 C          -0.0588  -22.0733  -44.6027 C.2       10 UNK         0.5000 
     21 O           0.7788  -22.9741  -44.6180 O.2       10 UNK        -0.5000 
     22 CA         -0.3432  -21.3180  -43.2925 C.3       10 UNK         0.1400 
     23 CB          0.4123  -19.9820  -43.2592 C.3       10 UNK        -0.1800 
     24 N          -1.7754  -21.0793  -43.1028 N.am      10 UNK        -0.5000 
     25 C          -2.6629  -22.0487  -42.8304 C.2       9 UNK         0.5000 
     26 O          -2.3487  -23.2267  -42.6629 O.2       9 UNK        -0.5000 
     27 CA         -4.1536  -21.6563  -42.7840 C.3       9 UNK         0.1400 
     28 CB         -4.5540  -21.2369  -41.3621 C.3       9 UNK        -0.1800 
     29 N          -4.5003  -20.5834  -43.7160 N.am      9 UNK        -0.5000 
     30 C          -4.3474  -20.6361  -45.0465 C.2       8 UNK         0.5000 
     31 O          -3.9855  -21.6480  -45.6467 O.2       8 UNK        -0.5000 
     32 CA         -4.5863  -19.3330  -45.8368 C.3       8 UNK         0.1400 
     33 CB         -5.9489  -19.3774  -46.5439 C.3       8 UNK        -0.1800 
     34 N          -4.4990  -18.1014  -45.0407 N.am      8 UNK        -0.5000 
     35 C          -3.4226  -17.6935  -44.3543 C.2       7 UNK         0.5000 
     36 O          -2.3893  -18.3568  -44.2436 O.2       7 UNK        -0.5000 
     37 CA         -3.5166  -16.3144  -43.6796 C.3       7 UNK         0.1400 
     38 CB         -3.0730  -16.3780  -42.2089 C.3       7 UNK        -0.1800 
     39 N          -2.6609  -15.3837  -44.4056 N.am      7 UNK        -0.5000 
     40 C          -3.0008  -14.7979  -45.5640 C.2       6 UNK         0.5000 
     41 O          -4.1462  -14.8019  -46.0171 O.2       6 UNK        -0.5000 
     42 CA         -1.8698  -14.1311  -46.3776 C.3       6 UNK         0.1400 
     43 CB         -1.8236  -12.6208  -46.1052 C.3       6 UNK        -0.1800 
     44 N          -0.5527  -14.7211  -46.1173 N.am      6 UNK        -0.5000 
     45 C          -0.2443  -16.0025  -46.3705 C.2       5 UNK         0.5000 
     46 O          -0.9764  -16.7436  -47.0214 O.2       5 UNK        -0.5000 
     47 CA          1.0539  -16.5774  -45.7661 C.3       5 UNK         0.1400 
     48 CB          2.0118  -17.1126  -46.8441 C.3       5 UNK        -0.1800 
     49 N           1.7752  -15.6872  -44.8458 N.am      5 UNK        -0.5000 
     50 C           1.3223  -15.3543  -43.6269 C.2       4 UNK         0.5000 
     51 O           0.1711  -15.5834  -43.2540 O.2       4 UNK        -0.5000 
     52 CA          2.2959  -14.6953  -42.6377 C.3       4 UNK         0.1400 
     53 CB          2.9342  -15.7839  -41.7504 C.3       4 UNK        -0.1800 
     54 N           3.3336  -13.8789  -43.2737 N.am      4 UNK        -0.5000 
     55 C           4.0860  -12.9870  -42.6121 C.2       3 UNK         0.5000 
     56 O           3.9622  -12.7409  -41.4112 O.2       3 UNK        -0.5000 
     57 CA          5.1487  -12.2272  -43.4224 C.3       3 UNK         0.1400 
     58 CB          6.3517  -13.1273  -43.7485 C.3       3 UNK        -0.1800 
     59 N           4.5932  -11.6696  -44.6526 N.am      3 UNK        -0.5000 
     60 C           3.8496  -10.5551  -44.7073 C.2       2 UNK         0.5000 
     61 O           3.5896   -9.8581  -43.7257 O.2       2 UNK        -0.5000 
     62 CA          3.3115  -10.1361  -46.0898 C.3       2 UNK         0.1400 
     63 CB          4.2148   -9.0618  -46.7147 C.3       2 UNK        -0.1800 
     64 N           3.1892  -11.2555  -47.0247 N.am      2 UNK        -0.5000 
     65 C           2.2661  -12.2214  -46.9282 C.2       1 UNK         0.5000 
     66 O           1.4087  -12.2676  -46.0466 O.2       1 UNK        -0.5000 
     67 C          -1.3002  -23.8336  -46.8776 C.2       11 UNK         0.5000 
     68 O          -0.7230  -24.7408  -47.4769 O.2       11 UNK        -0.5000 
     69 N          -2.3759  -24.0249  -46.1005 N.am      12 UNK        -0.5000 
     70 CA         -2.9547  -25.3315  -45.7903 C.3       12 UNK         0.1400 
     71 CB         -4.2952  -25.1479  -45.0651 C.3       12 UNK        -0.1800 
     72 C          -1.9974  -26.2238  -44.9806 C.2       12 UNK         0.5000 
     73 O          -1.8424  -27.3970  -45.3184 O.2       12 UNK        -0.5000 
     74 N          -1.3288  -25.6471  -43.9707 N.am      13 UNK        -0.5000 
     75 CA         -0.2980  -26.3132  -43.1676 C.3       13 UNK         0.1400 
     76 CB          0.0980  -25.4127  -41.9879 C.3       13 UNK        -0.1800 
     77 C           0.9432  -26.7140  -43.9897 C.2       13 UNK         0.5000 
     78 O           1.5160  -27.7769  -43.7481 O.2       13 UNK        -0.5000 
     79 N           1.3089  -25.8787  -44.9715 N.am      14 UNK        -0.5000 
     80 CA          2.3674  -26.1379  -45.9502 C.3       14 UNK         0.1400 
     81 CB          2.7917  -24.8022  -46.5824 C.3       14 UNK        -0.1800 
     82 C           1.9667  -27.1482  -47.0477 C.2       14 UNK         0.5000 
     83 O           2.8343  -27.5631  -47.8172 O.2       14 UNK        -0.5000 
     84 N           0.6759  -27.5121  -47.1123 N.am      15 UNK        -0.5000 
     85 CA          0.0357  -28.3785  -48.1076 C.3       15 UNK         0.1400 
     86 CB          0.5653  -29.8241  -48.0067 C.3       15 UNK        -0.1800 
     87 C           0.1085  -27.7965  -49.5356 C.2       15 UNK         0.5000 
     88 O           0.3165  -28.5344  -50.5007 O.2       15 UNK        -0.5000 
     89 N          -0.0674  -26.4747  -49.6385 N.am      16 UNK        -0.5000 
     90 CA         -0.0070  -25.6967  -50.8717 C.3       16 UNK         0.1400 
     91 CB          1.3971  -25.0796  -51.0111 C.3       16 UNK        -0.1800 
     92 C          -1.1280  -24.6456  -50.8530 C.2       16 UNK         0.5000 
     93 O          -0.8722  -23.4589  -51.0625 O.2       16 UNK        -0.5000 
     94 N          -2.3561  -25.0992  -50.5637 N.am      17 UNK        -0.5000 
     95 CA         -3.5724  -24.3045  -50.3548 C.3       17 UNK         0.1400 
     96 CB         -4.6190  -25.1931  -49.6590 C.3       17 UNK        -0.1800 
     97 C          -4.1307  -23.6265  -51.6295 C.2       17 UNK         0.5000 
     98 O          -5.3207  -23.7440  -51.9252 O.2       17 UNK        -0.5000 
     99 N          -3.2652  -22.9141  -52.3576 N.am      18 UNK        -0.5000 
    100 CA        -3.6006  -22.1162  -53.5385 C.3       18 UNK         0.1400 
    101 CB        -2.3506  -22.0020  -54.4257 C.3       18 UNK        -0.1800 
    102 C         -4.1478  -20.7182  -53.1862 C.2       18 UNK         0.5000 
    103 O         -4.6458  -20.0328  -54.0791 O.2       18 UNK        -0.5000 
    104 N         -4.0354  -20.3181  -51.9095 N.am      19 UNK        -0.5000 
    105 CA        -4.4820  -19.0363  -51.3588 C.3       19 UNK         0.1400 
    106 CB        -4.2166  -19.0181  -49.8473 C.3       19 UNK        -0.1800 
    107 C         -5.9641  -18.7323  -51.6392 C.2       19 UNK         0.5000 
    108 O         -6.7904  -19.6481  -51.6527 O.2       19 UNK        -0.5000 
    109 N         -6.2601  -17.4469  -51.8714 N.am      20 UNK        -0.5000 
    110 CA        -7.5442  -16.8599  -52.2783 C.3       20 UNK         0.1400 
    111 CB        -8.6706  -17.1636  -51.2718 C.3       20 UNK        -0.1800 
    112 C         -7.9539  -17.2215  -53.7194 C.2       20 UNK         0.5000 
    113 O         -8.3228  -16.3258  -54.4801 O.2       20 UNK        -0.5000 
    114 N         -7.8309  -18.5018  -54.0951 N.am      21 UNK        -0.5000 
    115 CA        -8.0553  -19.0169  -55.4487 C.3       21 UNK         0.1400 
    116 CB        -7.9603  -20.5500  -55.4327 C.3       21 UNK        -0.1800 
    117 C         -7.0902  -18.4144  -56.4893 C.2       21 UNK         0.5000 
    118 O         -7.4857  -18.2111  -57.6378 O.2       21 UNK        -0.5000 
    119 N         -5.8639  -18.0973  -56.0556 N.am      22 UNK        -0.5000 
    120 CA        -4.8664  -17.3257  -56.8103 C.3       22 UNK         0.1400 
    121 C         -5.1872  -15.8094  -56.9913 C.2       22 UNK         0.5000 
    122 N         -6.2330  -15.2575  -56.3855 N.am      22 UNK        -0.7600 
    123 O         -4.4771  -15.1175  -57.7162 O.2       22 UNK        -0.5000 
    124 C124       -3.4348  -17.5597  -56.2625 C.3       23 UNK        -0.0398 
    125 S125       -3.1962  -17.0762  -54.5153 S.3       23 UNK        -0.2404 
    126 C126       -1.5076  -17.7081  -54.2680 C.3       23 UNK        -0.0205 
    127 H127        6.0247  -15.8873  -47.3424 H         1 UNK         0.0600 
    128 H128        6.6436  -14.2771  -46.9599 H         1 UNK         0.0600 
    129 H129        6.1125  -14.6528  -48.6029 H         1 UNK         0.0600 
    130 H130        4.1133  -13.7641  -49.0679 H         1 UNK         0.3000 
    131 H131        1.7961  -14.1922  -47.5337 H         1 UNK         0.0600 
    132 H132        0.6714  -12.6185  -49.1207 H         1 UNK         0.0800 
    133 H133        2.2243  -12.1651  -49.7742 H         1 UNK         0.0800 
    134 H134       -0.3673  -14.9601  -49.2236 H         1 UNK         0.0800 
    135 H135       -0.7537  -14.1559  -50.7261 H         1 UNK         0.0800 
    136 H136       -0.9735  -15.4589  -52.8188 H         1 UNK         0.1150 
    137 H137       -1.0252  -19.7335  -52.5095 H         1 UNK         0.1150 
    138 H138        0.2592  -17.3629  -49.1865 H         1 UNK         0.1150 
    139 H139       -0.4887  -20.8251  -50.5065 H         1 UNK         0.0800 
    140 H140        0.9686  -20.1154  -49.8610 H         1 UNK         0.0800 
    141 H141       -1.4549  -22.1316  -49.0099 H         1 UNK         0.0800 
    142 H142       -2.5635  -21.5128  -47.8275 H         1 UNK         0.0800 
    143 H143        0.2921  -22.4657  -47.2667 H         1 UNK         0.0600 
    144 H144       -1.4712  -20.9815  -45.5639 H         1 UNK         0.3000 
    145 H145        0.0162  -21.9322  -42.4643 H         1 UNK         0.0600 
    146 H146        1.4876  -20.1376  -43.3542 H         1 UNK         0.0600 
    147 H147        0.2393  -19.4508  -42.3231 H         1 UNK         0.0600 
    148 H148        0.1015  -19.3310  -44.0751 H         1 UNK         0.0600 
    149 H149       -2.1054  -20.1366  -43.2846 H         1 UNK         0.3000 
    150 H150       -4.7377  -22.5363  -43.0592 H         1 UNK         0.0600 
    151 H151       -4.0225  -20.3396  -41.0423 H         1 UNK         0.0600 
    152 H152       -4.3276  -22.0265  -40.6442 H         1 UNK         0.0600 
    153 H153       -5.6235  -21.0364  -41.2958 H         1 UNK         0.0600 
    154 H154       -4.8025  -19.7107  -43.3099 H         1 UNK         0.3000 
    155 H155       -3.8076  -19.2796  -46.6009 H         1 UNK         0.0600 
    156 H156       -6.7722  -19.3908  -45.8288 H         1 UNK         0.0600 
    157 H157       -6.0395  -20.2696  -47.1651 H         1 UNK         0.0600 
    158 H158       -6.0836  -18.5150  -47.1971 H         1 UNK         0.0600 
    159 H159       -5.2976  -17.4849  -45.0917 H         1 UNK         0.3000 
    160 H160       -4.5499  -15.9621  -43.7060 H         1 UNK         0.0600 
    161 H161       -2.0433  -16.7237  -42.1087 H         1 UNK         0.0600 
    162 H162       -3.7047  -17.0620  -41.6411 H         1 UNK         0.0600 
    163 H163       -3.1426  -15.3990  -41.7346 H         1 UNK         0.0600 
    164 H164       -1.6863  -15.3720  -44.1217 H         1 UNK         0.3000 
    165 H165       -2.1018  -14.2785  -47.4343 H         1 UNK         0.0600 
    166 H166       -1.1483  -12.1177  -46.7968 H         1 UNK         0.0600 
    167 H167       -2.8077  -12.1679  -46.2328 H         1 UNK         0.0600 
    168 H168       -1.4901  -12.4049  -45.0894 H         1 UNK         0.0600 
    169 H169        0.1033  -14.1553  -45.5949 H         1 UNK         0.3000 
    170 H170        0.7414  -17.4394  -45.1757 H         1 UNK         0.0600 
    171 H171        2.9491  -17.4578  -46.4077 H         1 UNK         0.0600 
    172 H172        2.2480  -16.3681  -47.6017 H         1 UNK         0.0600 
    173 H173        1.5687  -17.9656  -47.3586 H         1 UNK         0.0600 
    174 H174        2.7161  -15.4280  -45.1259 H         1 UNK         0.3000 
    175 H175        1.6927  -14.0417  -42.0037 H         1 UNK         0.0600 
    176 H176        2.1726  -16.4298  -41.3109 H         1 UNK         0.0600 
    177 H177        3.6110  -16.4183  -42.3239 H         1 UNK         0.0600 
    178 H178        3.4992  -15.3535  -40.9241 H         1 UNK         0.0600 
    179 H179        3.4958  -14.0151  -44.2672 H         1 UNK         0.3000 
    180 H180        5.5152  -11.4043  -42.8043 H         1 UNK         0.0600 
    181 H181        6.0677  -13.9967  -44.3404 H         1 UNK         0.0600 
    182 H182        6.8162  -13.4968  -42.8335 H         1 UNK         0.0600 
    183 H183        7.1153  -12.5802  -44.3015 H         1 UNK         0.0600 
    184 H184        4.7227  -12.2077  -45.4961 H         1 UNK         0.3000 
    185 H185        2.3200   -9.7036  -45.9395 H         1 UNK         0.0600 
    186 H186        4.3061   -8.1969  -46.0564 H         1 UNK         0.0600 
    187 H187        5.2208   -9.4399  -46.9011 H         1 UNK         0.0600 
    188 H188        3.8080   -8.7059  -47.6614 H         1 UNK         0.0600 
    189 H189        3.8748  -11.3082  -47.7642 H         1 UNK         0.3000 
    190 H190       -2.8354  -23.2129  -45.6984 H         1 UNK         0.3000 
    191 H191       -3.1490  -25.8406  -46.7350 H         1 UNK         0.0600 
    192 H192       -4.9830  -24.5414  -45.6549 H         1 UNK         0.0600 
    193 H193       -4.7769  -26.1104  -44.8892 H         1 UNK         0.0600 
    194 H194       -4.1678  -24.6646  -44.0971 H         1 UNK         0.0600 
    195 H195       -1.5549  -24.6908  -43.7140 H         1 UNK         0.3000 
    196 H196       -0.7339  -27.2287  -42.7627 H         1 UNK         0.0600 
    197 H197        0.8456  -25.8980  -41.3594 H         1 UNK         0.0600 
    198 H198       -0.7621  -25.1897  -41.3564 H         1 UNK         0.0600 
    199 H199        0.5184  -24.4659  -42.3269 H         1 UNK         0.0600 
    200 H200        0.8316  -24.9870  -45.0506 H         1 UNK         0.3000 
    201 H201        3.2293  -26.5537  -45.4245 H         1 UNK         0.0600 
    202 H202        3.6199  -24.9419  -47.2781 H         1 UNK         0.0600 
    203 H203        3.1222  -24.0930  -45.8233 H         1 UNK         0.0600 
    204 H204        1.9734  -24.3426  -47.1368 H         1 UNK         0.0600 
    205 H205        0.0442  -27.1076  -46.4328 H         1 UNK         0.3000 
    206 H206       -1.0235  -28.4016  -47.8482 H         1 UNK         0.0600 
    207 H207        0.4884  -30.2005  -46.9866 H         1 UNK         0.0600 
    208 H208       -0.0111  -30.4959  -48.6437 H         1 UNK         0.0600 
    209 H209        1.6085  -29.8985  -48.3146 H         1 UNK         0.0600 
    210 H210       -0.2598  -25.9356  -48.7946 H         1 UNK         0.3000 
    211 H211       -0.1929  -26.3378  -51.7356 H         1 UNK         0.0600 
    212 H212        1.6248  -24.4132  -50.1780 H         1 UNK         0.0600 
    213 H213        1.4833  -24.5017  -51.9319 H         1 UNK         0.0600 
    214 H214        2.1650  -25.8528  -51.0389 H         1 UNK         0.0600 
    215 H215       -2.4598  -26.0944  -50.4300 H         1 UNK         0.3000 
    216 H216       -3.3248  -23.4990  -49.6621 H         1 UNK         0.0600 
    217 H217       -5.5079  -24.6198  -49.3926 H         1 UNK         0.0600 
    218 H218       -4.2275  -25.6209  -48.7380 H         1 UNK         0.0600 
    219 H219       -4.9367  -26.0160  -50.3005 H         1 UNK         0.0600 
    220 H220       -2.2950  -22.9022  -52.0493 H         1 UNK         0.3000 
    221 H221       -4.3756  -22.6308  -54.1104 H         1 UNK         0.0600 
    222 H222       -1.5190  -21.5383  -53.8956 H         1 UNK         0.0600 
    223 H223       -2.0215  -22.9838  -54.7664 H         1 UNK         0.0600 
    224 H224       -2.5514  -21.4015  -55.3141 H         1 UNK         0.0600 
    225 H225       -3.6263  -20.9652  -51.2553 H         1 UNK         0.3000 
    226 H226       -3.8759  -18.2567  -51.8229 H         1 UNK         0.0600 
    227 H227       -3.1498  -19.0644  -49.6445 H         1 UNK         0.0600 
    228 H228       -4.6968  -19.8566  -49.3421 H         1 UNK         0.0600 
    229 H229       -4.5861  -18.0995  -49.3898 H         1 UNK         0.0600 
    230 H230       -5.4946  -16.7873  -51.8509 H         1 UNK         0.3000 
    231 H231       -7.3844  -15.7805  -52.2636 H         1 UNK         0.0600 
    232 H232       -8.9432  -18.2190  -51.2628 H         1 UNK         0.0600 
    233 H233       -9.5712  -16.6012  -51.5208 H         1 UNK         0.0600 
    234 H234       -8.3811  -16.8825  -50.2593 H         1 UNK         0.0600 
    235 H235       -7.4998  -19.1627  -53.3983 H         1 UNK         0.3000 
    236 H236       -9.0698  -18.7411  -55.7433 H         1 UNK         0.0600 
    237 H237       -8.6938  -20.9834  -54.7527 H         1 UNK         0.0600 
    238 H238       -8.1512  -20.9631  -56.4239 H         1 UNK         0.0600 
    239 H239       -6.9727  -20.8901  -55.1202 H         1 UNK         0.0600 
    240 H240       -5.5912  -18.3746  -55.1197 H         1 UNK         0.3000 
    241 H241       -4.8725  -17.7293  -57.8245 H         1 UNK         0.0600 
    242 H242       -6.4193  -14.2776  -56.5275 H         1 UNK         0.3800 
    243 H243       -6.8544  -15.8000  -55.7977 H         1 UNK         0.3800 
    244 H244       -2.6989  -17.0363  -56.8753 H         1 UNK         0.0800 
    245 H245       -3.1938  -18.6198  -56.3541 H         1 UNK         0.0800 
    246 H246       -0.8176  -17.1479  -54.9010 H         1 UNK         0.0800 
    247 H247       -1.4633  -18.7451  -54.6051 H         1 UNK         0.0800 
@<TRIPOS>BOND
     1    1    2 1    
     2    1  127 1    
     3    1  128 1    
     4    1  129 1    
     5    2    3 2    
     6    2    4 am   BACKBONE|DICT|INTERRES
     7    4    5 1    
     8    4  130 1    
     9    5    6 1    
    10    5   65 1    
    11    5  131 1    
    12    6    7 1    
    13    6  132 1    
    14    6  133 1    
    15    7    8 1    
    16    8    9 1    
    17    8  134 1    
    18    8  135 1    
    19    9   10 ar   
    20    9   14 ar   
    21   10   11 ar   
    22   10  136 1    
    23   11   12 ar   
    24   11  126 1    
    25   12   13 ar   
    26   12  137 1    
    27   13   14 ar   
    28   13   15 1    
    29   14  138 1    
    30   15   16 1    
    31   15  139 1    
    32   15  140 1    
    33   16   17 1    
    34   17   18 1    
    35   17  141 1    
    36   17  142 1    
    37   18   19 1    
    38   18   67 1    
    39   18  143 1    
    40   19   20 am   BACKBONE|DICT|INTERRES
    41   19  144 1    
    42   20   21 2    
    43   20   22 1    
    44   22   23 1    
    45   22   24 1    
    46   22  145 1    
    47   23  146 1    
    48   23  147 1    
    49   23  148 1    
    50   24   25 am   BACKBONE|DICT|INTERRES
    51   24  149 1    
    52   25   26 2    
    53   25   27 1    
    54   27   28 1    
    55   27   29 1    
    56   27  150 1    
    57   28  151 1    
    58   28  152 1    
    59   28  153 1    
    60   29   30 am   BACKBONE|DICT|INTERRES
    61   29  154 1    
    62   30   31 2    
    63   30   32 1    
    64   32   33 1    
    65   32   34 1    
    66   32  155 1    
    67   33  156 1    
    68   33  157 1    
    69   33  158 1    
    70   34   35 am   BACKBONE|DICT|INTERRES
    71   34  159 1    
    72   35   36 2    
    73   35   37 1    
    74   37   38 1    
    75   37   39 1    
    76   37  160 1    
    77   38  161 1    
    78   38  162 1    
    79   38  163 1    
    80   39   40 am   BACKBONE|DICT|INTERRES
    81   39  164 1    
    82   40   41 2    
    83   40   42 1    
    84   42   43 1    
    85   42   44 1    
    86   42  165 1    
    87   43  166 1    
    88   43  167 1    
    89   43  168 1    
    90   44   45 am   BACKBONE|DICT|INTERRES
    91   44  169 1    
    92   45   46 2    
    93   45   47 1    
    94   47   48 1    
    95   47   49 1    
    96   47  170 1    
    97   48  171 1    
    98   48  172 1    
    99   48  173 1    
   100   49   50 am   BACKBONE|DICT|INTERRES
   101   49  174 1    
   102   50   51 2    
   103   50   52 1    
   104   52   53 1    
   105   52   54 1    
   106   52  175 1    
   107   53  176 1    
   108   53  177 1    
   109   53  178 1    
   110   54   55 am   BACKBONE|DICT|INTERRES
   111   54  179 1    
   112   55   56 2    
   113   55   57 1    
   114   57   58 1    
   115   57   59 1    
   116   57  180 1    
   117   58  181 1    
   118   58  182 1    
   119   58  183 1    
   120   59   60 am   BACKBONE|DICT|INTERRES
   121   59  184 1    
   122   60   61 2    
   123   60   62 1    
   124   62   63 1    
   125   62   64 1    
   126   62  185 1    
   127   63  186 1    
   128   63  187 1    
   129   63  188 1    
   130   64   65 am   BACKBONE|DICT|INTERRES
   131   64  189 1    
   132   65   66 2    
   133   67   68 2    
   134   67   69 am   BACKBONE|DICT|INTERRES
   135   69   70 1    
   136   69  190 1    
   137   70   71 1    
   138   70   72 1    
   139   70  191 1    
   140   71  192 1    
   141   71  193 1    
   142   71  194 1    
   143   72   73 2    
   144   72   74 am   BACKBONE|DICT|INTERRES
   145   74   75 1    
   146   74  195 1    
   147   75   76 1    
   148   75   77 1    
   149   75  196 1    
   150   76  197 1    
   151   76  198 1    
   152   76  199 1    
   153   77   78 2    
   154   77   79 am   BACKBONE|DICT|INTERRES
   155   79   80 1    
   156   79  200 1    
   157   80   81 1    
   158   80   82 1    
   159   80  201 1    
   160   81  202 1    
   161   81  203 1    
   162   81  204 1    
   163   82   83 2    
   164   82   84 am   BACKBONE|DICT|INTERRES
   165   84   85 1    
   166   84  205 1    
   167   85   86 1    
   168   85   87 1    
   169   85  206 1    
   170   86  207 1    
   171   86  208 1    
   172   86  209 1    
   173   87   88 2    
   174   87   89 am   BACKBONE|DICT|INTERRES
   175   89   90 1    
   176   89  210 1    
   177   90   91 1    
   178   90   92 1    
   179   90  211 1    
   180   91  212 1    
   181   91  213 1    
   182   91  214 1    
   183   92   93 2    
   184   92   94 am   BACKBONE|DICT|INTERRES
   185   94   95 1    
   186   94  215 1    
   187   95   96 1    
   188   95   97 1    
   189   95  216 1    
   190   96  217 1    
   191   96  218 1    
   192   96  219 1    
   193   97   98 2    
   194   97   99 am   BACKBONE|DICT|INTERRES
   195   99  100 1    
   196   99  220 1    
   197  100  101 1    
   198  100  102 1    
   199  100  221 1    
   200  101  222 1    
   201  101  223 1    
   202  101  224 1    
   203  102  103 2    
   204  102  104 am   BACKBONE|DICT|INTERRES
   205  104  105 1    
   206  104  225 1    
   207  105  106 1    
   208  105  107 1    
   209  105  226 1    
   210  106  227 1    
   211  106  228 1    
   212  106  229 1    
   213  107  108 2    
   214  107  109 am   BACKBONE|DICT|INTERRES
   215  109  110 1    
   216  109  230 1    
   217  110  111 1    
   218  110  112 1    
   219  110  231 1    
   220  111  232 1    
   221  111  233 1    
   222  111  234 1    
   223  112  113 2    
   224  112  114 am   BACKBONE|DICT|INTERRES
   225  114  115 1    
   226  114  235 1    
   227  115  116 1    
   228  115  117 1    
   229  115  236 1    
   230  116  237 1    
   231  116  238 1    
   232  116  239 1    
   233  117  118 2    
   234  117  119 am   BACKBONE|DICT|INTERRES
   235  119  120 1    
   236  119  240 1    
   237  120  121 1    
   238  120  124 1    
   239  120  241 1    
   240  121  122 am   BACKBONE|DICT|INTERRES
   241  121  123 2    
   242  122  242 1    
   243  122  243 1    
   244  124  125 1    
   245  124  244 1    
   246  124  245 1    
   247  125  126 1    
   248  126  246 1    
   249  126  247 1    
@<TRIPOS>SUBSTRUCTURE
     1 UNK         1 GROUP             0       ****    0 ROOT    
