@<TRIPOS>MOLECULE
3R540
247   249    1
SMALL
USER_CHARGES


@<TRIPOS>ATOM
      1 CA          3.9699  -15.5747  -47.8639 C.3       0 UNK        -0.1800 
      2 C           3.5200  -14.9565  -46.5475 C.2       0 UNK         0.5000 
      3 O           4.1301  -15.2027  -45.5079 O.2       0 UNK        -0.5000 
      4 N           2.4595  -14.1451  -46.5998 N.am      1 UNK        -0.5000 
      5 CA          1.8986  -13.3894  -45.4720 C.3       1 UNK         0.1400 
      6 C6          0.3464  -13.4295  -45.4601 C.3       23 UNK        -0.0398 
      7 S7         -0.3582  -15.1033  -45.6037 S.3       23 UNK        -0.2404 
      8 C8         -2.0878  -14.7841  -45.1444 C.3       23 UNK        -0.0205 
      9 C9         -2.9985  -15.8490  -45.7302 C.ar      23 UNK        -0.0193 
     10 C10        -3.6377  -15.6302  -46.9536 C.ar      23 UNK        -0.1150 
     11 C11        -4.4437  -16.6213  -47.5316 C.ar      23 UNK        -0.0193 
     12 C12        -4.6091  -17.8328  -46.8535 C.ar      23 UNK        -0.1150 
     13 C13        -3.9752  -18.0634  -45.6297 C.ar      23 UNK        -0.0193 
     14 C14        -3.1765  -17.0648  -45.0684 C.ar      23 UNK        -0.1150 
     15 C15        -4.1302  -19.4005  -44.9286 C.3       23 UNK        -0.0205 
     16 S16        -2.7870  -20.5282  -45.4004 S.3       23 UNK        -0.2404 
     17 C17        -3.2463  -21.9989  -44.4330 C.3       23 UNK        -0.0398 
     18 CA         -2.4343  -23.2429  -44.8573 C.3       11 UNK         0.1400 
     19 N          -0.9922  -23.0847  -44.6173 N.am      11 UNK        -0.5000 
     20 C          -0.0283  -23.9332  -45.0068 C.2       10 UNK         0.5000 
     21 O          -0.2579  -24.9884  -45.6019 O.2       10 UNK        -0.5000 
     22 CA          1.4235  -23.5732  -44.6438 C.3       10 UNK         0.1400 
     23 CB          2.1723  -23.0131  -45.8618 C.3       10 UNK        -0.1800 
     24 N           1.4983  -22.6029  -43.5512 N.am      10 UNK        -0.5000 
     25 C           1.4805  -22.9238  -42.2498 C.2       9 UNK         0.5000 
     26 O           1.3911  -24.0804  -41.8368 O.2       9 UNK        -0.5000 
     27 CA          1.5744  -21.7658  -41.2353 C.3       9 UNK         0.1400 
     28 CB          3.0366  -21.5285  -40.8282 C.3       9 UNK        -0.1800 
     29 N           1.0107  -20.5107  -41.7344 N.am      9 UNK        -0.5000 
     30 C          -0.2961  -20.2930  -41.9320 C.2       8 UNK         0.5000 
     31 O          -1.1713  -21.1141  -41.6585 O.2       8 UNK        -0.5000 
     32 CA         -0.6936  -18.9482  -42.5732 C.3       8 UNK         0.1400 
     33 CB         -1.0434  -17.9170  -41.4903 C.3       8 UNK        -0.1800 
     34 N           0.3025  -18.3666  -43.4820 N.am      8 UNK        -0.5000 
     35 C           0.8263  -18.9701  -44.5582 C.2       7 UNK         0.5000 
     36 O           0.6128  -20.1466  -44.8506 O.2       7 UNK        -0.5000 
     37 CA          1.7568  -18.1140  -45.4335 C.3       7 UNK         0.1400 
     38 CB          3.1724  -18.7209  -45.5249 C.3       7 UNK        -0.1800 
     39 N           1.1412  -17.8592  -46.7421 N.am      7 UNK        -0.5000 
     40 C           1.0034  -18.7030  -47.7773 C.2       6 UNK         0.5000 
     41 O           1.5694  -19.7890  -47.8803 O.2       6 UNK        -0.5000 
     42 CA          0.1015  -18.2223  -48.9218 C.3       6 UNK         0.1400 
     43 CB         -1.3760  -18.1991  -48.4947 C.3       6 UNK        -0.1800 
     44 N           0.5338  -16.9083  -49.3999 N.am      6 UNK        -0.5000 
     45 C           0.2694  -16.4280  -50.6205 C.2       5 UNK         0.5000 
     46 O          -0.4555  -16.9949  -51.4382 O.2       5 UNK        -0.5000 
     47 CA          0.9251  -15.0875  -50.9854 C.3       5 UNK         0.1400 
     48 CB          1.2382  -14.9879  -52.4887 C.3       5 UNK        -0.1800 
     49 N           0.0321  -13.9926  -50.6195 N.am      5 UNK        -0.5000 
     50 C           0.2588  -13.1248  -49.6304 C.2       4 UNK         0.5000 
     51 O           1.2417  -13.1759  -48.8850 O.2       4 UNK        -0.5000 
     52 CA         -0.7862  -12.0182  -49.4312 C.3       4 UNK         0.1400 
     53 CB         -2.0573  -12.5725  -48.7700 C.3       4 UNK        -0.1800 
     54 N          -0.2106  -10.9753  -48.5886 N.am      4 UNK        -0.5000 
     55 C          -0.6046   -9.6986  -48.5219 C.2       3 UNK         0.5000 
     56 O          -1.5215   -9.2347  -49.2009 O.2       3 UNK        -0.5000 
     57 CA          0.1308   -8.7820  -47.5199 C.3       3 UNK         0.1400 
     58 CB         -0.7903   -8.4325  -46.3402 C.3       3 UNK        -0.1800 
     59 N           1.3562   -9.3797  -46.9858 N.am      3 UNK        -0.5000 
     60 C           2.5417   -9.4085  -47.6050 C.2       2 UNK         0.5000 
     61 O           2.7597   -8.8596  -48.6852 O.2       2 UNK        -0.5000 
     62 CA          3.6568  -10.2330  -46.9318 C.3       2 UNK         0.1400 
     63 CB          4.3345   -9.4537  -45.7884 C.3       2 UNK        -0.1800 
     64 N           3.2060  -11.5676  -46.5100 N.am      2 UNK        -0.5000 
     65 C           2.3694  -11.9166  -45.5181 C.2       1 UNK         0.5000 
     66 O           1.9056  -11.1109  -44.7104 O.2       1 UNK        -0.5000 
     67 C          -3.0375  -24.5217  -44.2345 C.2       11 UNK         0.5000 
     68 O          -4.0954  -24.9606  -44.6857 O.2       11 UNK        -0.5000 
     69 N          -2.3349  -25.1452  -43.2769 N.am      12 UNK        -0.5000 
     70 CA         -2.6304  -26.4786  -42.7428 C.3       12 UNK         0.1400 
     71 CB         -1.6462  -26.7832  -41.6035 C.3       12 UNK        -0.1800 
     72 C          -2.5858  -27.5977  -43.8089 C.2       12 UNK         0.5000 
     73 O          -3.2780  -28.6043  -43.6556 O.2       12 UNK        -0.5000 
     74 N          -1.8049  -27.3859  -44.8774 N.am      13 UNK        -0.5000 
     75 CA         -1.7287  -28.2304  -46.0710 C.3       13 UNK         0.1400 
     76 CB         -0.2744  -28.7052  -46.2396 C.3       13 UNK        -0.1800 
     77 C          -2.2298  -27.4611  -47.3128 C.2       13 UNK         0.5000 
     78 O          -1.7887  -27.7414  -48.4295 O.2       13 UNK        -0.5000 
     79 N          -3.0995  -26.4593  -47.0942 N.am      14 UNK        -0.5000 
     80 CA         -3.6593  -25.5135  -48.0718 C.3       14 UNK         0.1400 
     81 CB         -4.5797  -26.2436  -49.0707 C.3       14 UNK        -0.1800 
     82 C          -2.6034  -24.6496  -48.7949 C.2       14 UNK         0.5000 
     83 O          -2.9156  -24.0416  -49.8202 O.2       14 UNK        -0.5000 
     84 N          -1.3687  -24.6264  -48.2718 N.am      15 UNK        -0.5000 
     85 CA         -0.1716  -24.0031  -48.8367 C.3       15 UNK         0.1400 
     86 CB         -0.2580  -22.4726  -48.6937 C.3       15 UNK        -0.1800 
     87 C           0.1309  -24.4752  -50.2755 C.2       15 UNK         0.5000 
     88 O           0.5462  -23.6748  -51.1117 O.2       15 UNK        -0.5000 
     89 N          -0.1380  -25.7621  -50.5534 N.am      16 UNK        -0.5000 
     90 CA         -0.0888  -26.3955  -51.8789 C.3       16 UNK         0.1400 
     91 CB          1.3640  -26.4961  -52.3892 C.3       16 UNK        -0.1800 
     92 C          -1.0458  -25.7187  -52.8884 C.2       16 UNK         0.5000 
     93 O          -0.6859  -25.5077  -54.0471 O.2       16 UNK        -0.5000 
     94 N          -2.2430  -25.3735  -52.3932 N.am      17 UNK        -0.5000 
     95 CA         -3.3464  -24.6517  -53.0357 C.3       17 UNK         0.1400 
     96 CB         -3.7434  -25.2639  -54.3942 C.3       17 UNK        -0.1800 
     97 C          -3.1501  -23.1246  -53.1145 C.2       17 UNK         0.5000 
     98 O          -4.0623  -22.4334  -53.5733 O.2       17 UNK        -0.5000 
     99 N          -2.0220  -22.5899  -52.6192 N.am      18 UNK        -0.5000 
    100 CA        -1.7797  -21.1454  -52.5564 C.3       18 UNK         0.1400 
    101 CB        -0.3086  -20.8485  -52.2370 C.3       18 UNK        -0.1800 
    102 C         -2.7127  -20.4158  -51.5721 C.2       18 UNK         0.5000 
    103 O         -2.9633  -19.2298  -51.7682 O.2       18 UNK        -0.5000 
    104 N         -3.2664  -21.1277  -50.5775 N.am      19 UNK        -0.5000 
    105 CA        -4.2649  -20.5907  -49.6491 C.3       19 UNK         0.1400 
    106 CB        -4.4695  -21.5732  -48.4878 C.3       19 UNK        -0.1800 
    107 C         -5.6120  -20.2729  -50.3275 C.2       19 UNK         0.5000 
    108 O         -6.3399  -19.4085  -49.8405 O.2       19 UNK        -0.5000 
    109 N         -5.9179  -20.9624  -51.4363 N.am      20 UNK        -0.5000 
    110 CA        -7.0913  -20.6943  -52.2656 C.3       20 UNK         0.1400 
    111 CB        -7.4939  -21.9746  -53.0141 C.3       20 UNK        -0.1800 
    112 C         -6.8339  -19.5404  -53.2512 C.2       20 UNK         0.5000 
    113 O         -7.7370  -18.7385  -53.4909 O.2       20 UNK        -0.5000 
    114 N         -5.6135  -19.4772  -53.8041 N.am      21 UNK        -0.5000 
    115 CA        -5.1848  -18.4452  -54.7496 C.3       21 UNK         0.1400 
    116 CB        -3.9041  -18.9073  -55.4626 C.3       21 UNK        -0.1800 
    117 C         -4.9726  -17.0787  -54.0722 C.2       21 UNK         0.5000 
    118 O         -5.4817  -16.0693  -54.5593 O.2       21 UNK        -0.5000 
    119 N         -4.2284  -17.0813  -52.9601 N.am      22 UNK        -0.5000 
    120 CA        -3.8949  -15.9354  -52.1001 C.3       22 UNK         0.1400 
    121 C         -2.9228  -14.8769  -52.7099 C.2       22 UNK         0.5000 
    122 N         -2.4638  -15.0209  -53.9465 N.am      22 UNK        -0.7600 
    123 O         -2.5326  -13.9273  -52.0356 O.2       22 UNK        -0.5000 
    124 C124       -5.1660  -15.3098  -51.4536 C.3       23 UNK        -0.0398 
    125 S125       -4.9150  -14.8436  -49.7111 S.3       23 UNK        -0.2404 
    126 C126       -5.1146  -16.4671  -48.8980 C.3       23 UNK        -0.0205 
    127 H127        5.0574  -15.6395  -47.8996 H         1 UNK         0.0600 
    128 H128        3.6423  -14.9782  -48.7154 H         1 UNK         0.0600 
    129 H129        3.5639  -16.5797  -47.9720 H         1 UNK         0.0600 
    130 H130        2.0154  -13.9484  -47.4967 H         1 UNK         0.3000 
    131 H131        2.2526  -13.8110  -44.5292 H         1 UNK         0.0600 
    132 H132       -0.0315  -12.9804  -44.5397 H         1 UNK         0.0800 
    133 H133       -0.0582  -12.8335  -46.2785 H         1 UNK         0.0800 
    134 H134       -2.1777  -14.7642  -44.0573 H         1 UNK         0.0800 
    135 H135       -2.3935  -13.7985  -45.4983 H         1 UNK         0.0800 
    136 H136       -3.4781  -14.6901  -47.4567 H         1 UNK         0.1150 
    137 H137       -5.2179  -18.6104  -47.2931 H         1 UNK         0.1150 
    138 H138       -2.6729  -17.2407  -44.1296 H         1 UNK         0.1150 
    139 H139       -4.1275  -19.2593  -43.8467 H         1 UNK         0.0800 
    140 H140       -5.0917  -19.8491  -45.1830 H         1 UNK         0.0800 
    141 H141       -4.3144  -22.1710  -44.5806 H         1 UNK         0.0800 
    142 H142       -3.1103  -21.7875  -43.3716 H         1 UNK         0.0800 
    143 H143       -2.5540  -23.3551  -45.9362 H         1 UNK         0.0600 
    144 H144       -0.7106  -22.2221  -44.1714 H         1 UNK         0.3000 
    145 H145        1.9245  -24.4947  -44.3400 H         1 UNK         0.0600 
    146 H146        3.1875  -22.7158  -45.5988 H         1 UNK         0.0600 
    147 H147        2.2521  -23.7627  -46.6484 H         1 UNK         0.0600 
    148 H148        1.6698  -22.1421  -46.2834 H         1 UNK         0.0600 
    149 H149        1.4849  -21.6259  -43.8259 H         1 UNK         0.3000 
    150 H150        1.0162  -22.0615  -40.3444 H         1 UNK         0.0600 
    151 H151        3.4828  -22.4393  -40.4265 H         1 UNK         0.0600 
    152 H152        3.1121  -20.7632  -40.0555 H         1 UNK         0.0600 
    153 H153        3.6446  -21.2118  -41.6767 H         1 UNK         0.0600 
    154 H154        1.6630  -19.7836  -41.9878 H         1 UNK         0.3000 
    155 H155       -1.5929  -19.1345  -43.1594 H         1 UNK         0.0600 
    156 H156       -1.8107  -18.3017  -40.8170 H         1 UNK         0.0600 
    157 H157       -1.4310  -16.9972  -41.9290 H         1 UNK         0.0600 
    158 H158       -0.1735  -17.6602  -40.8846 H         1 UNK         0.0600 
    159 H159        0.5401  -17.4006  -43.3098 H         1 UNK         0.3000 
    160 H160        1.8632  -17.1352  -44.9636 H         1 UNK         0.0600 
    161 H161        3.6518  -18.7193  -44.5456 H         1 UNK         0.0600 
    162 H162        3.1592  -19.7549  -45.8703 H         1 UNK         0.0600 
    163 H163        3.8109  -18.1501  -46.1971 H         1 UNK         0.0600 
    164 H164        0.5830  -17.0155  -46.7634 H         1 UNK         0.3000 
    165 H165        0.2072  -18.9416  -49.7372 H         1 UNK         0.0600 
    166 H166       -2.0299  -17.9486  -49.3299 H         1 UNK         0.0600 
    167 H167       -1.6883  -19.1736  -48.1168 H         1 UNK         0.0600 
    168 H168       -1.5506  -17.4704  -47.7043 H         1 UNK         0.0600 
    169 H169        1.1509  -16.3928  -48.7901 H         1 UNK         0.3000 
    170 H170        1.8748  -15.0173  -50.4518 H         1 UNK         0.0600 
    171 H171        1.8788  -15.8103  -52.8093 H         1 UNK         0.0600 
    172 H172        0.3329  -15.0204  -53.0955 H         1 UNK         0.0600 
    173 H173        1.7600  -14.0591  -52.7195 H         1 UNK         0.0600 
    174 H174       -0.8378  -13.9322  -51.1455 H         1 UNK         0.3000 
    175 H175       -1.0315  -11.6026  -50.4109 H         1 UNK         0.0600 
    176 H176       -1.8575  -12.9544  -47.7701 H         1 UNK         0.0600 
    177 H177       -2.8319  -11.8099  -48.6910 H         1 UNK         0.0600 
    178 H178       -2.4691  -13.3922  -49.3561 H         1 UNK         0.0600 
    179 H179        0.6038  -11.2683  -48.0668 H         1 UNK         0.3000 
    180 H180        0.3840   -7.8576  -48.0431 H         1 UNK         0.0600 
    181 H181       -0.3036   -7.7419  -45.6512 H         1 UNK         0.0600 
    182 H182       -1.0772   -9.3220  -45.7775 H         1 UNK         0.0600 
    183 H183       -1.7066   -7.9524  -46.6861 H         1 UNK         0.0600 
    184 H184        1.2872   -9.8512  -46.0891 H         1 UNK         0.3000 
    185 H185        4.4169  -10.4110  -47.6943 H         1 UNK         0.0600 
    186 H186        3.6307   -9.1735  -45.0046 H         1 UNK         0.0600 
    187 H187        5.1317  -10.0394  -45.3308 H         1 UNK         0.0600 
    188 H188        4.7817   -8.5323  -46.1630 H         1 UNK         0.0600 
    189 H189        3.4922  -12.3164  -47.1252 H         1 UNK         0.3000 
    190 H190       -1.4756  -24.7165  -42.9640 H         1 UNK         0.3000 
    191 H191       -3.6412  -26.4572  -42.3304 H         1 UNK         0.0600 
    192 H192       -0.6133  -26.7851  -41.9547 H         1 UNK         0.0600 
    193 H193       -1.7269  -26.0461  -40.8043 H         1 UNK         0.0600 
    194 H194       -1.8464  -27.7612  -41.1639 H         1 UNK         0.0600 
    195 H195       -1.2673  -26.5249  -44.9255 H         1 UNK         0.3000 
    196 H196       -2.3675  -29.1089  -45.9647 H         1 UNK         0.0600 
    197 H197        0.0691  -29.2400  -45.3540 H         1 UNK         0.0600 
    198 H198        0.4031  -27.8669  -46.4082 H         1 UNK         0.0600 
    199 H199       -0.1761  -29.3861  -47.0859 H         1 UNK         0.0600 
    200 H200       -3.4003  -26.3003  -46.1391 H         1 UNK         0.3000 
    201 H201       -4.2763  -24.8165  -47.5034 H         1 UNK         0.0600 
    202 H202       -5.1129  -25.5342  -49.7050 H         1 UNK         0.0600 
    203 H203       -5.3314  -26.8377  -48.5511 H         1 UNK         0.0600 
    204 H204       -4.0199  -26.9105  -49.7269 H         1 UNK         0.0600 
    205 H205       -1.2081  -25.1302  -47.4071 H         1 UNK         0.3000 
    206 H206        0.6668  -24.3479  -48.2328 H         1 UNK         0.0600 
    207 H207       -0.4176  -22.1782  -47.6562 H         1 UNK         0.0600 
    208 H208       -1.0728  -22.0561  -49.2816 H         1 UNK         0.0600 
    209 H209        0.6661  -21.9998  -49.0255 H         1 UNK         0.0600 
    210 H210       -0.5010  -26.3423  -49.8059 H         1 UNK         0.3000 
    211 H211       -0.4600  -27.4126  -51.7449 H         1 UNK         0.0600 
    212 H212        2.0055  -26.9862  -51.6569 H         1 UNK         0.0600 
    213 H213        1.4147  -27.0821  -53.3075 H         1 UNK         0.0600 
    214 H214        1.7893  -25.5156  -52.6049 H         1 UNK         0.0600 
    215 H215       -2.3830  -25.5204  -51.4021 H         1 UNK         0.3000 
    216 H216       -4.1963  -24.7933  -52.3664 H         1 UNK         0.0600 
    217 H217       -4.6840  -24.8409  -54.7490 H         1 UNK         0.0600 
    218 H218       -2.9958  -25.0713  -55.1636 H         1 UNK         0.0600 
    219 H219       -3.8820  -26.3423  -54.3180 H         1 UNK         0.0600 
    220 H220       -1.3087  -23.1934  -52.2287 H         1 UNK         0.3000 
    221 H221       -1.9799  -20.7422  -53.5505 H         1 UNK         0.0600 
    222 H222       -0.0491  -21.1277  -51.2178 H         1 UNK         0.0600 
    223 H223        0.3612  -21.3783  -52.9145 H         1 UNK         0.0600 
    224 H224       -0.1007  -19.7825  -52.3393 H         1 UNK         0.0600 
    225 H225       -3.0330  -22.1108  -50.4772 H         1 UNK         0.3000 
    226 H226       -3.8744  -19.6583  -49.2386 H         1 UNK         0.0600 
    227 H227       -3.5220  -21.8163  -48.0075 H         1 UNK         0.0600 
    228 H228       -5.1201  -21.1452  -47.7245 H         1 UNK         0.0600 
    229 H229       -4.9281  -22.5034  -48.8245 H         1 UNK         0.0600 
    230 H230       -5.2561  -21.6401  -51.7903 H         1 UNK         0.3000 
    231 H231       -7.9271  -20.4082  -51.6233 H         1 UNK         0.0600 
    232 H232       -8.3999  -21.8127  -53.5993 H         1 UNK         0.0600 
    233 H233       -7.6970  -22.7901  -52.3198 H         1 UNK         0.0600 
    234 H234       -6.7166  -22.3063  -53.7027 H         1 UNK         0.0600 
    235 H235       -4.9387  -20.1915  -53.5680 H         1 UNK         0.3000 
    236 H236       -5.9658  -18.3288  -55.5041 H         1 UNK         0.0600 
    237 H237       -3.6021  -18.1873  -56.2241 H         1 UNK         0.0600 
    238 H238       -3.0709  -19.0172  -54.7684 H         1 UNK         0.0600 
    239 H239       -4.0532  -19.8650  -55.9617 H         1 UNK         0.0600 
    240 H240       -3.8223  -17.9613  -52.6433 H         1 UNK         0.3000 
    241 H241       -3.3038  -16.3956  -51.3075 H         1 UNK         0.0600 
    242 H242       -1.8300  -14.3357  -54.3243 H         1 UNK         0.3800 
    243 H243       -2.7619  -15.7981  -54.5119 H         1 UNK         0.3800 
    244 H244       -5.5029  -14.4366  -52.0146 H         1 UNK         0.0800 
    245 H245       -6.0013  -16.0116  -51.4805 H         1 UNK         0.0800 
    246 H246       -6.1805  -16.6792  -48.8029 H         1 UNK         0.0800 
    247 H247       -4.7038  -17.2371  -49.5517 H         1 UNK         0.0800 
@<TRIPOS>BOND
     1    1    2 1    
     2    1  127 1    
     3    1  128 1    
     4    1  129 1    
     5    2    3 2    
     6    2    4 am   BACKBONE|DICT|INTERRES
     7    4    5 1    
     8    4  130 1    
     9    5    6 1    
    10    5   65 1    
    11    5  131 1    
    12    6    7 1    
    13    6  132 1    
    14    6  133 1    
    15    7    8 1    
    16    8    9 1    
    17    8  134 1    
    18    8  135 1    
    19    9   10 ar   
    20    9   14 ar   
    21   10   11 ar   
    22   10  136 1    
    23   11   12 ar   
    24   11  126 1    
    25   12   13 ar   
    26   12  137 1    
    27   13   14 ar   
    28   13   15 1    
    29   14  138 1    
    30   15   16 1    
    31   15  139 1    
    32   15  140 1    
    33   16   17 1    
    34   17   18 1    
    35   17  141 1    
    36   17  142 1    
    37   18   19 1    
    38   18   67 1    
    39   18  143 1    
    40   19   20 am   BACKBONE|DICT|INTERRES
    41   19  144 1    
    42   20   21 2    
    43   20   22 1    
    44   22   23 1    
    45   22   24 1    
    46   22  145 1    
    47   23  146 1    
    48   23  147 1    
    49   23  148 1    
    50   24   25 am   BACKBONE|DICT|INTERRES
    51   24  149 1    
    52   25   26 2    
    53   25   27 1    
    54   27   28 1    
    55   27   29 1    
    56   27  150 1    
    57   28  151 1    
    58   28  152 1    
    59   28  153 1    
    60   29   30 am   BACKBONE|DICT|INTERRES
    61   29  154 1    
    62   30   31 2    
    63   30   32 1    
    64   32   33 1    
    65   32   34 1    
    66   32  155 1    
    67   33  156 1    
    68   33  157 1    
    69   33  158 1    
    70   34   35 am   BACKBONE|DICT|INTERRES
    71   34  159 1    
    72   35   36 2    
    73   35   37 1    
    74   37   38 1    
    75   37   39 1    
    76   37  160 1    
    77   38  161 1    
    78   38  162 1    
    79   38  163 1    
    80   39   40 am   BACKBONE|DICT|INTERRES
    81   39  164 1    
    82   40   41 2    
    83   40   42 1    
    84   42   43 1    
    85   42   44 1    
    86   42  165 1    
    87   43  166 1    
    88   43  167 1    
    89   43  168 1    
    90   44   45 am   BACKBONE|DICT|INTERRES
    91   44  169 1    
    92   45   46 2    
    93   45   47 1    
    94   47   48 1    
    95   47   49 1    
    96   47  170 1    
    97   48  171 1    
    98   48  172 1    
    99   48  173 1    
   100   49   50 am   BACKBONE|DICT|INTERRES
   101   49  174 1    
   102   50   51 2    
   103   50   52 1    
   104   52   53 1    
   105   52   54 1    
   106   52  175 1    
   107   53  176 1    
   108   53  177 1    
   109   53  178 1    
   110   54   55 am   BACKBONE|DICT|INTERRES
   111   54  179 1    
   112   55   56 2    
   113   55   57 1    
   114   57   58 1    
   115   57   59 1    
   116   57  180 1    
   117   58  181 1    
   118   58  182 1    
   119   58  183 1    
   120   59   60 am   BACKBONE|DICT|INTERRES
   121   59  184 1    
   122   60   61 2    
   123   60   62 1    
   124   62   63 1    
   125   62   64 1    
   126   62  185 1    
   127   63  186 1    
   128   63  187 1    
   129   63  188 1    
   130   64   65 am   BACKBONE|DICT|INTERRES
   131   64  189 1    
   132   65   66 2    
   133   67   68 2    
   134   67   69 am   BACKBONE|DICT|INTERRES
   135   69   70 1    
   136   69  190 1    
   137   70   71 1    
   138   70   72 1    
   139   70  191 1    
   140   71  192 1    
   141   71  193 1    
   142   71  194 1    
   143   72   73 2    
   144   72   74 am   BACKBONE|DICT|INTERRES
   145   74   75 1    
   146   74  195 1    
   147   75   76 1    
   148   75   77 1    
   149   75  196 1    
   150   76  197 1    
   151   76  198 1    
   152   76  199 1    
   153   77   78 2    
   154   77   79 am   BACKBONE|DICT|INTERRES
   155   79   80 1    
   156   79  200 1    
   157   80   81 1    
   158   80   82 1    
   159   80  201 1    
   160   81  202 1    
   161   81  203 1    
   162   81  204 1    
   163   82   83 2    
   164   82   84 am   BACKBONE|DICT|INTERRES
   165   84   85 1    
   166   84  205 1    
   167   85   86 1    
   168   85   87 1    
   169   85  206 1    
   170   86  207 1    
   171   86  208 1    
   172   86  209 1    
   173   87   88 2    
   174   87   89 am   BACKBONE|DICT|INTERRES
   175   89   90 1    
   176   89  210 1    
   177   90   91 1    
   178   90   92 1    
   179   90  211 1    
   180   91  212 1    
   181   91  213 1    
   182   91  214 1    
   183   92   93 2    
   184   92   94 am   BACKBONE|DICT|INTERRES
   185   94   95 1    
   186   94  215 1    
   187   95   96 1    
   188   95   97 1    
   189   95  216 1    
   190   96  217 1    
   191   96  218 1    
   192   96  219 1    
   193   97   98 2    
   194   97   99 am   BACKBONE|DICT|INTERRES
   195   99  100 1    
   196   99  220 1    
   197  100  101 1    
   198  100  102 1    
   199  100  221 1    
   200  101  222 1    
   201  101  223 1    
   202  101  224 1    
   203  102  103 2    
   204  102  104 am   BACKBONE|DICT|INTERRES
   205  104  105 1    
   206  104  225 1    
   207  105  106 1    
   208  105  107 1    
   209  105  226 1    
   210  106  227 1    
   211  106  228 1    
   212  106  229 1    
   213  107  108 2    
   214  107  109 am   BACKBONE|DICT|INTERRES
   215  109  110 1    
   216  109  230 1    
   217  110  111 1    
   218  110  112 1    
   219  110  231 1    
   220  111  232 1    
   221  111  233 1    
   222  111  234 1    
   223  112  113 2    
   224  112  114 am   BACKBONE|DICT|INTERRES
   225  114  115 1    
   226  114  235 1    
   227  115  116 1    
   228  115  117 1    
   229  115  236 1    
   230  116  237 1    
   231  116  238 1    
   232  116  239 1    
   233  117  118 2    
   234  117  119 am   BACKBONE|DICT|INTERRES
   235  119  120 1    
   236  119  240 1    
   237  120  121 1    
   238  120  124 1    
   239  120  241 1    
   240  121  122 am   BACKBONE|DICT|INTERRES
   241  121  123 2    
   242  122  242 1    
   243  122  243 1    
   244  124  125 1    
   245  124  244 1    
   246  124  245 1    
   247  125  126 1    
   248  126  246 1    
   249  126  247 1    
@<TRIPOS>SUBSTRUCTURE
     1 UNK         1 GROUP             0       ****    0 ROOT    
