@<TRIPOS>MOLECULE
3R540
247   249    1
SMALL
USER_CHARGES


@<TRIPOS>ATOM
      1 CA          3.8846  -11.4369  -50.0686 C.3       0 UNK        -0.1800 
      2 C           2.6416  -11.8292  -49.2832 C.2       0 UNK         0.5000 
      3 O           1.6177  -11.1525  -49.3844 O.2       0 UNK        -0.5000 
      4 N           2.7351  -12.9098  -48.4956 N.am      1 UNK        -0.5000 
      5 CA          1.6966  -13.5065  -47.6411 C.3       1 UNK         0.1400 
      6 C6          0.4186  -13.9571  -48.4008 C.3       23 UNK        -0.0398 
      7 S7          0.7269  -15.3081  -49.5945 S.3       23 UNK        -0.2404 
      8 C8          0.1101  -16.7157  -48.6246 C.3       23 UNK        -0.0205 
      9 C9          0.0263  -18.0101  -49.4156 C.ar      23 UNK        -0.0193 
     10 C10        -1.0970  -18.2783  -50.2015 C.ar      23 UNK        -0.1150 
     11 C11        -1.2309  -19.5092  -50.8480 C.ar      23 UNK        -0.0193 
     12 C12        -0.2459  -20.4854  -50.6761 C.ar      23 UNK        -0.1150 
     13 C13         0.8877  -20.2333  -49.8955 C.ar      23 UNK        -0.0193 
     14 C14         1.0318  -18.9735  -49.2993 C.ar      23 UNK        -0.1150 
     15 C15         1.9218  -21.3512  -49.7418 C.3       23 UNK        -0.0205 
     16 S16         3.0652  -21.2496  -48.3133 S.3       23 UNK        -0.2404 
     17 C17         1.9914  -21.0108  -46.8539 C.3       23 UNK        -0.0398 
     18 CA          1.3293  -22.2935  -46.2961 C.3       11 UNK         0.1400 
     19 N           1.0400  -22.1607  -44.8657 N.am      11 UNK        -0.5000 
     20 C           0.5283  -23.1113  -44.0725 C.2       10 UNK         0.5000 
     21 O           0.2912  -24.2606  -44.4432 O.2       10 UNK        -0.5000 
     22 CA          0.1747  -22.6882  -42.6340 C.3       10 UNK         0.1400 
     23 CB          1.4176  -22.6987  -41.7316 C.3       10 UNK        -0.1800 
     24 N          -0.4627  -21.3706  -42.5798 N.am      10 UNK        -0.5000 
     25 C          -1.6717  -21.0966  -43.0914 C.2       9 UNK         0.5000 
     26 O          -2.3920  -21.9367  -43.6304 O.2       9 UNK        -0.5000 
     27 CA         -2.1334  -19.6285  -43.0358 C.3       9 UNK         0.1400 
     28 CB         -2.6578  -19.2701  -41.6375 C.3       9 UNK        -0.1800 
     29 N          -1.0779  -18.6907  -43.4189 N.am      9 UNK        -0.5000 
     30 C          -0.4961  -18.6584  -44.6260 C.2       8 UNK         0.5000 
     31 O          -0.8211  -19.3834  -45.5644 O.2       8 UNK        -0.5000 
     32 CA          0.6837  -17.6904  -44.8033 C.3       8 UNK         0.1400 
     33 CB          0.1754  -16.2693  -45.0713 C.3       8 UNK        -0.1800 
     34 N           1.5917  -17.6746  -43.6577 N.am      8 UNK        -0.5000 
     35 C           2.2573  -18.7357  -43.1815 C.2       7 UNK         0.5000 
     36 O           2.2092  -19.8563  -43.6844 O.2       7 UNK        -0.5000 
     37 CA          3.0693  -18.5203  -41.8956 C.3       7 UNK         0.1400 
     38 CB          4.4430  -17.9091  -42.2087 C.3       7 UNK        -0.1800 
     39 N           2.3477  -17.6701  -40.9498 N.am      7 UNK        -0.5000 
     40 C           1.2796  -18.0699  -40.2456 C.2       6 UNK         0.5000 
     41 O           0.8287  -19.2158  -40.2799 O.2       6 UNK        -0.5000 
     42 CA          0.5814  -17.0001  -39.3847 C.3       6 UNK         0.1400 
     43 CB          1.2822  -16.8562  -38.0255 C.3       6 UNK        -0.1800 
     44 N           0.5233  -15.6918  -40.0419 N.am      6 UNK        -0.5000 
     45 C          -0.2216  -15.4265  -41.1241 C.2       5 UNK         0.5000 
     46 O          -0.9560  -16.2555  -41.6623 O.2       5 UNK        -0.5000 
     47 CA         -0.1006  -14.0113  -41.7288 C.3       5 UNK         0.1400 
     48 CB         -1.0849  -13.0501  -41.0465 C.3       5 UNK        -0.1800 
     49 N           1.2470  -13.4316  -41.6839 N.am      5 UNK        -0.5000 
     50 C           2.3559  -13.9983  -42.1783 C.2       4 UNK         0.5000 
     51 O           2.3873  -15.1276  -42.6678 O.2       4 UNK        -0.5000 
     52 CA          3.6271  -13.1413  -42.1361 C.3       4 UNK         0.1400 
     53 CB          4.9076  -13.9460  -42.4332 C.3       4 UNK        -0.1800 
     54 N           3.4906  -12.0537  -43.0998 N.am      4 UNK        -0.5000 
     55 C           4.0771  -10.8545  -42.9843 C.2       3 UNK         0.5000 
     56 O           4.7756  -10.5330  -42.0218 O.2       3 UNK        -0.5000 
     57 CA          3.8744   -9.8376  -44.1276 C.3       3 UNK         0.1400 
     58 CB          5.1331   -9.7644  -45.0066 C.3       3 UNK        -0.1800 
     59 N           2.7262  -10.1280  -44.9853 N.am      3 UNK        -0.5000 
     60 C           1.4418  -10.0041  -44.6272 C.2       2 UNK         0.5000 
     61 O           1.0767   -9.5796  -43.5305 O.2       2 UNK        -0.5000 
     62 CA          0.3859  -10.4449  -45.6614 C.3       2 UNK         0.1400 
     63 CB         -0.2021   -9.2225  -46.3823 C.3       2 UNK        -0.1800 
     64 N           0.8730  -11.3960  -46.6675 N.am      2 UNK        -0.5000 
     65 C           1.3439  -12.6252  -46.4223 C.2       1 UNK         0.5000 
     66 O           1.5223  -13.0612  -45.2855 O.2       1 UNK        -0.5000 
     67 C           0.0596  -22.6549  -47.0910 C.2       11 UNK         0.5000 
     68 O           0.0647  -23.6397  -47.8280 O.2       11 UNK        -0.5000 
     69 N          -1.0164  -21.8800  -46.8932 N.am      12 UNK        -0.5000 
     70 CA         -2.3170  -22.0887  -47.5257 C.3       12 UNK         0.1400 
     71 CB         -3.2462  -20.9113  -47.2005 C.3       12 UNK        -0.1800 
     72 C          -2.9645  -23.4274  -47.1329 C.2       12 UNK         0.5000 
     73 O          -3.5435  -24.0864  -47.9951 O.2       12 UNK        -0.5000 
     74 N          -2.8247  -23.8313  -45.8621 N.am      13 UNK        -0.5000 
     75 CA         -3.2659  -25.1340  -45.3622 C.3       13 UNK         0.1400 
     76 CB         -3.1465  -25.1782  -43.8315 C.3       13 UNK        -0.1800 
     77 C          -2.5018  -26.3022  -46.0124 C.2       13 UNK         0.5000 
     78 O          -3.1327  -27.2629  -46.4538 O.2       13 UNK        -0.5000 
     79 N          -1.1695  -26.1807  -46.1062 N.am      14 UNK        -0.5000 
     80 CA         -0.2876  -27.1490  -46.7646 C.3       14 UNK         0.1400 
     81 CB          1.1773  -26.7871  -46.4763 C.3       14 UNK        -0.1800 
     82 C          -0.5362  -27.2576  -48.2818 C.2       14 UNK         0.5000 
     83 O          -0.4885  -28.3593  -48.8299 O.2       14 UNK        -0.5000 
     84 N          -0.8329  -26.1199  -48.9233 N.am      15 UNK        -0.5000 
     85 CA         -1.2061  -26.0137  -50.3354 C.3       15 UNK         0.1400 
     86 CB         -1.0288  -24.5528  -50.7820 C.3       15 UNK        -0.1800 
     87 C          -2.6408  -26.4958  -50.6388 C.2       15 UNK         0.5000 
     88 O          -2.9922  -26.6094  -51.8137 O.2       15 UNK        -0.5000 
     89 N          -3.4427  -26.7483  -49.5915 N.am      16 UNK        -0.5000 
     90 CA         -4.8635  -27.1103  -49.6186 C.3       16 UNK         0.1400 
     91 CB         -5.0652  -28.5092  -50.2368 C.3       16 UNK        -0.1800 
     92 C          -5.7180  -26.0147  -50.2879 C.2       16 UNK         0.5000 
     93 O          -6.5150  -26.2989  -51.1837 O.2       16 UNK        -0.5000 
     94 N          -5.4791  -24.7641  -49.8698 N.am      17 UNK        -0.5000 
     95 CA         -6.0355  -23.4902  -50.3409 C.3       17 UNK         0.1400 
     96 CB         -7.5709  -23.4591  -50.2232 C.3       17 UNK        -0.1800 
     97 C          -5.5774  -23.0725  -51.7512 C.2       17 UNK         0.5000 
     98 O          -5.4221  -21.8758  -51.9934 O.2       17 UNK        -0.5000 
     99 N          -5.3783  -24.0444  -52.6514 N.am      18 UNK        -0.5000 
    100 CA        -4.9369  -23.9593  -54.0506 C.3       18 UNK         0.1400 
    101 CB        -3.5266  -23.3500  -54.1571 C.3       18 UNK        -0.1800 
    102 C         -5.9284  -23.2671  -55.0105 C.2       18 UNK         0.5000 
    103 O         -6.0923  -23.7387  -56.1368 O.2       18 UNK        -0.5000 
    104 N         -6.5874  -22.1979  -54.5441 N.am      19 UNK        -0.5000 
    105 CA        -7.5797  -21.3711  -55.2369 C.3       19 UNK         0.1400 
    106 CB        -8.8474  -22.1967  -55.5497 C.3       19 UNK        -0.1800 
    107 C         -7.0046  -20.6415  -56.4711 C.2       19 UNK         0.5000 
    108 O         -5.7847  -20.4982  -56.5911 O.2       19 UNK        -0.5000 
    109 N         -7.8960  -20.1425  -57.3416 N.am      20 UNK        -0.5000 
    110 CA        -7.6078  -19.3307  -58.5294 C.3       20 UNK         0.1400 
    111 CB        -6.9322  -20.1901  -59.6225 C.3       20 UNK        -0.1800 
    112 C         -6.8257  -18.0574  -58.1442 C.2       20 UNK         0.5000 
    113 O         -7.3448  -17.2492  -57.3713 O.2       20 UNK        -0.5000 
    114 N         -5.5816  -17.9251  -58.6239 N.am      21 UNK        -0.5000 
    115 CA        -4.6493  -16.8495  -58.2729 C.3       21 UNK         0.1400 
    116 CB        -3.3918  -16.9769  -59.1464 C.3       21 UNK        -0.1800 
    117 C         -4.2671  -16.8130  -56.7771 C.2       21 UNK         0.5000 
    118 O         -3.8939  -15.7499  -56.2794 O.2       21 UNK        -0.5000 
    119 N         -4.3860  -17.9557  -56.0879 N.am      22 UNK        -0.5000 
    120 CA        -4.2281  -18.0868  -54.6319 C.3       22 UNK         0.1400 
    121 C         -5.5093  -17.7176  -53.8235 C.2       22 UNK         0.5000 
    122 N         -6.6376  -17.3963  -54.4487 N.am      22 UNK        -0.7600 
    123 O         -5.4771  -17.7075  -52.5967 O.2       22 UNK        -0.5000 
    124 C124       -3.6809  -19.4949  -54.2500 C.3       23 UNK        -0.0398 
    125 S125       -2.0351  -19.4120  -53.4721 S.3       23 UNK        -0.2404 
    126 C126       -2.4347  -19.7794  -51.7364 C.3       23 UNK        -0.0205 
    127 H127        4.7149  -12.1187  -49.8829 H         1 UNK         0.0600 
    128 H128        4.2014  -10.4315  -49.7912 H         1 UNK         0.0600 
    129 H129        3.6703  -11.4454  -51.1372 H         1 UNK         0.0600 
    130 H130        3.6210  -13.3948  -48.4652 H         1 UNK         0.3000 
    131 H131        2.1542  -14.4070  -47.2278 H         1 UNK         0.0600 
    132 H132       -0.3479  -14.2804  -47.6944 H         1 UNK         0.0800 
    133 H133       -0.0283  -13.1234  -48.9432 H         1 UNK         0.0800 
    134 H134        0.7654  -16.8526  -47.7653 H         1 UNK         0.0800 
    135 H135       -0.8812  -16.4844  -48.2322 H         1 UNK         0.0800 
    136 H136       -1.8693  -17.5291  -50.3057 H         1 UNK         0.1150 
    137 H137       -0.3592  -21.4438  -51.1637 H         1 UNK         0.1150 
    138 H138        1.9061  -18.7484  -48.7064 H         1 UNK         0.1150 
    139 H139        1.4130  -22.3143  -49.6999 H         1 UNK         0.0800 
    140 H140        2.5250  -21.3749  -50.6500 H         1 UNK         0.0800 
    141 H141        1.2549  -20.2285  -47.0251 H         1 UNK         0.0800 
    142 H142        2.6596  -20.5991  -46.0981 H         1 UNK         0.0800 
    143 H143        2.0340  -23.1215  -46.3963 H         1 UNK         0.0600 
    144 H144        1.2553  -21.2587  -44.4476 H         1 UNK         0.3000 
    145 H145       -0.5340  -23.4189  -42.2389 H         1 UNK         0.0600 
    146 H146        1.1584  -22.4521  -40.7017 H         1 UNK         0.0600 
    147 H147        1.8838  -23.6847  -41.7234 H         1 UNK         0.0600 
    148 H148        2.1694  -21.9838  -42.0659 H         1 UNK         0.0600 
    149 H149        0.0702  -20.6206  -42.1594 H         1 UNK         0.3000 
    150 H150       -2.9542  -19.5128  -43.7466 H         1 UNK         0.0600 
    151 H151       -3.0630  -18.2582  -41.6170 H         1 UNK         0.0600 
    152 H152       -3.4572  -19.9474  -41.3344 H         1 UNK         0.0600 
    153 H153       -1.8720  -19.3294  -40.8838 H         1 UNK         0.0600 
    154 H154       -0.7900  -18.0143  -42.7196 H         1 UNK         0.3000 
    155 H155        1.2554  -18.0226  -45.6716 H         1 UNK         0.0600 
    156 H156       -0.3147  -15.8483  -44.1972 H         1 UNK         0.0600 
    157 H157       -0.5542  -16.2499  -45.8795 H         1 UNK         0.0600 
    158 H158        0.9980  -15.6118  -45.3455 H         1 UNK         0.0600 
    159 H159        1.7408  -16.7736  -43.2085 H         1 UNK         0.3000 
    160 H160        3.2311  -19.4955  -41.4311 H         1 UNK         0.0600 
    161 H161        4.3542  -16.9524  -42.7231 H         1 UNK         0.0600 
    162 H162        5.0227  -18.5713  -42.8529 H         1 UNK         0.0600 
    163 H163        5.0226  -17.7503  -41.2993 H         1 UNK         0.0600 
    164 H164        2.6073  -16.6943  -40.9294 H         1 UNK         0.3000 
    165 H165       -0.4422  -17.3366  -39.2052 H         1 UNK         0.0600 
    166 H166        0.7488  -16.1593  -37.3788 H         1 UNK         0.0600 
    167 H167        1.3238  -17.8140  -37.5051 H         1 UNK         0.0600 
    168 H168        2.3063  -16.4971  -38.1347 H         1 UNK         0.0600 
    169 H169        1.1007  -14.9572  -39.6601 H         1 UNK         0.3000 
    170 H170       -0.3803  -14.0780  -42.7808 H         1 UNK         0.0600 
    171 H171       -2.1031  -13.4399  -41.0860 H         1 UNK         0.0600 
    172 H172       -0.8331  -12.8939  -39.9969 H         1 UNK         0.0600 
    173 H173       -1.0921  -12.0775  -41.5393 H         1 UNK         0.0600 
    174 H174        1.3142  -12.4927  -41.3184 H         1 UNK         0.3000 
    175 H175        3.7039  -12.7340  -41.1258 H         1 UNK         0.0600 
    176 H176        4.8916  -14.3711  -43.4376 H         1 UNK         0.0600 
    177 H177        5.7965  -13.3209  -42.3494 H         1 UNK         0.0600 
    178 H178        5.0237  -14.7682  -41.7263 H         1 UNK         0.0600 
    179 H179        2.8929  -12.2478  -43.8976 H         1 UNK         0.3000 
    180 H180        3.7192   -8.8584  -43.6699 H         1 UNK         0.0600 
    181 H181        5.3323  -10.7149  -45.5032 H         1 UNK         0.0600 
    182 H182        6.0125   -9.5145  -44.4115 H         1 UNK         0.0600 
    183 H183        5.0346   -8.9971  -45.7748 H         1 UNK         0.0600 
    184 H184        2.9271  -10.4878  -45.9064 H         1 UNK         0.3000 
    185 H185       -0.4176  -10.9356  -45.1085 H         1 UNK         0.0600 
    186 H186       -0.6017   -8.5002  -45.6691 H         1 UNK         0.0600 
    187 H187        0.5514   -8.7107  -46.9825 H         1 UNK         0.0600 
    188 H188       -1.0194   -9.5101  -47.0439 H         1 UNK         0.0600 
    189 H189        0.8413  -11.0966  -47.6386 H         1 UNK         0.3000 
    190 H190       -0.9368  -21.0645  -46.2886 H         1 UNK         0.3000 
    191 H191       -2.1583  -22.1022  -48.6058 H         1 UNK         0.0600 
    192 H192       -2.8288  -19.9718  -47.5640 H         1 UNK         0.0600 
    193 H193       -4.2209  -21.0393  -47.6730 H         1 UNK         0.0600 
    194 H194       -3.4083  -20.8124  -46.1265 H         1 UNK         0.0600 
    195 H195       -2.3864  -23.2079  -45.1916 H         1 UNK         0.3000 
    196 H196       -4.3214  -25.2466  -45.6185 H         1 UNK         0.0600 
    197 H197       -3.4886  -26.1374  -43.4410 H         1 UNK         0.0600 
    198 H198       -3.7555  -24.4025  -43.3672 H         1 UNK         0.0600 
    199 H199       -2.1178  -25.0373  -43.5007 H         1 UNK         0.0600 
    200 H200       -0.7200  -25.3693  -45.6901 H         1 UNK         0.3000 
    201 H201       -0.4860  -28.1297  -46.3273 H         1 UNK         0.0600 
    202 H202        1.3795  -26.7888  -45.4051 H         1 UNK         0.0600 
    203 H203        1.4322  -25.7995  -46.8617 H         1 UNK         0.0600 
    204 H204        1.8560  -27.5057  -46.9373 H         1 UNK         0.0600 
    205 H205       -0.7636  -25.2449  -48.4091 H         1 UNK         0.3000 
    206 H206       -0.5232  -26.6341  -50.9191 H         1 UNK         0.0600 
    207 H207       -0.0100  -24.2075  -50.6072 H         1 UNK         0.0600 
    208 H208       -1.2283  -24.4405  -51.8477 H         1 UNK         0.0600 
    209 H209       -1.7062  -23.8855  -50.2486 H         1 UNK         0.0600 
    210 H210       -3.0552  -26.6061  -48.6676 H         1 UNK         0.3000 
    211 H211       -5.1873  -27.1598  -48.5780 H         1 UNK         0.0600 
    212 H212       -4.8019  -28.5304  -51.2946 H         1 UNK         0.0600 
    213 H213       -6.1058  -28.8246  -50.1535 H         1 UNK         0.0600 
    214 H214       -4.4578  -29.2558  -49.7251 H         1 UNK         0.0600 
    215 H215       -4.7523  -24.6486  -49.1628 H         1 UNK         0.3000 
    216 H216       -5.6415  -22.7367  -49.6569 H         1 UNK         0.0600 
    217 H217       -7.9562  -22.4651  -50.4535 H         1 UNK         0.0600 
    218 H218       -7.8941  -23.7067  -49.2121 H         1 UNK         0.0600 
    219 H219       -8.0490  -24.1575  -50.9104 H         1 UNK         0.0600 
    220 H220       -5.6084  -24.9822  -52.3374 H         1 UNK         0.3000 
    221 H221       -4.8631  -24.9943  -54.3882 H         1 UNK         0.0600 
    222 H222       -3.4858  -22.3356  -53.7643 H         1 UNK         0.0600 
    223 H223       -2.8021  -23.9496  -53.6072 H         1 UNK         0.0600 
    224 H224       -3.1947  -23.3109  -55.1953 H         1 UNK         0.0600 
    225 H225       -6.3205  -21.8825  -53.6151 H         1 UNK         0.3000 
    226 H226       -7.8574  -20.5897  -54.5282 H         1 UNK         0.0600 
    227 H227       -9.1770  -22.7559  -54.6738 H         1 UNK         0.0600 
    228 H228       -9.6789  -21.5568  -55.8461 H         1 UNK         0.0600 
    229 H229       -8.6772  -22.9115  -56.3556 H         1 UNK         0.0600 
    230 H230       -8.8768  -20.2765  -57.1412 H         1 UNK         0.3000 
    231 H231       -8.5683  -18.9924  -58.9207 H         1 UNK         0.0600 
    232 H232       -5.9701  -20.5911  -59.3021 H         1 UNK         0.0600 
    233 H233       -6.7685  -19.6124  -60.5330 H         1 UNK         0.0600 
    234 H234       -7.5637  -21.0366  -59.8924 H         1 UNK         0.0600 
    235 H235       -5.2226  -18.6526  -59.2250 H         1 UNK         0.3000 
    236 H236       -5.1346  -15.8999  -58.5074 H         1 UNK         0.0600 
    237 H237       -3.6391  -16.9186  -60.2065 H         1 UNK         0.0600 
    238 H238       -2.6853  -16.1733  -58.9344 H         1 UNK         0.0600 
    239 H239       -2.8759  -17.9220  -58.9719 H         1 UNK         0.0600 
    240 H240       -4.7405  -18.7814  -56.5604 H         1 UNK         0.3000 
    241 H241       -3.4959  -17.3387  -54.3226 H         1 UNK         0.0600 
    242 H242       -6.6958  -17.3600  -55.4601 H         1 UNK         0.3800 
    243 H243       -7.4444  -17.1471  -53.8991 H         1 UNK         0.3800 
    244 H244       -4.3636  -20.0410  -53.5974 H         1 UNK         0.0800 
    245 H245       -3.5783  -20.1282  -55.1320 H         1 UNK         0.0800 
    246 H246       -3.2830  -19.1711  -51.4180 H         1 UNK         0.0800 
    247 H247       -2.7471  -20.8210  -51.6444 H         1 UNK         0.0800 
@<TRIPOS>BOND
     1    1    2 1    
     2    1  127 1    
     3    1  128 1    
     4    1  129 1    
     5    2    3 2    
     6    2    4 am   BACKBONE|DICT|INTERRES
     7    4    5 1    
     8    4  130 1    
     9    5    6 1    
    10    5   65 1    
    11    5  131 1    
    12    6    7 1    
    13    6  132 1    
    14    6  133 1    
    15    7    8 1    
    16    8    9 1    
    17    8  134 1    
    18    8  135 1    
    19    9   10 ar   
    20    9   14 ar   
    21   10   11 ar   
    22   10  136 1    
    23   11   12 ar   
    24   11  126 1    
    25   12   13 ar   
    26   12  137 1    
    27   13   14 ar   
    28   13   15 1    
    29   14  138 1    
    30   15   16 1    
    31   15  139 1    
    32   15  140 1    
    33   16   17 1    
    34   17   18 1    
    35   17  141 1    
    36   17  142 1    
    37   18   19 1    
    38   18   67 1    
    39   18  143 1    
    40   19   20 am   BACKBONE|DICT|INTERRES
    41   19  144 1    
    42   20   21 2    
    43   20   22 1    
    44   22   23 1    
    45   22   24 1    
    46   22  145 1    
    47   23  146 1    
    48   23  147 1    
    49   23  148 1    
    50   24   25 am   BACKBONE|DICT|INTERRES
    51   24  149 1    
    52   25   26 2    
    53   25   27 1    
    54   27   28 1    
    55   27   29 1    
    56   27  150 1    
    57   28  151 1    
    58   28  152 1    
    59   28  153 1    
    60   29   30 am   BACKBONE|DICT|INTERRES
    61   29  154 1    
    62   30   31 2    
    63   30   32 1    
    64   32   33 1    
    65   32   34 1    
    66   32  155 1    
    67   33  156 1    
    68   33  157 1    
    69   33  158 1    
    70   34   35 am   BACKBONE|DICT|INTERRES
    71   34  159 1    
    72   35   36 2    
    73   35   37 1    
    74   37   38 1    
    75   37   39 1    
    76   37  160 1    
    77   38  161 1    
    78   38  162 1    
    79   38  163 1    
    80   39   40 am   BACKBONE|DICT|INTERRES
    81   39  164 1    
    82   40   41 2    
    83   40   42 1    
    84   42   43 1    
    85   42   44 1    
    86   42  165 1    
    87   43  166 1    
    88   43  167 1    
    89   43  168 1    
    90   44   45 am   BACKBONE|DICT|INTERRES
    91   44  169 1    
    92   45   46 2    
    93   45   47 1    
    94   47   48 1    
    95   47   49 1    
    96   47  170 1    
    97   48  171 1    
    98   48  172 1    
    99   48  173 1    
   100   49   50 am   BACKBONE|DICT|INTERRES
   101   49  174 1    
   102   50   51 2    
   103   50   52 1    
   104   52   53 1    
   105   52   54 1    
   106   52  175 1    
   107   53  176 1    
   108   53  177 1    
   109   53  178 1    
   110   54   55 am   BACKBONE|DICT|INTERRES
   111   54  179 1    
   112   55   56 2    
   113   55   57 1    
   114   57   58 1    
   115   57   59 1    
   116   57  180 1    
   117   58  181 1    
   118   58  182 1    
   119   58  183 1    
   120   59   60 am   BACKBONE|DICT|INTERRES
   121   59  184 1    
   122   60   61 2    
   123   60   62 1    
   124   62   63 1    
   125   62   64 1    
   126   62  185 1    
   127   63  186 1    
   128   63  187 1    
   129   63  188 1    
   130   64   65 am   BACKBONE|DICT|INTERRES
   131   64  189 1    
   132   65   66 2    
   133   67   68 2    
   134   67   69 am   BACKBONE|DICT|INTERRES
   135   69   70 1    
   136   69  190 1    
   137   70   71 1    
   138   70   72 1    
   139   70  191 1    
   140   71  192 1    
   141   71  193 1    
   142   71  194 1    
   143   72   73 2    
   144   72   74 am   BACKBONE|DICT|INTERRES
   145   74   75 1    
   146   74  195 1    
   147   75   76 1    
   148   75   77 1    
   149   75  196 1    
   150   76  197 1    
   151   76  198 1    
   152   76  199 1    
   153   77   78 2    
   154   77   79 am   BACKBONE|DICT|INTERRES
   155   79   80 1    
   156   79  200 1    
   157   80   81 1    
   158   80   82 1    
   159   80  201 1    
   160   81  202 1    
   161   81  203 1    
   162   81  204 1    
   163   82   83 2    
   164   82   84 am   BACKBONE|DICT|INTERRES
   165   84   85 1    
   166   84  205 1    
   167   85   86 1    
   168   85   87 1    
   169   85  206 1    
   170   86  207 1    
   171   86  208 1    
   172   86  209 1    
   173   87   88 2    
   174   87   89 am   BACKBONE|DICT|INTERRES
   175   89   90 1    
   176   89  210 1    
   177   90   91 1    
   178   90   92 1    
   179   90  211 1    
   180   91  212 1    
   181   91  213 1    
   182   91  214 1    
   183   92   93 2    
   184   92   94 am   BACKBONE|DICT|INTERRES
   185   94   95 1    
   186   94  215 1    
   187   95   96 1    
   188   95   97 1    
   189   95  216 1    
   190   96  217 1    
   191   96  218 1    
   192   96  219 1    
   193   97   98 2    
   194   97   99 am   BACKBONE|DICT|INTERRES
   195   99  100 1    
   196   99  220 1    
   197  100  101 1    
   198  100  102 1    
   199  100  221 1    
   200  101  222 1    
   201  101  223 1    
   202  101  224 1    
   203  102  103 2    
   204  102  104 am   BACKBONE|DICT|INTERRES
   205  104  105 1    
   206  104  225 1    
   207  105  106 1    
   208  105  107 1    
   209  105  226 1    
   210  106  227 1    
   211  106  228 1    
   212  106  229 1    
   213  107  108 2    
   214  107  109 am   BACKBONE|DICT|INTERRES
   215  109  110 1    
   216  109  230 1    
   217  110  111 1    
   218  110  112 1    
   219  110  231 1    
   220  111  232 1    
   221  111  233 1    
   222  111  234 1    
   223  112  113 2    
   224  112  114 am   BACKBONE|DICT|INTERRES
   225  114  115 1    
   226  114  235 1    
   227  115  116 1    
   228  115  117 1    
   229  115  236 1    
   230  116  237 1    
   231  116  238 1    
   232  116  239 1    
   233  117  118 2    
   234  117  119 am   BACKBONE|DICT|INTERRES
   235  119  120 1    
   236  119  240 1    
   237  120  121 1    
   238  120  124 1    
   239  120  241 1    
   240  121  122 am   BACKBONE|DICT|INTERRES
   241  121  123 2    
   242  122  242 1    
   243  122  243 1    
   244  124  125 1    
   245  124  244 1    
   246  124  245 1    
   247  125  126 1    
   248  126  246 1    
   249  126  247 1    
@<TRIPOS>SUBSTRUCTURE
     1 UNK         1 GROUP             0       ****    0 ROOT    
