@<TRIPOS>MOLECULE
3R540
247   249    1
SMALL
USER_CHARGES


@<TRIPOS>ATOM
      1 CA         -1.4593  -15.5946  -52.4889 C.3       0 UNK        -0.1800 
      2 C           0.0193  -15.3658  -52.7630 C.2       0 UNK         0.5000 
      3 O           0.3820  -14.3597  -53.3723 O.2       0 UNK        -0.5000 
      4 N           0.8739  -16.2959  -52.3187 N.am      1 UNK        -0.5000 
      5 CA          2.3332  -16.2613  -52.5049 C.3       1 UNK         0.1400 
      6 C6          3.0118  -17.6545  -52.3480 C.3       23 UNK        -0.0398 
      7 S7          1.9948  -19.0661  -52.9203 S.3       23 UNK        -0.2404 
      8 C8          1.7686  -20.0613  -51.4031 C.3       23 UNK        -0.0205 
      9 C9          1.4158  -19.2373  -50.1700 C.ar      23 UNK        -0.0193 
     10 C10         0.1926  -18.5687  -50.0838 C.ar      23 UNK        -0.1150 
     11 C11        -0.1254  -17.7941  -48.9597 C.ar      23 UNK        -0.0193 
     12 C12         0.7999  -17.7083  -47.9138 C.ar      23 UNK        -0.1150 
     13 C13         2.0221  -18.3834  -47.9810 C.ar      23 UNK        -0.0193 
     14 C14         2.3248  -19.1410  -49.1137 C.ar      23 UNK        -0.1150 
     15 C15         3.0263  -18.2705  -46.8435 C.3       23 UNK        -0.0205 
     16 S16         2.6991  -19.4625  -45.5097 S.3       23 UNK        -0.2404 
     17 C17         3.3709  -21.0242  -46.1797 C.3       23 UNK        -0.0398 
     18 CA          2.3899  -22.2243  -46.1612 C.3       11 UNK         0.1400 
     19 N           1.9790  -22.6138  -44.8046 N.am      11 UNK        -0.5000 
     20 C           1.4523  -23.8108  -44.5002 C.2       10 UNK         0.5000 
     21 O           1.0407  -24.6075  -45.3438 O.2       10 UNK        -0.5000 
     22 CA          1.3974  -24.2003  -43.0135 C.3       10 UNK         0.1400 
     23 CB          2.7969  -24.1833  -42.3751 C.3       10 UNK        -0.1800 
     24 N           0.5241  -23.2880  -42.2904 N.am      10 UNK        -0.5000 
     25 C          -0.6754  -23.6035  -41.7840 C.2       9 UNK         0.5000 
     26 O          -1.1129  -24.7529  -41.7229 O.2       9 UNK        -0.5000 
     27 CA         -1.5559  -22.4399  -41.2752 C.3       9 UNK         0.1400 
     28 CB         -1.5056  -22.3577  -39.7420 C.3       9 UNK        -0.1800 
     29 N          -1.1992  -21.1298  -41.8261 N.am      9 UNK        -0.5000 
     30 C          -1.1636  -20.8162  -43.1289 C.2       8 UNK         0.5000 
     31 O          -1.5008  -21.5870  -44.0274 O.2       8 UNK        -0.5000 
     32 CA         -0.5642  -19.4473  -43.4990 C.3       8 UNK         0.1400 
     33 CB         -1.6793  -18.4070  -43.6810 C.3       8 UNK        -0.1800 
     34 N           0.4345  -18.9416  -42.5482 N.am      8 UNK        -0.5000 
     35 C           1.5441  -19.5864  -42.1446 C.2       7 UNK         0.5000 
     36 O           1.8399  -20.7235  -42.5181 O.2       7 UNK        -0.5000 
     37 CA          2.4859  -18.8649  -41.1571 C.3       7 UNK         0.1400 
     38 CB          3.7416  -18.3727  -41.8927 C.3       7 UNK        -0.1800 
     39 N           1.8750  -17.7315  -40.4606 N.am      7 UNK        -0.5000 
     40 C           0.8642  -17.8060  -39.5836 C.2       6 UNK         0.5000 
     41 O           0.3853  -18.8695  -39.1874 O.2       6 UNK        -0.5000 
     42 CA          0.2542  -16.4695  -39.1012 C.3       6 UNK         0.1400 
     43 CB          0.7915  -16.1115  -37.7071 C.3       6 UNK        -0.1800 
     44 N           0.4564  -15.3191  -39.9975 N.am      6 UNK        -0.5000 
     45 C           0.1125  -15.2647  -41.2928 C.2       5 UNK         0.5000 
     46 O          -0.3657  -16.2274  -41.8937 O.2       5 UNK        -0.5000 
     47 CA          0.3875  -13.9392  -42.0396 C.3       5 UNK         0.1400 
     48 CB          1.8539  -13.4967  -41.8827 C.3       5 UNK        -0.1800 
     49 N           0.0979  -14.0462  -43.4714 N.am      5 UNK        -0.5000 
     50 C          -1.1227  -14.1209  -44.0193 C.2       4 UNK         0.5000 
     51 O          -2.1710  -13.9616  -43.3903 O.2       4 UNK        -0.5000 
     52 CA         -1.1447  -14.4268  -45.5313 C.3       4 UNK         0.1400 
     53 CB         -2.5647  -14.4528  -46.1369 C.3       4 UNK        -0.1800 
     54 N          -0.2599  -13.5339  -46.2891 N.am      4 UNK        -0.5000 
     55 C          -0.3844  -12.2064  -46.4418 C.2       3 UNK         0.5000 
     56 O          -1.2950  -11.5439  -45.9429 O.2       3 UNK        -0.5000 
     57 CA          0.6872  -11.4759  -47.2840 C.3       3 UNK         0.1400 
     58 CB          1.4190  -10.4265  -46.4298 C.3       3 UNK        -0.1800 
     59 N           1.6958  -12.3360  -47.9147 N.am      3 UNK        -0.5000 
     60 C           1.4826  -13.2002  -48.9147 C.2       2 UNK         0.5000 
     61 O           0.3683  -13.4376  -49.3888 O.2       2 UNK        -0.5000 
     62 CA          2.7246  -13.9326  -49.4515 C.3       2 UNK         0.1400 
     63 CB          3.4526  -14.7153  -48.3431 C.3       2 UNK        -0.1800 
     64 N           2.3062  -14.8602  -50.4918 N.am      2 UNK        -0.5000 
     65 C           3.0109  -15.2408  -51.5626 C.2       1 UNK         0.5000 
     66 O           4.1499  -14.8425  -51.8107 O.2       1 UNK        -0.5000 
     67 C           1.2216  -22.0477  -47.1511 C.2       11 UNK         0.5000 
     68 O           1.3421  -22.4718  -48.3014 O.2       11 UNK        -0.5000 
     69 N           0.1108  -21.4582  -46.6893 N.am      12 UNK        -0.5000 
     70 CA         -1.0951  -21.2825  -47.4953 C.3       12 UNK         0.1400 
     71 CB         -1.9597  -20.1438  -46.9348 C.3       12 UNK        -0.1800 
     72 C          -1.8905  -22.5916  -47.5527 C.2       12 UNK         0.5000 
     73 O          -2.3386  -22.9783  -48.6301 O.2       12 UNK        -0.5000 
     74 N          -2.0229  -23.2667  -46.4022 N.am      13 UNK        -0.5000 
     75 CA         -2.7326  -24.5366  -46.2396 C.3       13 UNK         0.1400 
     76 CB         -2.6651  -24.9698  -44.7688 C.3       13 UNK        -0.1800 
     77 C          -2.2106  -25.6524  -47.1635 C.2       13 UNK         0.5000 
     78 O          -3.0116  -26.3251  -47.8138 O.2       13 UNK        -0.5000 
     79 N          -0.8796  -25.7841  -47.2574 N.am      14 UNK        -0.5000 
     80 CA         -0.1950  -26.7314  -48.1421 C.3       14 UNK         0.1400 
     81 CB          1.3014  -26.7457  -47.7950 C.3       14 UNK        -0.1800 
     82 C          -0.3900  -26.4389  -49.6444 C.2       14 UNK         0.5000 
     83 O          -0.2680  -27.3549  -50.4583 O.2       14 UNK        -0.5000 
     84 N          -0.6916  -25.1798  -49.9835 N.am      15 UNK        -0.5000 
     85 CA         -0.9171  -24.6989  -51.3455 C.3       15 UNK         0.1400 
     86 CB         -0.2485  -23.3201  -51.4793 C.3       15 UNK        -0.1800 
     87 C          -2.4137  -24.6119  -51.7061 C.2       15 UNK         0.5000 
     88 O          -2.7328  -24.1224  -52.7903 O.2       15 UNK        -0.5000 
     89 N          -3.3076  -25.0264  -50.7925 N.am      16 UNK        -0.5000 
     90 CA         -4.7700  -24.8952  -50.8691 C.3       16 UNK         0.1400 
     91 CB         -5.3471  -25.8039  -51.9741 C.3       16 UNK        -0.1800 
     92 C          -5.2108  -23.4211  -51.0073 C.2       16 UNK         0.5000 
     93 O          -6.0337  -23.0840  -51.8623 O.2       16 UNK        -0.5000 
     94 N          -4.5827  -22.5571  -50.1967 N.am      17 UNK        -0.5000 
     95 CA         -4.6794  -21.0953  -50.1988 C.3       17 UNK         0.1400 
     96 CB         -6.0829  -20.6360  -49.7542 C.3       17 UNK        -0.1800 
     97 C          -4.2211  -20.4724  -51.5329 C.2       17 UNK         0.5000 
     98 O          -4.7602  -19.4452  -51.9456 O.2       17 UNK        -0.5000 
     99 N          -3.2554  -21.1293  -52.1952 N.am      18 UNK        -0.5000 
    100 CA        -2.7403  -20.8319  -53.5359 C.3       18 UNK         0.1400 
    101 CB        -1.9059  -19.5357  -53.5220 C.3       18 UNK        -0.1800 
    102 C         -3.8562  -20.8532  -54.6024 C.2       18 UNK         0.5000 
    103 O         -3.9151  -19.9723  -55.4600 O.2       18 UNK        -0.5000 
    104 N         -4.7404  -21.8572  -54.4896 N.am      19 UNK        -0.5000 
    105 CA        -5.9953  -22.0257  -55.2292 C.3       19 UNK         0.1400 
    106 CB        -5.7352  -22.2494  -56.7339 C.3       19 UNK        -0.1800 
    107 C         -6.9914  -20.8826  -54.9365 C.2       19 UNK         0.5000 
    108 O         -7.5705  -20.3078  -55.8602 O.2       19 UNK        -0.5000 
    109 N         -7.1590  -20.5831  -53.6392 N.am      20 UNK        -0.5000 
    110 CA        -8.0106  -19.5328  -53.0662 C.3       20 UNK         0.1400 
    111 CB        -9.5018  -19.8658  -53.2814 C.3       20 UNK        -0.1800 
    112 C         -7.6320  -18.1064  -53.5256 C.2       20 UNK         0.5000 
    113 O         -8.5136  -17.2898  -53.8013 O.2       20 UNK        -0.5000 
    114 N         -6.3240  -17.8323  -53.5901 N.am      21 UNK        -0.5000 
    115 CA        -5.7532  -16.5300  -53.9312 C.3       21 UNK         0.1400 
    116 CB        -4.5592  -16.7328  -54.8749 C.3       21 UNK        -0.1800 
    117 C         -5.3239  -15.7338  -52.6849 C.2       21 UNK         0.5000 
    118 O         -5.2460  -14.5071  -52.7692 O.2       21 UNK        -0.5000 
    119 N         -5.0491  -16.4160  -51.5621 N.am      22 UNK        -0.5000 
    120 CA        -4.7081  -15.7886  -50.2715 C.3       22 UNK         0.1400 
    121 C         -5.8650  -14.9210  -49.6996 C.2       22 UNK         0.5000 
    122 N         -5.5593  -13.7641  -49.1277 N.am      22 UNK        -0.7600 
    123 O         -7.0305  -15.3104  -49.7279 O.2       22 UNK        -0.5000 
    124 C124       -4.2620  -16.8230  -49.2076 C.3       23 UNK        -0.0398 
    125 S125       -2.8307  -17.8218  -49.7256 S.3       23 UNK        -0.2404 
    126 C126       -1.4434  -17.0266  -48.8508 C.3       23 UNK        -0.0205 
    127 H127       -1.6520  -16.6086  -52.1415 H         1 UNK         0.0600 
    128 H128       -2.0427  -15.4337  -53.3953 H         1 UNK         0.0600 
    129 H129       -1.8091  -14.8974  -51.7282 H         1 UNK         0.0600 
    130 H130        0.5265  -17.1136  -51.8384 H         1 UNK         0.3000 
    131 H131        2.5191  -15.9244  -53.5270 H         1 UNK         0.0600 
    132 H132        3.9404  -17.6651  -52.9207 H         1 UNK         0.0800 
    133 H133        3.3228  -17.8310  -51.3186 H         1 UNK         0.0800 
    134 H134        2.6757  -20.6418  -51.2281 H         1 UNK         0.0800 
    135 H135        0.9757  -20.7871  -51.5793 H         1 UNK         0.0800 
    136 H136       -0.5062  -18.6516  -50.9017 H         1 UNK         0.1150 
    137 H137        0.5699  -17.1165  -47.0396 H         1 UNK         0.1150 
    138 H138        3.2739  -19.6533  -49.1772 H         1 UNK         0.1150 
    139 H139        4.0456  -18.3952  -47.2121 H         1 UNK         0.0800 
    140 H140        2.9825  -17.2681  -46.4171 H         1 UNK         0.0800 
    141 H141        3.7420  -20.8632  -47.1921 H         1 UNK         0.0800 
    142 H142        4.2534  -21.2758  -45.5903 H         1 UNK         0.0800 
    143 H143        2.9611  -23.0726  -46.5459 H         1 UNK         0.0600 
    144 H144        2.2194  -21.9709  -44.0564 H         1 UNK         0.3000 
    145 H145        1.0191  -25.2232  -42.9581 H         1 UNK         0.0600 
    146 H146        2.7611  -24.5524  -41.3501 H         1 UNK         0.0600 
    147 H147        3.2255  -23.1808  -42.3502 H         1 UNK         0.0600 
    148 H148        3.4861  -24.8236  -42.9272 H         1 UNK         0.0600 
    149 H149        0.8066  -22.3121  -42.2994 H         1 UNK         0.3000 
    150 H150       -2.5825  -22.6555  -41.5774 H         1 UNK         0.0600 
    151 H151       -1.7889  -23.3084  -39.2885 H         1 UNK         0.0600 
    152 H152       -2.1934  -21.6009  -39.3641 H         1 UNK         0.0600 
    153 H153       -0.5047  -22.1084  -39.3870 H         1 UNK         0.0600 
    154 H154       -0.8738  -20.4381  -41.1651 H         1 UNK         0.3000 
    155 H155       -0.0614  -19.5677  -44.4586 H         1 UNK         0.0600 
    156 H156       -2.4637  -18.7699  -44.3449 H         1 UNK         0.0600 
    157 H157       -1.2899  -17.4873  -44.1171 H         1 UNK         0.0600 
    158 H158       -2.1506  -18.1557  -42.7302 H         1 UNK         0.0600 
    159 H159        0.2655  -18.0015  -42.1993 H         1 UNK         0.3000 
    160 H160        2.7907  -19.5973  -40.4070 H         1 UNK         0.0600 
    161 H161        3.4967  -17.6252  -42.6485 H         1 UNK         0.0600 
    162 H162        4.2457  -19.1963  -42.4006 H         1 UNK         0.0600 
    163 H163        4.4590  -17.9315  -41.2007 H         1 UNK         0.0600 
    164 H164        2.1952  -16.8136  -40.7301 H         1 UNK         0.3000 
    165 H165       -0.8231  -16.6267  -39.0200 H         1 UNK         0.0600 
    166 H166        0.2856  -15.2354  -37.3009 H         1 UNK         0.0600 
    167 H167        0.6331  -16.9301  -37.0035 H         1 UNK         0.0600 
    168 H168        1.8617  -15.9020  -37.7313 H         1 UNK         0.0600 
    169 H169        0.8580  -14.4963  -39.5717 H         1 UNK         0.3000 
    170 H170       -0.2599  -13.1725  -41.6096 H         1 UNK         0.0600 
    171 H171        2.5455  -14.2602  -42.2418 H         1 UNK         0.0600 
    172 H172        2.0495  -12.5810  -42.4413 H         1 UNK         0.0600 
    173 H173        2.1025  -13.2898  -40.8414 H         1 UNK         0.0600 
    174 H174        0.8949  -14.1927  -44.0718 H         1 UNK         0.3000 
    175 H175       -0.7311  -15.4300  -45.6433 H         1 UNK         0.0600 
    176 H176       -3.0974  -13.5163  -45.9701 H         1 UNK         0.0600 
    177 H177       -2.5319  -14.6279  -47.2116 H         1 UNK         0.0600 
    178 H178       -3.1612  -15.2500  -45.6920 H         1 UNK         0.0600 
    179 H179        0.5235  -13.9727  -46.7490 H         1 UNK         0.3000 
    180 H180        0.1546  -10.9523  -48.0805 H         1 UNK         0.0600 
    181 H181        1.9760  -10.8906  -45.6148 H         1 UNK         0.0600 
    182 H182        0.7175   -9.7190  -45.9858 H         1 UNK         0.0600 
    183 H183        2.1204   -9.8468  -47.0302 H         1 UNK         0.0600 
    184 H184        2.6404  -12.2161  -47.5783 H         1 UNK         0.3000 
    185 H185        3.3963  -13.1844  -49.8771 H         1 UNK         0.0600 
    186 H186        2.7744  -15.3996  -47.8348 H         1 UNK         0.0600 
    187 H187        4.2771  -15.3028  -48.7475 H         1 UNK         0.0600 
    188 H188        3.8744  -14.0478  -47.5913 H         1 UNK         0.0600 
    189 H189        1.3449  -15.1659  -50.4146 H         1 UNK         0.3000 
    190 H190        0.0609  -21.2011  -45.7149 H         1 UNK         0.3000 
    191 H191       -0.8023  -21.0083  -48.5116 H         1 UNK         0.0600 
    192 H192       -1.3653  -19.2570  -46.7201 H         1 UNK         0.0600 
    193 H193       -2.4833  -20.4296  -46.0251 H         1 UNK         0.0600 
    194 H194       -2.7258  -19.8570  -47.6525 H         1 UNK         0.0600 
    195 H195       -1.6568  -22.8412  -45.5561 H         1 UNK         0.3000 
    196 H196       -3.7789  -24.3584  -46.4952 H         1 UNK         0.0600 
    197 H197       -3.0917  -24.2107  -44.1127 H         1 UNK         0.0600 
    198 H198       -1.6371  -25.1459  -44.4503 H         1 UNK         0.0600 
    199 H199       -3.2224  -25.8929  -44.6056 H         1 UNK         0.0600 
    200 H200       -0.2852  -25.2076  -46.6672 H         1 UNK         0.3000 
    201 H201       -0.6011  -27.7261  -47.9475 H         1 UNK         0.0600 
    202 H202        1.4625  -27.0432  -46.7587 H         1 UNK         0.0600 
    203 H203        1.7536  -25.7628  -47.9353 H         1 UNK         0.0600 
    204 H204        1.8448  -27.4522  -48.4236 H         1 UNK         0.0600 
    205 H205       -0.8095  -24.4942  -49.2482 H         1 UNK         0.3000 
    206 H206       -0.4488  -25.3738  -52.0646 H         1 UNK         0.0600 
    207 H207        0.8106  -23.3716  -51.2257 H         1 UNK         0.0600 
    208 H208       -0.7096  -22.5812  -50.8228 H         1 UNK         0.0600 
    209 H209       -0.3164  -22.9438  -52.5005 H         1 UNK         0.0600 
    210 H210       -2.9501  -25.3939  -49.9194 H         1 UNK         0.3000 
    211 H211       -5.1618  -25.2451  -49.9130 H         1 UNK         0.0600 
    212 H212       -5.0365  -25.4847  -52.9693 H         1 UNK         0.0600 
    213 H213       -6.4374  -25.7948  -51.9551 H         1 UNK         0.0600 
    214 H214       -5.0290  -26.8376  -51.8391 H         1 UNK         0.0600 
    215 H215       -3.8624  -22.9251  -49.5765 H         1 UNK         0.3000 
    216 H216       -3.9686  -20.7413  -49.4529 H         1 UNK         0.0600 
    217 H217       -6.1528  -19.5489  -49.7160 H         1 UNK         0.0600 
    218 H218       -6.3148  -21.0082  -48.7565 H         1 UNK         0.0600 
    219 H219       -6.8607  -20.9920  -50.4283 H         1 UNK         0.0600 
    220 H220       -2.9229  -21.9936  -51.7926 H         1 UNK         0.3000 
    221 H221       -2.0657  -21.6465  -53.8017 H         1 UNK         0.0600 
    222 H222       -2.4744  -18.6885  -53.1425 H         1 UNK         0.0600 
    223 H223       -1.0282  -19.6554  -52.8900 H         1 UNK         0.0600 
    224 H224       -1.5474  -19.2782  -54.5191 H         1 UNK         0.0600 
    225 H225       -4.5957  -22.5188  -53.7371 H         1 UNK         0.3000 
    226 H226       -6.4552  -22.9354  -54.8400 H         1 UNK         0.0600 
    227 H227       -5.0334  -23.0677  -56.8949 H         1 UNK         0.0600 
    228 H228       -6.6590  -22.5075  -57.2527 H         1 UNK         0.0600 
    229 H229       -5.3302  -21.3596  -57.2162 H         1 UNK         0.0600 
    230 H230       -6.6308  -21.1276  -52.9687 H         1 UNK         0.3000 
    231 H231       -7.8300  -19.5478  -51.9916 H         1 UNK         0.0600 
    232 H232      -10.1409  -19.1641  -52.7443 H         1 UNK         0.0600 
    233 H233       -9.7391  -20.8642  -52.9142 H         1 UNK         0.0600 
    234 H234       -9.7796  -19.8204  -54.3348 H         1 UNK         0.0600 
    235 H235       -5.6701  -18.5453  -53.2751 H         1 UNK         0.3000 
    236 H236       -6.4932  -15.9280  -54.4624 H         1 UNK         0.0600 
    237 H237       -4.1342  -15.7761  -55.1808 H         1 UNK         0.0600 
    238 H238       -3.7655  -17.3073  -54.4006 H         1 UNK         0.0600 
    239 H239       -4.8586  -17.2615  -55.7800 H         1 UNK         0.0600 
    240 H240       -5.0919  -17.4284  -51.5757 H         1 UNK         0.3000 
    241 H241       -3.8614  -15.1263  -50.4596 H         1 UNK         0.0600 
    242 H242       -6.3008  -13.2017  -48.7398 H         1 UNK         0.3800 
    243 H243       -4.6122  -13.4211  -49.0938 H         1 UNK         0.3800 
    244 H244       -5.0810  -17.5078  -48.9836 H         1 UNK         0.0800 
    245 H245       -4.0227  -16.3284  -48.2652 H         1 UNK         0.0800 
    246 H246       -1.7159  -16.9253  -47.7997 H         1 UNK         0.0800 
    247 H247       -1.3006  -16.0182  -49.2415 H         1 UNK         0.0800 
@<TRIPOS>BOND
     1    1    2 1    
     2    1  127 1    
     3    1  128 1    
     4    1  129 1    
     5    2    3 2    
     6    2    4 am   BACKBONE|DICT|INTERRES
     7    4    5 1    
     8    4  130 1    
     9    5    6 1    
    10    5   65 1    
    11    5  131 1    
    12    6    7 1    
    13    6  132 1    
    14    6  133 1    
    15    7    8 1    
    16    8    9 1    
    17    8  134 1    
    18    8  135 1    
    19    9   10 ar   
    20    9   14 ar   
    21   10   11 ar   
    22   10  136 1    
    23   11   12 ar   
    24   11  126 1    
    25   12   13 ar   
    26   12  137 1    
    27   13   14 ar   
    28   13   15 1    
    29   14  138 1    
    30   15   16 1    
    31   15  139 1    
    32   15  140 1    
    33   16   17 1    
    34   17   18 1    
    35   17  141 1    
    36   17  142 1    
    37   18   19 1    
    38   18   67 1    
    39   18  143 1    
    40   19   20 am   BACKBONE|DICT|INTERRES
    41   19  144 1    
    42   20   21 2    
    43   20   22 1    
    44   22   23 1    
    45   22   24 1    
    46   22  145 1    
    47   23  146 1    
    48   23  147 1    
    49   23  148 1    
    50   24   25 am   BACKBONE|DICT|INTERRES
    51   24  149 1    
    52   25   26 2    
    53   25   27 1    
    54   27   28 1    
    55   27   29 1    
    56   27  150 1    
    57   28  151 1    
    58   28  152 1    
    59   28  153 1    
    60   29   30 am   BACKBONE|DICT|INTERRES
    61   29  154 1    
    62   30   31 2    
    63   30   32 1    
    64   32   33 1    
    65   32   34 1    
    66   32  155 1    
    67   33  156 1    
    68   33  157 1    
    69   33  158 1    
    70   34   35 am   BACKBONE|DICT|INTERRES
    71   34  159 1    
    72   35   36 2    
    73   35   37 1    
    74   37   38 1    
    75   37   39 1    
    76   37  160 1    
    77   38  161 1    
    78   38  162 1    
    79   38  163 1    
    80   39   40 am   BACKBONE|DICT|INTERRES
    81   39  164 1    
    82   40   41 2    
    83   40   42 1    
    84   42   43 1    
    85   42   44 1    
    86   42  165 1    
    87   43  166 1    
    88   43  167 1    
    89   43  168 1    
    90   44   45 am   BACKBONE|DICT|INTERRES
    91   44  169 1    
    92   45   46 2    
    93   45   47 1    
    94   47   48 1    
    95   47   49 1    
    96   47  170 1    
    97   48  171 1    
    98   48  172 1    
    99   48  173 1    
   100   49   50 am   BACKBONE|DICT|INTERRES
   101   49  174 1    
   102   50   51 2    
   103   50   52 1    
   104   52   53 1    
   105   52   54 1    
   106   52  175 1    
   107   53  176 1    
   108   53  177 1    
   109   53  178 1    
   110   54   55 am   BACKBONE|DICT|INTERRES
   111   54  179 1    
   112   55   56 2    
   113   55   57 1    
   114   57   58 1    
   115   57   59 1    
   116   57  180 1    
   117   58  181 1    
   118   58  182 1    
   119   58  183 1    
   120   59   60 am   BACKBONE|DICT|INTERRES
   121   59  184 1    
   122   60   61 2    
   123   60   62 1    
   124   62   63 1    
   125   62   64 1    
   126   62  185 1    
   127   63  186 1    
   128   63  187 1    
   129   63  188 1    
   130   64   65 am   BACKBONE|DICT|INTERRES
   131   64  189 1    
   132   65   66 2    
   133   67   68 2    
   134   67   69 am   BACKBONE|DICT|INTERRES
   135   69   70 1    
   136   69  190 1    
   137   70   71 1    
   138   70   72 1    
   139   70  191 1    
   140   71  192 1    
   141   71  193 1    
   142   71  194 1    
   143   72   73 2    
   144   72   74 am   BACKBONE|DICT|INTERRES
   145   74   75 1    
   146   74  195 1    
   147   75   76 1    
   148   75   77 1    
   149   75  196 1    
   150   76  197 1    
   151   76  198 1    
   152   76  199 1    
   153   77   78 2    
   154   77   79 am   BACKBONE|DICT|INTERRES
   155   79   80 1    
   156   79  200 1    
   157   80   81 1    
   158   80   82 1    
   159   80  201 1    
   160   81  202 1    
   161   81  203 1    
   162   81  204 1    
   163   82   83 2    
   164   82   84 am   BACKBONE|DICT|INTERRES
   165   84   85 1    
   166   84  205 1    
   167   85   86 1    
   168   85   87 1    
   169   85  206 1    
   170   86  207 1    
   171   86  208 1    
   172   86  209 1    
   173   87   88 2    
   174   87   89 am   BACKBONE|DICT|INTERRES
   175   89   90 1    
   176   89  210 1    
   177   90   91 1    
   178   90   92 1    
   179   90  211 1    
   180   91  212 1    
   181   91  213 1    
   182   91  214 1    
   183   92   93 2    
   184   92   94 am   BACKBONE|DICT|INTERRES
   185   94   95 1    
   186   94  215 1    
   187   95   96 1    
   188   95   97 1    
   189   95  216 1    
   190   96  217 1    
   191   96  218 1    
   192   96  219 1    
   193   97   98 2    
   194   97   99 am   BACKBONE|DICT|INTERRES
   195   99  100 1    
   196   99  220 1    
   197  100  101 1    
   198  100  102 1    
   199  100  221 1    
   200  101  222 1    
   201  101  223 1    
   202  101  224 1    
   203  102  103 2    
   204  102  104 am   BACKBONE|DICT|INTERRES
   205  104  105 1    
   206  104  225 1    
   207  105  106 1    
   208  105  107 1    
   209  105  226 1    
   210  106  227 1    
   211  106  228 1    
   212  106  229 1    
   213  107  108 2    
   214  107  109 am   BACKBONE|DICT|INTERRES
   215  109  110 1    
   216  109  230 1    
   217  110  111 1    
   218  110  112 1    
   219  110  231 1    
   220  111  232 1    
   221  111  233 1    
   222  111  234 1    
   223  112  113 2    
   224  112  114 am   BACKBONE|DICT|INTERRES
   225  114  115 1    
   226  114  235 1    
   227  115  116 1    
   228  115  117 1    
   229  115  236 1    
   230  116  237 1    
   231  116  238 1    
   232  116  239 1    
   233  117  118 2    
   234  117  119 am   BACKBONE|DICT|INTERRES
   235  119  120 1    
   236  119  240 1    
   237  120  121 1    
   238  120  124 1    
   239  120  241 1    
   240  121  122 am   BACKBONE|DICT|INTERRES
   241  121  123 2    
   242  122  242 1    
   243  122  243 1    
   244  124  125 1    
   245  124  244 1    
   246  124  245 1    
   247  125  126 1    
   248  126  246 1    
   249  126  247 1    
@<TRIPOS>SUBSTRUCTURE
     1 UNK         1 GROUP             0       ****    0 ROOT    
