@<TRIPOS>MOLECULE
3R540
247   249    1
SMALL
USER_CHARGES


@<TRIPOS>ATOM
      1 CA          8.3579  -13.7441  -51.8495 C.3       0 UNK        -0.1800 
      2 C           7.9221  -14.1059  -50.4364 C.2       0 UNK         0.5000 
      3 O           8.7692  -14.3652  -49.5807 O.2       0 UNK        -0.5000 
      4 N           6.6070  -14.1318  -50.1926 N.am      1 UNK        -0.5000 
      5 CA          6.0008  -14.3749  -48.8809 C.3       1 UNK         0.1400 
      6 C6          4.5514  -14.9160  -49.0160 C.3       23 UNK        -0.0398 
      7 S7          3.3707  -13.7569  -49.8007 S.3       23 UNK        -0.2404 
      8 C8          3.0957  -14.5253  -51.4269 C.3       23 UNK        -0.0205 
      9 C9          2.0912  -15.6654  -51.3548 C.ar      23 UNK        -0.0193 
     10 C10         0.7208  -15.3995  -51.4348 C.ar      23 UNK        -0.1150 
     11 C11        -0.2102  -16.4428  -51.4078 C.ar      23 UNK        -0.0193 
     12 C12         0.2431  -17.7614  -51.3026 C.ar      23 UNK        -0.1150 
     13 C13         1.6080  -18.0374  -51.1871 C.ar      23 UNK        -0.0193 
     14 C14         2.5276  -16.9865  -51.2276 C.ar      23 UNK        -0.1150 
     15 C15         2.0939  -19.4654  -51.0028 C.3       23 UNK        -0.0205 
     16 S16         2.0161  -19.9560  -49.2506 S.3       23 UNK        -0.2404 
     17 C17         0.2626  -20.4330  -49.0826 C.3       23 UNK        -0.0398 
     18 CA          0.1160  -21.7082  -48.2226 C.3       11 UNK         0.1400 
     19 N           0.2811  -21.4404  -46.7919 N.am      11 UNK        -0.5000 
     20 C           0.4083  -22.3904  -45.8556 C.2       10 UNK         0.5000 
     21 O           0.4592  -23.5947  -46.1063 O.2       10 UNK        -0.5000 
     22 CA          0.4226  -21.9222  -44.3897 C.3       10 UNK         0.1400 
     23 CB          1.8076  -21.3895  -43.9937 C.3       10 UNK        -0.1800 
     24 N          -0.6008  -20.9111  -44.1180 N.am      10 UNK        -0.5000 
     25 C          -1.9200  -21.1320  -44.2142 C.2       9 UNK         0.5000 
     26 O          -2.4074  -22.2286  -44.4854 O.2       9 UNK        -0.5000 
     27 CA         -2.8551  -19.9267  -44.0127 C.3       9 UNK         0.1400 
     28 CB         -3.1019  -19.6780  -42.5177 C.3       9 UNK        -0.1800 
     29 N          -2.3621  -18.7039  -44.6484 N.am      9 UNK        -0.5000 
     30 C          -2.1850  -18.5467  -45.9689 C.2       8 UNK         0.5000 
     31 O          -2.4482  -19.4144  -46.7998 O.2       8 UNK        -0.5000 
     32 CA         -1.5524  -17.2218  -46.4354 C.3       8 UNK         0.1400 
     33 CB         -2.5867  -16.0866  -46.4504 C.3       8 UNK        -0.1800 
     34 N          -0.4063  -16.8331  -45.6140 N.am      8 UNK        -0.5000 
     35 C           0.7147  -17.5585  -45.4906 C.2       7 UNK         0.5000 
     36 O           0.9249  -18.6081  -46.0983 O.2       7 UNK        -0.5000 
     37 CA          1.7415  -17.0587  -44.4612 C.3       7 UNK         0.1400 
     38 CB          2.5930  -15.9122  -45.0322 C.3       7 UNK        -0.1800 
     39 N           1.0916  -16.6329  -43.2200 N.am      7 UNK        -0.5000 
     40 C           0.5087  -17.4725  -42.3510 C.2       6 UNK         0.5000 
     41 O           0.4928  -18.6948  -42.4905 O.2       6 UNK        -0.5000 
     42 CA         -0.2053  -16.8417  -41.1408 C.3       6 UNK         0.1400 
     43 CB          0.7952  -16.5645  -40.0089 C.3       6 UNK        -0.1800 
     44 N          -0.9087  -15.6037  -41.4770 N.am      6 UNK        -0.5000 
     45 C          -1.9719  -15.5266  -42.2907 C.2       5 UNK         0.5000 
     46 O          -2.5044  -16.5036  -42.8130 O.2       5 UNK        -0.5000 
     47 CA         -2.4889  -14.1136  -42.6230 C.3       5 UNK         0.1400 
     48 CB         -3.5273  -13.6600  -41.5866 C.3       5 UNK        -0.1800 
     49 N          -1.4158  -13.1184  -42.7075 N.am      5 UNK        -0.5000 
     50 C          -0.4024  -13.1747  -43.5809 C.2       4 UNK         0.5000 
     51 O          -0.2807  -14.0642  -44.4285 O.2       4 UNK        -0.5000 
     52 CA          0.6947  -12.1107  -43.4150 C.3       4 UNK         0.1400 
     53 CB          1.6442  -12.5039  -42.2711 C.3       4 UNK        -0.1800 
     54 N           1.4823  -11.9778  -44.6348 N.am      4 UNK        -0.5000 
     55 C           1.1180  -11.2920  -45.7244 C.2       3 UNK         0.5000 
     56 O           0.0878  -10.6189  -45.7901 O.2       3 UNK        -0.5000 
     57 CA          2.0521  -11.3948  -46.9506 C.3       3 UNK         0.1400 
     58 CB          2.1591  -10.0687  -47.7312 C.3       3 UNK        -0.1800 
     59 N           3.3835  -11.9391  -46.6450 N.am      3 UNK        -0.5000 
     60 C           4.3541  -11.3899  -45.8955 C.2       2 UNK         0.5000 
     61 O           4.2573  -10.2978  -45.3357 O.2       2 UNK        -0.5000 
     62 CA          5.6449  -12.2179  -45.7102 C.3       2 UNK         0.1400 
     63 CB          5.6881  -12.8230  -44.2975 C.3       2 UNK        -0.1800 
     64 N           5.7894  -13.3009  -46.6889 N.am      2 UNK        -0.5000 
     65 C           6.0693  -13.1160  -47.9862 C.2       1 UNK         0.5000 
     66 O           6.3197  -12.0105  -48.4751 O.2       1 UNK        -0.5000 
     67 C          -1.2032  -22.4466  -48.5246 C.2       11 UNK         0.5000 
     68 O          -1.1851  -23.3935  -49.3087 O.2       11 UNK        -0.5000 
     69 N          -2.3075  -22.0468  -47.8784 N.am      12 UNK        -0.5000 
     70 CA         -3.6061  -22.7166  -47.9781 C.3       12 UNK         0.1400 
     71 CB         -4.6771  -21.8962  -47.2452 C.3       12 UNK        -0.1800 
     72 C          -3.5672  -24.1656  -47.4603 C.2       12 UNK         0.5000 
     73 O          -4.0998  -25.0595  -48.1170 O.2       12 UNK        -0.5000 
     74 N          -2.8976  -24.3863  -46.3202 N.am      13 UNK        -0.5000 
     75 CA         -2.6585  -25.7085  -45.7407 C.3       13 UNK         0.1400 
     76 CB         -2.0249  -25.5616  -44.3495 C.3       13 UNK        -0.1800 
     77 C          -1.7977  -26.6044  -46.6501 C.2       13 UNK         0.5000 
     78 O          -2.1551  -27.7626  -46.8689 O.2       13 UNK        -0.5000 
     79 N          -0.7159  -26.0422  -47.2099 N.am      14 UNK        -0.5000 
     80 CA          0.1580  -26.7032  -48.1848 C.3       14 UNK         0.1400 
     81 CB          1.3819  -25.8173  -48.4607 C.3       14 UNK        -0.1800 
     82 C          -0.5635  -27.0619  -49.4996 C.2       14 UNK         0.5000 
     83 O          -0.2714  -28.1015  -50.0908 O.2       14 UNK        -0.5000 
     84 N          -1.5253  -26.2221  -49.9031 N.am      15 UNK        -0.5000 
     85 CA         -2.4177  -26.4236  -51.0451 C.3       15 UNK         0.1400 
     86 CB         -2.8785  -25.0491  -51.5593 C.3       15 UNK        -0.1800 
     87 C          -3.6210  -27.3442  -50.7357 C.2       15 UNK         0.5000 
     88 O          -4.5237  -27.4417  -51.5669 O.2       15 UNK        -0.5000 
     89 N          -3.6244  -28.0017  -49.5655 N.am      16 UNK        -0.5000 
     90 CA         -4.6208  -28.9648  -49.0853 C.3       16 UNK         0.1400 
     91 CB         -4.6580  -30.2195  -49.9838 C.3       16 UNK        -0.1800 
     92 C          -6.0091  -28.3338  -48.8551 C.2       16 UNK         0.5000 
     93 O          -7.0274  -28.9081  -49.2445 O.2       16 UNK        -0.5000 
     94 N          -6.0091  -27.1589  -48.2112 N.am      17 UNK        -0.5000 
     95 CA         -7.1621  -26.3393  -47.8222 C.3       17 UNK         0.1400 
     96 CB         -8.1528  -27.1209  -46.9333 C.3       17 UNK        -0.1800 
     97 C          -7.8437  -25.6174  -49.0021 C.2       17 UNK         0.5000 
     98 O          -8.9704  -25.1392  -48.8550 O.2       17 UNK        -0.5000 
     99 N          -7.1406  -25.5057  -50.1363 N.am      18 UNK        -0.5000 
    100 CA        -7.4978  -24.6206  -51.2438 C.3       18 UNK         0.1400 
    101 CB        -6.7860  -25.1037  -52.5161 C.3       18 UNK        -0.1800 
    102 C         -7.1160  -23.1623  -50.9198 C.2       18 UNK         0.5000 
    103 O         -6.3781  -22.9101  -49.9656 O.2       18 UNK        -0.5000 
    104 N         -7.6103  -22.2211  -51.7337 N.am      19 UNK        -0.5000 
    105 CA        -7.3902  -20.7808  -51.5613 C.3       19 UNK         0.1400 
    106 CB        -8.3394  -20.0167  -52.4978 C.3       19 UNK        -0.1800 
    107 C         -5.9357  -20.3217  -51.7906 C.2       19 UNK         0.5000 
    108 O         -5.5774  -19.2351  -51.3377 O.2       19 UNK        -0.5000 
    109 N         -5.1426  -21.1233  -52.5214 N.am      20 UNK        -0.5000 
    110 CA        -3.7236  -20.9108  -52.8526 C.3       20 UNK         0.1400 
    111 CB        -2.8507  -21.0640  -51.5904 C.3       20 UNK        -0.1800 
    112 C         -3.4415  -19.5893  -53.6044 C.2       20 UNK         0.5000 
    113 O         -2.3363  -19.0548  -53.5154 O.2       20 UNK        -0.5000 
    114 N         -4.4615  -19.0871  -54.3178 N.am      21 UNK        -0.5000 
    115 CA        -4.5306  -17.7948  -55.0099 C.3       21 UNK         0.1400 
    116 CB        -3.4677  -17.6993  -56.1249 C.3       21 UNK        -0.1800 
    117 C         -4.5124  -16.5682  -54.0679 C.2       21 UNK         0.5000 
    118 O         -4.3203  -15.4489  -54.5458 O.2       21 UNK        -0.5000 
    119 N         -4.7326  -16.7755  -52.7610 N.am      22 UNK        -0.5000 
    120 CA        -4.7972  -15.7095  -51.7460 C.3       22 UNK         0.1400 
    121 C         -6.1840  -15.0044  -51.6603 C.2       22 UNK         0.5000 
    122 N         -7.2184  -15.4697  -52.3510 N.am      22 UNK        -0.7600 
    123 O         -6.3223  -14.0044  -50.9612 O.2       22 UNK        -0.5000 
    124 C124       -4.3533  -16.2121  -50.3439 C.3       23 UNK        -0.0398 
    125 S125       -2.6706  -16.9204  -50.1860 S.3       23 UNK        -0.2404 
    126 C126       -1.6989  -16.1432  -51.5215 C.3       23 UNK        -0.0205 
    127 H127        8.9418  -14.5565  -52.2821 H         1 UNK         0.0600 
    128 H128        8.9781  -12.8480  -51.8326 H         1 UNK         0.0600 
    129 H129        7.5044  -13.5546  -52.5011 H         1 UNK         0.0600 
    130 H130        5.9633  -13.8554  -50.9194 H         1 UNK         0.3000 
    131 H131        6.5875  -15.1493  -48.3814 H         1 UNK         0.0600 
    132 H132        4.5734  -15.8505  -49.5747 H         1 UNK         0.0800 
    133 H133        4.1526  -15.1870  -48.0377 H         1 UNK         0.0800 
    134 H134        4.0427  -14.8723  -51.8429 H         1 UNK         0.0800 
    135 H135        2.7273  -13.7622  -52.1141 H         1 UNK         0.0800 
    136 H136        0.3824  -14.3770  -51.5281 H         1 UNK         0.1150 
    137 H137       -0.4743  -18.5696  -51.2933 H         1 UNK         0.1150 
    138 H138        3.5844  -17.2008  -51.1589 H         1 UNK         0.1150 
    139 H139        1.5150  -20.1510  -51.6233 H         1 UNK         0.0800 
    140 H140        3.1269  -19.5537  -51.3424 H         1 UNK         0.0800 
    141 H141       -0.1463  -20.5986  -50.0798 H         1 UNK         0.0800 
    142 H142       -0.3008  -19.6007  -48.6570 H         1 UNK         0.0800 
    143 H143        0.9127  -22.3978  -48.5107 H         1 UNK         0.0600 
    144 H144        0.2959  -20.4646  -46.5099 H         1 UNK         0.3000 
    145 H145        0.2053  -22.7903  -43.7640 H         1 UNK         0.0600 
    146 H146        1.8430  -21.1352  -42.9343 H         1 UNK         0.0600 
    147 H147        2.5795  -22.1384  -44.1745 H         1 UNK         0.0600 
    148 H148        2.0762  -20.4981  -44.5603 H         1 UNK         0.0600 
    149 H149       -0.2728  -19.9939  -43.8337 H         1 UNK         0.3000 
    150 H150       -3.8135  -20.1718  -44.4738 H         1 UNK         0.0600 
    151 H151       -3.4802  -20.5768  -42.0291 H         1 UNK         0.0600 
    152 H152       -3.8409  -18.8912  -42.3659 H         1 UNK         0.0600 
    153 H153       -2.1877  -19.3837  -42.0023 H         1 UNK         0.0600 
    154 H154       -2.1758  -17.9186  -44.0304 H         1 UNK         0.3000 
    155 H155       -1.1928  -17.3670  -47.4563 H         1 UNK         0.0600 
    156 H156       -2.9724  -15.8771  -45.4529 H         1 UNK         0.0600 
    157 H157       -2.1544  -15.1661  -46.8432 H         1 UNK         0.0600 
    158 H158       -3.4362  -16.3438  -47.0841 H         1 UNK         0.0600 
    159 H159       -0.4826  -15.9631  -45.0967 H         1 UNK         0.3000 
    160 H160        2.4109  -17.8892  -44.2266 H         1 UNK         0.0600 
    161 H161        1.9861  -15.0538  -45.3190 H         1 UNK         0.0600 
    162 H162        3.1322  -16.2407  -45.9213 H         1 UNK         0.0600 
    163 H163        3.3344  -15.5745  -44.3082 H         1 UNK         0.0600 
    164 H164        1.0023  -15.6394  -43.0711 H         1 UNK         0.3000 
    165 H165       -0.9418  -17.5609  -40.7766 H         1 UNK         0.0600 
    166 H166        0.2893  -16.1927  -39.1178 H         1 UNK         0.0600 
    167 H167        1.3242  -17.4752  -39.7245 H         1 UNK         0.0600 
    168 H168        1.5441  -15.8278  -40.3026 H         1 UNK         0.0600 
    169 H169       -0.5407  -14.7494  -41.0864 H         1 UNK         0.3000 
    170 H170       -2.9773  -14.1617  -43.5984 H         1 UNK         0.0600 
    171 H171       -4.3481  -14.3754  -41.5185 H         1 UNK         0.0600 
    172 H172       -3.0905  -13.5657  -40.5916 H         1 UNK         0.0600 
    173 H173       -3.9598  -12.6965  -41.8570 H         1 UNK         0.0600 
    174 H174       -1.4456  -12.3654  -42.0350 H         1 UNK         0.3000 
    175 H175        0.2284  -11.1516  -43.1799 H         1 UNK         0.0600 
    176 H176        2.1241  -13.4662  -42.4551 H         1 UNK         0.0600 
    177 H177        2.4304  -11.7598  -42.1406 H         1 UNK         0.0600 
    178 H178        1.1115  -12.5780  -41.3223 H         1 UNK         0.0600 
    179 H179        2.3262  -12.5257  -44.6870 H         1 UNK         0.3000 
    180 H180        1.5823  -12.1223  -47.6142 H         1 UNK         0.0600 
    181 H181        2.5465   -9.2609  -47.1101 H         1 UNK         0.0600 
    182 H182        1.1836   -9.7537  -48.1032 H         1 UNK         0.0600 
    183 H183        2.8154  -10.1737  -48.5954 H         1 UNK         0.0600 
    184 H184        3.5800  -12.8362  -47.0633 H         1 UNK         0.3000 
    185 H185        6.4913  -11.5363  -45.8180 H         1 UNK         0.0600 
    186 H186        5.6179  -12.0451  -43.5360 H         1 UNK         0.0600 
    187 H187        4.8656  -13.5193  -44.1302 H         1 UNK         0.0600 
    188 H188        6.6222  -13.3583  -44.1257 H         1 UNK         0.0600 
    189 H189        5.6256  -14.2364  -46.3456 H         1 UNK         0.3000 
    190 H190       -2.2672  -21.2134  -47.2965 H         1 UNK         0.3000 
    191 H191       -3.8776  -22.7551  -49.0336 H         1 UNK         0.0600 
    192 H192       -4.4544  -21.7942  -46.1840 H         1 UNK         0.0600 
    193 H193       -5.6555  -22.3705  -47.3309 H         1 UNK         0.0600 
    194 H194       -4.7633  -20.8959  -47.6699 H         1 UNK         0.0600 
    195 H195       -2.5322  -23.5894  -45.8047 H         1 UNK         0.3000 
    196 H196       -3.6281  -26.1958  -45.6191 H         1 UNK         0.0600 
    197 H197       -1.8569  -26.5370  -43.8916 H         1 UNK         0.0600 
    198 H198       -2.6729  -24.9950  -43.6806 H         1 UNK         0.0600 
    199 H199       -1.0638  -25.0493  -44.3943 H         1 UNK         0.0600 
    200 H200       -0.4659  -25.0929  -46.9462 H         1 UNK         0.3000 
    201 H201        0.5078  -27.6352  -47.7364 H         1 UNK         0.0600 
    202 H202        1.9350  -25.6117  -47.5441 H         1 UNK         0.0600 
    203 H203        1.0959  -24.8618  -48.9002 H         1 UNK         0.0600 
    204 H204        2.0689  -26.3048  -49.1535 H         1 UNK         0.0600 
    205 H205       -1.6496  -25.3539  -49.3918 H         1 UNK         0.3000 
    206 H206       -1.8500  -26.9027  -51.8450 H         1 UNK         0.0600 
    207 H207       -2.0300  -24.3883  -51.7375 H         1 UNK         0.0600 
    208 H208       -3.4081  -25.1448  -52.5068 H         1 UNK         0.0600 
    209 H209       -3.5449  -24.5563  -50.8503 H         1 UNK         0.0600 
    210 H210       -2.8642  -27.8196  -48.9214 H         1 UNK         0.3000 
    211 H211       -4.2742  -29.2852  -48.1018 H         1 UNK         0.0600 
    212 H212       -5.0504  -29.9990  -50.9768 H         1 UNK         0.0600 
    213 H213       -5.2925  -30.9919  -49.5476 H         1 UNK         0.0600 
    214 H214       -3.6629  -30.6479  -50.1033 H         1 UNK         0.0600 
    215 H215       -5.1119  -26.7128  -48.0381 H         1 UNK         0.3000 
    216 H216       -6.7464  -25.5419  -47.2046 H         1 UNK         0.0600 
    217 H217       -8.8914  -26.4512  -46.4917 H         1 UNK         0.0600 
    218 H218       -7.6383  -27.6197  -46.1119 H         1 UNK         0.0600 
    219 H219       -8.6996  -27.8761  -47.4980 H         1 UNK         0.0600 
    220 H220       -6.2127  -25.9042  -50.1590 H         1 UNK         0.3000 
    221 H221       -8.5763  -24.6694  -51.4074 H         1 UNK         0.0600 
    222 H222       -5.7051  -25.0076  -52.4294 H         1 UNK         0.0600 
    223 H223       -7.0117  -26.1504  -52.7215 H         1 UNK         0.0600 
    224 H224       -7.0981  -24.5284  -53.3882 H         1 UNK         0.0600 
    225 H225       -8.2063  -22.4969  -52.5010 H         1 UNK         0.3000 
    226 H226       -7.6480  -20.5226  -50.5320 H         1 UNK         0.0600 
    227 H227       -9.3812  -20.2582  -52.2863 H         1 UNK         0.0600 
    228 H228       -8.2279  -18.9384  -52.3744 H         1 UNK         0.0600 
    229 H229       -8.1460  -20.2493  -53.5456 H         1 UNK         0.0600 
    230 H230       -5.5478  -21.9808  -52.8675 H         1 UNK         0.3000 
    231 H231       -3.4476  -21.7109  -53.5407 H         1 UNK         0.0600 
    232 H232       -1.7900  -21.0417  -51.8413 H         1 UNK         0.0600 
    233 H233       -3.0422  -22.0160  -51.0982 H         1 UNK         0.0600 
    234 H234       -3.0355  -20.2678  -50.8681 H         1 UNK         0.0600 
    235 H235       -5.3191  -19.6204  -54.3194 H         1 UNK         0.3000 
    236 H236       -5.5075  -17.7750  -55.4947 H         1 UNK         0.0600 
    237 H237       -3.6406  -16.8271  -56.7563 H         1 UNK         0.0600 
    238 H238       -2.4596  -17.6099  -55.7196 H         1 UNK         0.0600 
    239 H239       -3.4939  -18.5757  -56.7723 H         1 UNK         0.0600 
    240 H240       -4.8911  -17.7178  -52.4173 H         1 UNK         0.3000 
    241 H241       -4.1089  -14.9174  -52.0418 H         1 UNK         0.0600 
    242 H242       -8.1078  -14.9992  -52.2910 H         1 UNK         0.3800 
    243 H243       -7.1202  -16.2875  -52.9296 H         1 UNK         0.3800 
    244 H244       -4.4046  -15.3924  -49.6251 H         1 UNK         0.0800 
    245 H245       -5.0568  -16.9626  -49.9807 H         1 UNK         0.0800 
    246 H246       -1.8666  -15.0659  -51.5016 H         1 UNK         0.0800 
    247 H247       -2.0418  -16.5050  -52.4897 H         1 UNK         0.0800 
@<TRIPOS>BOND
     1    1    2 1    
     2    1  127 1    
     3    1  128 1    
     4    1  129 1    
     5    2    3 2    
     6    2    4 am   BACKBONE|DICT|INTERRES
     7    4    5 1    
     8    4  130 1    
     9    5    6 1    
    10    5   65 1    
    11    5  131 1    
    12    6    7 1    
    13    6  132 1    
    14    6  133 1    
    15    7    8 1    
    16    8    9 1    
    17    8  134 1    
    18    8  135 1    
    19    9   10 ar   
    20    9   14 ar   
    21   10   11 ar   
    22   10  136 1    
    23   11   12 ar   
    24   11  126 1    
    25   12   13 ar   
    26   12  137 1    
    27   13   14 ar   
    28   13   15 1    
    29   14  138 1    
    30   15   16 1    
    31   15  139 1    
    32   15  140 1    
    33   16   17 1    
    34   17   18 1    
    35   17  141 1    
    36   17  142 1    
    37   18   19 1    
    38   18   67 1    
    39   18  143 1    
    40   19   20 am   BACKBONE|DICT|INTERRES
    41   19  144 1    
    42   20   21 2    
    43   20   22 1    
    44   22   23 1    
    45   22   24 1    
    46   22  145 1    
    47   23  146 1    
    48   23  147 1    
    49   23  148 1    
    50   24   25 am   BACKBONE|DICT|INTERRES
    51   24  149 1    
    52   25   26 2    
    53   25   27 1    
    54   27   28 1    
    55   27   29 1    
    56   27  150 1    
    57   28  151 1    
    58   28  152 1    
    59   28  153 1    
    60   29   30 am   BACKBONE|DICT|INTERRES
    61   29  154 1    
    62   30   31 2    
    63   30   32 1    
    64   32   33 1    
    65   32   34 1    
    66   32  155 1    
    67   33  156 1    
    68   33  157 1    
    69   33  158 1    
    70   34   35 am   BACKBONE|DICT|INTERRES
    71   34  159 1    
    72   35   36 2    
    73   35   37 1    
    74   37   38 1    
    75   37   39 1    
    76   37  160 1    
    77   38  161 1    
    78   38  162 1    
    79   38  163 1    
    80   39   40 am   BACKBONE|DICT|INTERRES
    81   39  164 1    
    82   40   41 2    
    83   40   42 1    
    84   42   43 1    
    85   42   44 1    
    86   42  165 1    
    87   43  166 1    
    88   43  167 1    
    89   43  168 1    
    90   44   45 am   BACKBONE|DICT|INTERRES
    91   44  169 1    
    92   45   46 2    
    93   45   47 1    
    94   47   48 1    
    95   47   49 1    
    96   47  170 1    
    97   48  171 1    
    98   48  172 1    
    99   48  173 1    
   100   49   50 am   BACKBONE|DICT|INTERRES
   101   49  174 1    
   102   50   51 2    
   103   50   52 1    
   104   52   53 1    
   105   52   54 1    
   106   52  175 1    
   107   53  176 1    
   108   53  177 1    
   109   53  178 1    
   110   54   55 am   BACKBONE|DICT|INTERRES
   111   54  179 1    
   112   55   56 2    
   113   55   57 1    
   114   57   58 1    
   115   57   59 1    
   116   57  180 1    
   117   58  181 1    
   118   58  182 1    
   119   58  183 1    
   120   59   60 am   BACKBONE|DICT|INTERRES
   121   59  184 1    
   122   60   61 2    
   123   60   62 1    
   124   62   63 1    
   125   62   64 1    
   126   62  185 1    
   127   63  186 1    
   128   63  187 1    
   129   63  188 1    
   130   64   65 am   BACKBONE|DICT|INTERRES
   131   64  189 1    
   132   65   66 2    
   133   67   68 2    
   134   67   69 am   BACKBONE|DICT|INTERRES
   135   69   70 1    
   136   69  190 1    
   137   70   71 1    
   138   70   72 1    
   139   70  191 1    
   140   71  192 1    
   141   71  193 1    
   142   71  194 1    
   143   72   73 2    
   144   72   74 am   BACKBONE|DICT|INTERRES
   145   74   75 1    
   146   74  195 1    
   147   75   76 1    
   148   75   77 1    
   149   75  196 1    
   150   76  197 1    
   151   76  198 1    
   152   76  199 1    
   153   77   78 2    
   154   77   79 am   BACKBONE|DICT|INTERRES
   155   79   80 1    
   156   79  200 1    
   157   80   81 1    
   158   80   82 1    
   159   80  201 1    
   160   81  202 1    
   161   81  203 1    
   162   81  204 1    
   163   82   83 2    
   164   82   84 am   BACKBONE|DICT|INTERRES
   165   84   85 1    
   166   84  205 1    
   167   85   86 1    
   168   85   87 1    
   169   85  206 1    
   170   86  207 1    
   171   86  208 1    
   172   86  209 1    
   173   87   88 2    
   174   87   89 am   BACKBONE|DICT|INTERRES
   175   89   90 1    
   176   89  210 1    
   177   90   91 1    
   178   90   92 1    
   179   90  211 1    
   180   91  212 1    
   181   91  213 1    
   182   91  214 1    
   183   92   93 2    
   184   92   94 am   BACKBONE|DICT|INTERRES
   185   94   95 1    
   186   94  215 1    
   187   95   96 1    
   188   95   97 1    
   189   95  216 1    
   190   96  217 1    
   191   96  218 1    
   192   96  219 1    
   193   97   98 2    
   194   97   99 am   BACKBONE|DICT|INTERRES
   195   99  100 1    
   196   99  220 1    
   197  100  101 1    
   198  100  102 1    
   199  100  221 1    
   200  101  222 1    
   201  101  223 1    
   202  101  224 1    
   203  102  103 2    
   204  102  104 am   BACKBONE|DICT|INTERRES
   205  104  105 1    
   206  104  225 1    
   207  105  106 1    
   208  105  107 1    
   209  105  226 1    
   210  106  227 1    
   211  106  228 1    
   212  106  229 1    
   213  107  108 2    
   214  107  109 am   BACKBONE|DICT|INTERRES
   215  109  110 1    
   216  109  230 1    
   217  110  111 1    
   218  110  112 1    
   219  110  231 1    
   220  111  232 1    
   221  111  233 1    
   222  111  234 1    
   223  112  113 2    
   224  112  114 am   BACKBONE|DICT|INTERRES
   225  114  115 1    
   226  114  235 1    
   227  115  116 1    
   228  115  117 1    
   229  115  236 1    
   230  116  237 1    
   231  116  238 1    
   232  116  239 1    
   233  117  118 2    
   234  117  119 am   BACKBONE|DICT|INTERRES
   235  119  120 1    
   236  119  240 1    
   237  120  121 1    
   238  120  124 1    
   239  120  241 1    
   240  121  122 am   BACKBONE|DICT|INTERRES
   241  121  123 2    
   242  122  242 1    
   243  122  243 1    
   244  124  125 1    
   245  124  244 1    
   246  124  245 1    
   247  125  126 1    
   248  126  246 1    
   249  126  247 1    
@<TRIPOS>SUBSTRUCTURE
     1 UNK         1 GROUP             0       ****    0 ROOT    
