@<TRIPOS>MOLECULE
3R540
247   249    1
SMALL
USER_CHARGES


@<TRIPOS>ATOM
      1 CA         -0.2090  -10.8048  -41.7306 C.3       0 UNK        -0.1800 
      2 C          -1.2509  -10.3463  -42.7410 C.2       0 UNK         0.5000 
      3 O          -1.2698   -9.1738  -43.1154 O.2       0 UNK        -0.5000 
      4 N          -2.1147  -11.2673  -43.1869 N.am      1 UNK        -0.5000 
      5 CA         -3.1506  -11.0364  -44.2044 C.3       1 UNK         0.1400 
      6 C6         -4.2487  -12.1276  -44.1567 C.3       23 UNK        -0.0398 
      7 S7         -3.6092  -13.8221  -44.4010 S.3       23 UNK        -0.2404 
      8 C8         -4.3989  -14.2702  -45.9791 C.3       23 UNK        -0.0205 
      9 C9         -3.8413  -15.5776  -46.5180 C.ar      23 UNK        -0.0193 
     10 C10        -3.1057  -15.5968  -47.7066 C.ar      23 UNK        -0.1150 
     11 C11        -2.5556  -16.7908  -48.1819 C.ar      23 UNK        -0.0193 
     12 C12        -2.7503  -17.9720  -47.4595 C.ar      23 UNK        -0.1150 
     13 C13        -3.4550  -17.9580  -46.2529 C.ar      23 UNK        -0.0193 
     14 C14        -4.0238  -16.7647  -45.8030 C.ar      23 UNK        -0.1150 
     15 C15        -3.4949  -19.1986  -45.3772 C.3       23 UNK        -0.0205 
     16 S16        -4.6310  -20.4676  -45.9982 S.3       23 UNK        -0.2404 
     17 C17        -4.3513  -21.7809  -44.7601 C.3       23 UNK        -0.0398 
     18 CA         -3.3293  -22.8261  -45.2632 C.3       11 UNK         0.1400 
     19 N          -1.9549  -22.3048  -45.3267 N.am      11 UNK        -0.5000 
     20 C          -0.9339  -22.9205  -45.9394 C.2       10 UNK         0.5000 
     21 O          -1.0432  -24.0286  -46.4623 O.2       10 UNK        -0.5000 
     22 CA          0.4351  -22.2177  -45.9760 C.3       10 UNK         0.1400 
     23 CB          0.8205  -21.8812  -47.4248 C.3       10 UNK        -0.1800 
     24 N           0.5367  -21.0120  -45.1451 N.am      10 UNK        -0.5000 
     25 C           0.6526  -21.0258  -43.8080 C.2       9 UNK         0.5000 
     26 O           0.5077  -22.0494  -43.1379 O.2       9 UNK        -0.5000 
     27 CA          1.0106  -19.7088  -43.0859 C.3       9 UNK         0.1400 
     28 CB          2.4269  -19.7970  -42.4949 C.3       9 UNK        -0.1800 
     29 N           0.9544  -18.5359  -43.9563 N.am      9 UNK        -0.5000 
     30 C          -0.1247  -17.7681  -44.1513 C.2       8 UNK         0.5000 
     31 O          -1.1890  -17.9345  -43.5567 O.2       8 UNK        -0.5000 
     32 CA         -0.0024  -16.6354  -45.1958 C.3       8 UNK         0.1400 
     33 CB          0.2381  -15.2845  -44.5052 C.3       8 UNK        -0.1800 
     34 N           1.0431  -16.8582  -46.2020 N.am      8 UNK        -0.5000 
     35 C           1.0808  -17.8927  -47.0551 C.2       7 UNK         0.5000 
     36 O           0.2325  -18.7798  -47.0867 O.2       7 UNK        -0.5000 
     37 CA          2.3091  -18.0005  -47.9703 C.3       7 UNK         0.1400 
     38 CB          2.1704  -17.0839  -49.1954 C.3       7 UNK        -0.1800 
     39 N           3.5352  -17.6886  -47.2364 N.am      7 UNK        -0.5000 
     40 C           4.1147  -18.5210  -46.3579 C.2       6 UNK         0.5000 
     41 O           3.7087  -19.6593  -46.1259 O.2       6 UNK        -0.5000 
     42 CA          5.3338  -17.9833  -45.5848 C.3       6 UNK         0.1400 
     43 CB          6.6265  -18.2284  -46.3772 C.3       6 UNK        -0.1800 
     44 N           5.2222  -16.5582  -45.2731 N.am      6 UNK        -0.5000 
     45 C           4.3338  -16.0346  -44.4164 C.2       5 UNK         0.5000 
     46 O           3.5528  -16.7089  -43.7460 O.2       5 UNK        -0.5000 
     47 CA          4.2804  -14.4961  -44.3305 C.3       5 UNK         0.1400 
     48 CB          5.2261  -13.9830  -43.2350 C.3       5 UNK        -0.1800 
     49 N           4.5951  -13.8226  -45.5951 N.am      5 UNK        -0.5000 
     50 C           3.9081  -13.9741  -46.7343 C.2       4 UNK         0.5000 
     51 O           2.9323  -14.7183  -46.8472 O.2       4 UNK        -0.5000 
     52 CA          4.3824  -13.1418  -47.9373 C.3       4 UNK         0.1400 
     53 CB          4.1177  -13.8544  -49.2747 C.3       4 UNK        -0.1800 
     54 N           3.6863  -11.8619  -47.9388 N.am      4 UNK        -0.5000 
     55 C           4.0035  -10.8114  -47.1716 C.2       3 UNK         0.5000 
     56 O           5.0125  -10.7573  -46.4668 O.2       3 UNK        -0.5000 
     57 CA          3.0095   -9.6339  -47.1780 C.3       3 UNK         0.1400 
     58 CB          3.4173   -8.5889  -48.2277 C.3       3 UNK        -0.1800 
     59 N           1.6251  -10.0525  -47.4261 N.am      3 UNK        -0.5000 
     60 C           0.8925  -10.7809  -46.5735 C.2       2 UNK         0.5000 
     61 O           1.3009  -11.1730  -45.4763 O.2       2 UNK        -0.5000 
     62 CA         -0.5264  -11.1460  -47.0301 C.3       2 UNK         0.1400 
     63 CB         -0.5232  -12.4419  -47.8591 C.3       2 UNK        -0.1800 
     64 N          -1.3368  -11.3372  -45.8365 N.am      2 UNK        -0.5000 
     65 C          -2.5706  -10.8655  -45.6288 C.2       1 UNK         0.5000 
     66 O          -3.2427  -10.3029  -46.4944 O.2       1 UNK        -0.5000 
     67 C          -3.4592  -24.1721  -44.5137 C.2       11 UNK         0.5000 
     68 O          -4.4317  -24.8924  -44.7424 O.2       11 UNK        -0.5000 
     69 N          -2.4593  -24.5283  -43.6953 N.am      12 UNK        -0.5000 
     70 CA         -2.3175  -25.8527  -43.0876 C.3       12 UNK         0.1400 
     71 CB         -1.1766  -25.8070  -42.0602 C.3       12 UNK        -0.1800 
     72 C          -2.0714  -26.9790  -44.1165 C.2       12 UNK         0.5000 
     73 O          -2.4429  -28.1239  -43.8553 O.2       12 UNK        -0.5000 
     74 N          -1.4716  -26.6454  -45.2683 N.am      13 UNK        -0.5000 
     75 CA         -1.1871  -27.5636  -46.3678 C.3       13 UNK         0.1400 
     76 CB          0.1575  -27.1759  -47.0101 C.3       13 UNK        -0.1800 
     77 C          -2.3497  -27.5456  -47.3755 C.2       13 UNK         0.5000 
     78 O          -2.2145  -26.9953  -48.4702 O.2       13 UNK        -0.5000 
     79 N          -3.4880  -28.1258  -46.9679 N.am      14 UNK        -0.5000 
     80 CA         -4.7129  -28.3164  -47.7571 C.3       14 UNK         0.1400 
     81 CB         -4.4798  -29.3832  -48.8475 C.3       14 UNK        -0.1800 
     82 C          -5.2745  -26.9976  -48.3284 C.2       14 UNK         0.5000 
     83 O          -5.5308  -26.8985  -49.5312 O.2       14 UNK        -0.5000 
     84 N          -5.4050  -25.9889  -47.4532 N.am      15 UNK        -0.5000 
     85 CA         -5.8407  -24.6231  -47.7639 C.3       15 UNK         0.1400 
     86 CB         -7.3192  -24.6040  -48.2082 C.3       15 UNK        -0.1800 
     87 C          -4.9005  -23.9204  -48.7648 C.2       15 UNK         0.5000 
     88 O          -5.3766  -23.2122  -49.6485 O.2       15 UNK        -0.5000 
     89 N          -3.5868  -24.1547  -48.6187 N.am      16 UNK        -0.5000 
     90 CA         -2.4990  -23.6779  -49.4797 C.3       16 UNK         0.1400 
     91 CB         -2.4070  -22.1356  -49.4630 C.3       16 UNK        -0.1800 
     92 C          -2.6013  -24.2756  -50.8959 C.2       16 UNK         0.5000 
     93 O          -2.4769  -23.5542  -51.8848 O.2       16 UNK        -0.5000 
     94 N          -2.8531  -25.5928  -50.9481 N.am      17 UNK        -0.5000 
     95 CA         -3.1315  -26.4002  -52.1392 C.3       17 UNK         0.1400 
     96 CB         -1.8626  -26.5455  -53.0048 C.3       17 UNK        -0.1800 
     97 C          -4.3498  -25.8702  -52.9256 C.2       17 UNK         0.5000 
     98 O          -4.2588  -25.6484  -54.1345 O.2       17 UNK        -0.5000 
     99 N          -5.4617  -25.6638  -52.2025 N.am      18 UNK        -0.5000 
    100 CA        -6.7185  -25.0614  -52.6613 C.3       18 UNK         0.1400 
    101 CB        -7.4307  -25.9778  -53.6778 C.3       18 UNK        -0.1800 
    102 C         -6.5134  -23.6208  -53.1775 C.2       18 UNK         0.5000 
    103 O         -6.7902  -23.3208  -54.3413 O.2       18 UNK        -0.5000 
    104 N         -5.9993  -22.7642  -52.2868 N.am      19 UNK        -0.5000 
    105 CA        -5.6362  -21.3529  -52.4341 C.3       19 UNK         0.1400 
    106 CB        -6.8413  -20.4880  -52.8505 C.3       19 UNK        -0.1800 
    107 C         -4.4235  -21.1072  -53.3460 C.2       19 UNK         0.5000 
    108 O         -3.5045  -20.3956  -52.9387 O.2       19 UNK        -0.5000 
    109 N         -4.4605  -21.6572  -54.5694 N.am      20 UNK        -0.5000 
    110 CA        -3.4321  -21.5907  -55.6186 C.3       20 UNK         0.1400 
    111 CB        -2.2331  -22.4786  -55.2287 C.3       20 UNK        -0.1800 
    112 C         -2.9990  -20.1514  -55.9857 C.2       20 UNK         0.5000 
    113 O         -1.8508  -19.9327  -56.3786 O.2       20 UNK        -0.5000 
    114 N         -3.9113  -19.1850  -55.7884 N.am      21 UNK        -0.5000 
    115 CA        -3.7092  -17.7319  -55.8714 C.3       21 UNK         0.1400 
    116 CB        -3.5229  -17.3032  -57.3416 C.3       21 UNK        -0.1800 
    117 C         -2.5801  -17.2042  -54.9514 C.2       21 UNK         0.5000 
    118 O         -1.9875  -16.1662  -55.2509 O.2       21 UNK        -0.5000 
    119 N         -2.2850  -17.9398  -53.8680 N.am      22 UNK        -0.5000 
    120 CA        -1.1302  -17.7577  -52.9719 C.3       22 UNK         0.1400 
    121 C          0.2562  -17.9851  -53.6555 C.2       22 UNK         0.5000 
    122 N          0.3344  -18.6487  -54.8043 N.am      22 UNK        -0.7600 
    123 O          1.2889  -17.5872  -53.1234 O.2       22 UNK        -0.5000 
    124 C124       -1.1999  -16.4433  -52.1425 C.3       23 UNK        -0.0398 
    125 S125       -2.5843  -16.4503  -50.9501 S.3       23 UNK        -0.2404 
    126 C126       -1.6659  -16.7836  -49.4150 C.3       23 UNK        -0.0205 
    127 H127        0.7921  -10.6737  -42.1418 H         1 UNK         0.0600 
    128 H128       -0.3333  -11.8557  -41.4682 H         1 UNK         0.0600 
    129 H129       -0.2850  -10.2146  -40.8173 H         1 UNK         0.0600 
    130 H130       -2.0560  -12.2158  -42.8430 H         1 UNK         0.3000 
    131 H131       -3.6356  -10.0885  -43.9612 H         1 UNK         0.0600 
    132 H132       -4.7422  -12.0987  -43.1845 H         1 UNK         0.0800 
    133 H133       -5.0337  -11.9127  -44.8840 H         1 UNK         0.0800 
    134 H134       -4.2478  -13.4648  -46.6999 H         1 UNK         0.0800 
    135 H135       -5.4759  -14.3663  -45.8345 H         1 UNK         0.0800 
    136 H136       -2.9392  -14.6803  -48.2542 H         1 UNK         0.1150 
    137 H137       -2.2962  -18.8928  -47.7982 H         1 UNK         0.1150 
    138 H138       -4.5598  -16.7439  -44.8644 H         1 UNK         0.1150 
    139 H139       -2.4870  -19.6090  -45.3220 H         1 UNK         0.0800 
    140 H140       -3.7736  -18.9338  -44.3559 H         1 UNK         0.0800 
    141 H141       -5.3225  -22.2451  -44.5775 H         1 UNK         0.0800 
    142 H142       -4.0385  -21.3531  -43.8062 H         1 UNK         0.0800 
    143 H143       -3.6033  -23.0539  -46.2894 H         1 UNK         0.0600 
    144 H144       -1.7834  -21.4054  -44.9046 H         1 UNK         0.3000 
    145 H145        1.1660  -22.9386  -45.6037 H         1 UNK         0.0600 
    146 H146        1.7938  -21.3928  -47.4729 H         1 UNK         0.0600 
    147 H147        0.8811  -22.7849  -48.0327 H         1 UNK         0.0600 
    148 H148        0.0881  -21.2252  -47.8948 H         1 UNK         0.0600 
    149 H149        0.6067  -20.1311  -45.6442 H         1 UNK         0.3000 
    150 H150        0.3066  -19.5866  -42.2604 H         1 UNK         0.0600 
    151 H151        2.5151  -20.6373  -41.8051 H         1 UNK         0.0600 
    152 H152        2.6782  -18.8935  -41.9389 H         1 UNK         0.0600 
    153 H153        3.1793  -19.9291  -43.2736 H         1 UNK         0.0600 
    154 H154        1.8053  -18.2953  -44.4465 H         1 UNK         0.3000 
    155 H155       -0.9538  -16.5740  -45.7235 H         1 UNK         0.0600 
    156 H156       -0.5886  -15.0387  -43.8376 H         1 UNK         0.0600 
    157 H157        0.3221  -14.4745  -45.2295 H         1 UNK         0.0600 
    158 H158        1.1486  -15.2982  -43.9072 H         1 UNK         0.0600 
    159 H159        1.7689  -16.1503  -46.2713 H         1 UNK         0.3000 
    160 H160        2.3754  -19.0294  -48.3307 H         1 UNK         0.0600 
    161 H161        1.9636  -16.0523  -48.9124 H         1 UNK         0.0600 
    162 H162        1.3508  -17.4158  -49.8331 H         1 UNK         0.0600 
    163 H163        3.0748  -17.0931  -49.8038 H         1 UNK         0.0600 
    164 H164        3.8794  -16.7424  -47.3154 H         1 UNK         0.3000 
    165 H165        5.3995  -18.5337  -44.6436 H         1 UNK         0.0600 
    166 H166        7.5029  -17.9182  -45.8079 H         1 UNK         0.0600 
    167 H167        6.7480  -19.2879  -46.6067 H         1 UNK         0.0600 
    168 H168        6.6298  -17.6851  -47.3230 H         1 UNK         0.0600 
    169 H169        5.8326  -15.9303  -45.7747 H         1 UNK         0.3000 
    170 H170        3.2616  -14.2164  -44.0568 H         1 UNK         0.0600 
    171 H171        4.9995  -14.4478  -42.2744 H         1 UNK         0.0600 
    172 H172        6.2689  -14.2013  -43.4682 H         1 UNK         0.0600 
    173 H173        5.1291  -12.9050  -43.1037 H         1 UNK         0.0600 
    174 H174        5.3489  -13.1494  -45.5732 H         1 UNK         0.3000 
    175 H175        5.4587  -12.9782  -47.8499 H         1 UNK         0.0600 
    176 H176        3.0512  -13.9785  -49.4649 H         1 UNK         0.0600 
    177 H177        4.5391  -13.2915  -50.1077 H         1 UNK         0.0600 
    178 H178        4.5740  -14.8450  -49.2884 H         1 UNK         0.0600 
    179 H179        2.8223  -11.8239  -48.4582 H         1 UNK         0.3000 
    180 H180        3.0510   -9.1632  -46.1933 H         1 UNK         0.0600 
    181 H181        3.3767   -8.9957  -49.2389 H         1 UNK         0.0600 
    182 H182        4.4363   -8.2397  -48.0552 H         1 UNK         0.0600 
    183 H183        2.7657   -7.7157  -48.1896 H         1 UNK         0.0600 
    184 H184        1.2183   -9.7640  -48.3045 H         1 UNK         0.3000 
    185 H185       -0.9226  -10.3252  -47.6318 H         1 UNK         0.0600 
    186 H186        0.0739  -12.3281  -48.7644 H         1 UNK         0.0600 
    187 H187       -0.1115  -13.2817  -47.2980 H         1 UNK         0.0600 
    188 H188       -1.5332  -12.7098  -48.1682 H         1 UNK         0.0600 
    189 H189       -0.8300  -11.7208  -45.0495 H         1 UNK         0.3000 
    190 H190       -1.6918  -23.8841  -43.5643 H         1 UNK         0.3000 
    191 H191       -3.2452  -26.0850  -42.5605 H         1 UNK         0.0600 
    192 H192       -1.3759  -25.0703  -41.2817 H         1 UNK         0.0600 
    193 H193       -1.0536  -26.7731  -41.5686 H         1 UNK         0.0600 
    194 H194       -0.2246  -25.5520  -42.5278 H         1 UNK         0.0600 
    195 H195       -1.2611  -25.6694  -45.4549 H         1 UNK         0.3000 
    196 H196       -1.0874  -28.5835  -45.9905 H         1 UNK         0.0600 
    197 H197        0.4145  -27.8633  -47.8167 H         1 UNK         0.0600 
    198 H198        0.9668  -27.2129  -46.2808 H         1 UNK         0.0600 
    199 H199        0.1354  -26.1713  -47.4331 H         1 UNK         0.0600 
    200 H200       -3.5088  -28.5016  -46.0284 H         1 UNK         0.3000 
    201 H201       -5.4703  -28.7019  -47.0732 H         1 UNK         0.0600 
    202 H202       -4.1239  -30.3180  -48.4144 H         1 UNK         0.0600 
    203 H203       -3.7465  -29.0556  -49.5854 H         1 UNK         0.0600 
    204 H204       -5.4043  -29.6055  -49.3817 H         1 UNK         0.0600 
    205 H205       -5.1344  -26.1435  -46.4891 H         1 UNK         0.3000 
    206 H206       -5.7809  -24.0522  -46.8378 H         1 UNK         0.0600 
    207 H207       -7.9561  -25.1018  -47.4772 H         1 UNK         0.0600 
    208 H208       -7.6825  -23.5806  -48.3092 H         1 UNK         0.0600 
    209 H209       -7.4642  -25.0965  -49.1699 H         1 UNK         0.0600 
    210 H210       -3.2985  -24.8074  -47.9033 H         1 UNK         0.3000 
    211 H211       -1.5740  -24.0681  -49.0540 H         1 UNK         0.0600 
    212 H212       -3.2522  -21.6694  -49.9697 H         1 UNK         0.0600 
    213 H213       -1.5022  -21.7964  -49.9681 H         1 UNK         0.0600 
    214 H214       -2.3760  -21.7504  -48.4440 H         1 UNK         0.0600 
    215 H215       -2.8858  -26.0961  -50.0652 H         1 UNK         0.3000 
    216 H216       -3.4035  -27.3938  -51.7799 H         1 UNK         0.0600 
    217 H217       -2.0345  -27.2302  -53.8360 H         1 UNK         0.0600 
    218 H218       -1.0326  -26.9445  -52.4217 H         1 UNK         0.0600 
    219 H219       -1.5474  -25.5910  -53.4276 H         1 UNK         0.0600 
    220 H220       -5.4338  -25.9193  -51.2183 H         1 UNK         0.3000 
    221 H221       -7.3611  -24.9874  -51.7828 H         1 UNK         0.0600 
    222 H222       -6.8615  -26.0863  -54.6013 H         1 UNK         0.0600 
    223 H223       -7.5914  -26.9734  -53.2643 H         1 UNK         0.0600 
    224 H224       -8.4084  -25.5748  -53.9441 H         1 UNK         0.0600 
    225 H225       -5.7782  -23.1261  -51.3590 H         1 UNK         0.3000 
    226 H226       -5.3396  -21.0297  -51.4349 H         1 UNK         0.0600 
    227 H227       -7.6716  -20.6116  -52.1553 H         1 UNK         0.0600 
    228 H228       -6.5752  -19.4303  -52.8535 H         1 UNK         0.0600 
    229 H229       -7.2009  -20.7349  -53.8495 H         1 UNK         0.0600 
    230 H230       -5.2735  -22.2309  -54.7795 H         1 UNK         0.3000 
    231 H231       -3.8821  -22.0130  -56.5178 H         1 UNK         0.0600 
    232 H232       -1.7048  -22.0809  -54.3612 H         1 UNK         0.0600 
    233 H233       -1.5150  -22.5567  -56.0456 H         1 UNK         0.0600 
    234 H234       -2.5562  -23.4906  -54.9835 H         1 UNK         0.0600 
    235 H235       -4.8175  -19.4769  -55.4512 H         1 UNK         0.3000 
    236 H236       -4.6301  -17.2745  -55.5073 H         1 UNK         0.0600 
    237 H237       -4.3339  -17.6763  -57.9670 H         1 UNK         0.0600 
    238 H238       -3.5166  -16.2168  -57.4370 H         1 UNK         0.0600 
    239 H239       -2.5837  -17.6732  -57.7540 H         1 UNK         0.0600 
    240 H240       -2.8227  -18.7840  -53.6892 H         1 UNK         0.3000 
    241 H241       -1.1965  -18.5825  -52.2612 H         1 UNK         0.0600 
    242 H242        1.2379  -18.7962  -55.2246 H         1 UNK         0.3800 
    243 H243       -0.4947  -19.0090  -55.2666 H         1 UNK         0.3800 
    244 H244       -0.2737  -16.2786  -51.5904 H         1 UNK         0.0800 
    245 H245       -1.3038  -15.5762  -52.7948 H         1 UNK         0.0800 
    246 H246       -1.1465  -17.7382  -49.5143 H         1 UNK         0.0800 
    247 H247       -0.8944  -16.0238  -49.2803 H         1 UNK         0.0800 
@<TRIPOS>BOND
     1    1    2 1    
     2    1  127 1    
     3    1  128 1    
     4    1  129 1    
     5    2    3 2    
     6    2    4 am   BACKBONE|DICT|INTERRES
     7    4    5 1    
     8    4  130 1    
     9    5    6 1    
    10    5   65 1    
    11    5  131 1    
    12    6    7 1    
    13    6  132 1    
    14    6  133 1    
    15    7    8 1    
    16    8    9 1    
    17    8  134 1    
    18    8  135 1    
    19    9   10 ar   
    20    9   14 ar   
    21   10   11 ar   
    22   10  136 1    
    23   11   12 ar   
    24   11  126 1    
    25   12   13 ar   
    26   12  137 1    
    27   13   14 ar   
    28   13   15 1    
    29   14  138 1    
    30   15   16 1    
    31   15  139 1    
    32   15  140 1    
    33   16   17 1    
    34   17   18 1    
    35   17  141 1    
    36   17  142 1    
    37   18   19 1    
    38   18   67 1    
    39   18  143 1    
    40   19   20 am   BACKBONE|DICT|INTERRES
    41   19  144 1    
    42   20   21 2    
    43   20   22 1    
    44   22   23 1    
    45   22   24 1    
    46   22  145 1    
    47   23  146 1    
    48   23  147 1    
    49   23  148 1    
    50   24   25 am   BACKBONE|DICT|INTERRES
    51   24  149 1    
    52   25   26 2    
    53   25   27 1    
    54   27   28 1    
    55   27   29 1    
    56   27  150 1    
    57   28  151 1    
    58   28  152 1    
    59   28  153 1    
    60   29   30 am   BACKBONE|DICT|INTERRES
    61   29  154 1    
    62   30   31 2    
    63   30   32 1    
    64   32   33 1    
    65   32   34 1    
    66   32  155 1    
    67   33  156 1    
    68   33  157 1    
    69   33  158 1    
    70   34   35 am   BACKBONE|DICT|INTERRES
    71   34  159 1    
    72   35   36 2    
    73   35   37 1    
    74   37   38 1    
    75   37   39 1    
    76   37  160 1    
    77   38  161 1    
    78   38  162 1    
    79   38  163 1    
    80   39   40 am   BACKBONE|DICT|INTERRES
    81   39  164 1    
    82   40   41 2    
    83   40   42 1    
    84   42   43 1    
    85   42   44 1    
    86   42  165 1    
    87   43  166 1    
    88   43  167 1    
    89   43  168 1    
    90   44   45 am   BACKBONE|DICT|INTERRES
    91   44  169 1    
    92   45   46 2    
    93   45   47 1    
    94   47   48 1    
    95   47   49 1    
    96   47  170 1    
    97   48  171 1    
    98   48  172 1    
    99   48  173 1    
   100   49   50 am   BACKBONE|DICT|INTERRES
   101   49  174 1    
   102   50   51 2    
   103   50   52 1    
   104   52   53 1    
   105   52   54 1    
   106   52  175 1    
   107   53  176 1    
   108   53  177 1    
   109   53  178 1    
   110   54   55 am   BACKBONE|DICT|INTERRES
   111   54  179 1    
   112   55   56 2    
   113   55   57 1    
   114   57   58 1    
   115   57   59 1    
   116   57  180 1    
   117   58  181 1    
   118   58  182 1    
   119   58  183 1    
   120   59   60 am   BACKBONE|DICT|INTERRES
   121   59  184 1    
   122   60   61 2    
   123   60   62 1    
   124   62   63 1    
   125   62   64 1    
   126   62  185 1    
   127   63  186 1    
   128   63  187 1    
   129   63  188 1    
   130   64   65 am   BACKBONE|DICT|INTERRES
   131   64  189 1    
   132   65   66 2    
   133   67   68 2    
   134   67   69 am   BACKBONE|DICT|INTERRES
   135   69   70 1    
   136   69  190 1    
   137   70   71 1    
   138   70   72 1    
   139   70  191 1    
   140   71  192 1    
   141   71  193 1    
   142   71  194 1    
   143   72   73 2    
   144   72   74 am   BACKBONE|DICT|INTERRES
   145   74   75 1    
   146   74  195 1    
   147   75   76 1    
   148   75   77 1    
   149   75  196 1    
   150   76  197 1    
   151   76  198 1    
   152   76  199 1    
   153   77   78 2    
   154   77   79 am   BACKBONE|DICT|INTERRES
   155   79   80 1    
   156   79  200 1    
   157   80   81 1    
   158   80   82 1    
   159   80  201 1    
   160   81  202 1    
   161   81  203 1    
   162   81  204 1    
   163   82   83 2    
   164   82   84 am   BACKBONE|DICT|INTERRES
   165   84   85 1    
   166   84  205 1    
   167   85   86 1    
   168   85   87 1    
   169   85  206 1    
   170   86  207 1    
   171   86  208 1    
   172   86  209 1    
   173   87   88 2    
   174   87   89 am   BACKBONE|DICT|INTERRES
   175   89   90 1    
   176   89  210 1    
   177   90   91 1    
   178   90   92 1    
   179   90  211 1    
   180   91  212 1    
   181   91  213 1    
   182   91  214 1    
   183   92   93 2    
   184   92   94 am   BACKBONE|DICT|INTERRES
   185   94   95 1    
   186   94  215 1    
   187   95   96 1    
   188   95   97 1    
   189   95  216 1    
   190   96  217 1    
   191   96  218 1    
   192   96  219 1    
   193   97   98 2    
   194   97   99 am   BACKBONE|DICT|INTERRES
   195   99  100 1    
   196   99  220 1    
   197  100  101 1    
   198  100  102 1    
   199  100  221 1    
   200  101  222 1    
   201  101  223 1    
   202  101  224 1    
   203  102  103 2    
   204  102  104 am   BACKBONE|DICT|INTERRES
   205  104  105 1    
   206  104  225 1    
   207  105  106 1    
   208  105  107 1    
   209  105  226 1    
   210  106  227 1    
   211  106  228 1    
   212  106  229 1    
   213  107  108 2    
   214  107  109 am   BACKBONE|DICT|INTERRES
   215  109  110 1    
   216  109  230 1    
   217  110  111 1    
   218  110  112 1    
   219  110  231 1    
   220  111  232 1    
   221  111  233 1    
   222  111  234 1    
   223  112  113 2    
   224  112  114 am   BACKBONE|DICT|INTERRES
   225  114  115 1    
   226  114  235 1    
   227  115  116 1    
   228  115  117 1    
   229  115  236 1    
   230  116  237 1    
   231  116  238 1    
   232  116  239 1    
   233  117  118 2    
   234  117  119 am   BACKBONE|DICT|INTERRES
   235  119  120 1    
   236  119  240 1    
   237  120  121 1    
   238  120  124 1    
   239  120  241 1    
   240  121  122 am   BACKBONE|DICT|INTERRES
   241  121  123 2    
   242  122  242 1    
   243  122  243 1    
   244  124  125 1    
   245  124  244 1    
   246  124  245 1    
   247  125  126 1    
   248  126  246 1    
   249  126  247 1    
@<TRIPOS>SUBSTRUCTURE
     1 UNK         1 GROUP             0       ****    0 ROOT    
