@<TRIPOS>MOLECULE
3R540
247   249    1
SMALL
USER_CHARGES


@<TRIPOS>ATOM
      1 CA         -1.3661  -12.5134  -43.0810 C.3       0 UNK        -0.1800 
      2 C          -1.4030  -12.0844  -44.5419 C.2       0 UNK         0.5000 
      3 O          -0.9396  -10.9944  -44.8746 O.2       0 UNK        -0.5000 
      4 N          -1.9499  -12.9411  -45.4129 N.am      1 UNK        -0.5000 
      5 CA         -1.9856  -12.7724  -46.8738 C.3       1 UNK         0.1400 
      6 C6         -3.0918  -13.6417  -47.5283 C.3       23 UNK        -0.0398 
      7 S7         -3.1344  -15.3701  -46.9311 S.3       23 UNK        -0.2404 
      8 C8         -3.4994  -16.3044  -48.4505 C.3       23 UNK        -0.0205 
      9 C9         -2.2522  -16.7341  -49.2177 C.ar      23 UNK        -0.0193 
     10 C10        -2.1786  -16.5392  -50.5996 C.ar      23 UNK        -0.1150 
     11 C11        -1.0833  -17.0140  -51.3269 C.ar      23 UNK        -0.0193 
     12 C12        -0.0333  -17.6503  -50.6588 C.ar      23 UNK        -0.1150 
     13 C13        -0.0826  -17.8391  -49.2757 C.ar      23 UNK        -0.0193 
     14 C14        -1.2032  -17.3932  -48.5663 C.ar      23 UNK        -0.1150 
     15 C15         1.0847  -18.5019  -48.5514 C.3       23 UNK        -0.0205 
     16 S16         1.1948  -20.2924  -48.8507 S.3       23 UNK        -0.2404 
     17 C17        -0.3539  -20.8722  -48.0932 C.3       23 UNK        -0.0398 
     18 CA         -0.1885  -22.1855  -47.2919 C.3       11 UNK         0.1400 
     19 N           0.5908  -22.0426  -46.0580 N.am      11 UNK        -0.5000 
     20 C           1.0548  -23.0858  -45.3517 C.2       10 UNK         0.5000 
     21 O           1.0112  -24.2512  -45.7473 O.2       10 UNK        -0.5000 
     22 CA          1.6163  -22.8001  -43.9462 C.3       10 UNK         0.1400 
     23 CB          3.1114  -22.4541  -44.0084 C.3       10 UNK        -0.1800 
     24 N           0.8828  -21.7510  -43.2347 N.am      10 UNK        -0.5000 
     25 C          -0.4068  -21.8379  -42.8746 C.2       9 UNK         0.5000 
     26 O          -1.1083  -22.8286  -43.0803 O.2       9 UNK        -0.5000 
     27 CA         -1.0318  -20.6001  -42.2042 C.3       9 UNK         0.1400 
     28 CB         -0.7304  -20.5858  -40.6984 C.3       9 UNK        -0.1800 
     29 N          -0.5930  -19.3400  -42.8036 N.am      9 UNK        -0.5000 
     30 C          -0.8168  -18.9754  -44.0742 C.2       8 UNK         0.5000 
     31 O          -1.4578  -19.6479  -44.8831 O.2       8 UNK        -0.5000 
     32 CA         -0.1429  -17.6720  -44.5372 C.3       8 UNK         0.1400 
     33 CB         -0.9015  -16.4343  -44.0379 C.3       8 UNK        -0.1800 
     34 N           1.2599  -17.5994  -44.1306 N.am      8 UNK        -0.5000 
     35 C           2.2072  -18.4673  -44.5166 C.2       7 UNK         0.5000 
     36 O           2.0071  -19.3924  -45.3027 O.2       7 UNK        -0.5000 
     37 CA          3.5948  -18.3078  -43.8722 C.3       7 UNK         0.1400 
     38 CB          4.4407  -17.2602  -44.6127 C.3       7 UNK        -0.1800 
     39 N           3.4974  -17.9572  -42.4552 N.am      7 UNK        -0.5000 
     40 C           3.0628  -18.7941  -41.5018 C.2       6 UNK         0.5000 
     41 O           2.7497  -19.9654  -41.7122 O.2       6 UNK        -0.5000 
     42 CA          2.9106  -18.2087  -40.0860 C.3       6 UNK         0.1400 
     43 CB          4.2582  -18.2132  -39.3492 C.3       6 UNK        -0.1800 
     44 N           2.3692  -16.8488  -40.1003 N.am      6 UNK        -0.5000 
     45 C           1.1271  -16.5313  -40.4933 C.2       5 UNK         0.5000 
     46 O           0.2871  -17.3634  -40.8337 O.2       5 UNK        -0.5000 
     47 CA          0.7863  -15.0297  -40.5695 C.3       5 UNK         0.1400 
     48 CB          0.2277  -14.5315  -39.2290 C.3       5 UNK        -0.1800 
     49 N           1.9316  -14.2007  -40.9594 N.am      5 UNK        -0.5000 
     50 C           2.5503  -14.2810  -42.1437 C.2       4 UNK         0.5000 
     51 O           2.1999  -15.0470  -43.0466 O.2       4 UNK        -0.5000 
     52 CA          3.7983  -13.4083  -42.3266 C.3       4 UNK         0.1400 
     53 CB          4.9999  -14.0136  -41.5773 C.3       4 UNK        -0.1800 
     54 N           4.0960  -13.3271  -43.7501 N.am      4 UNK        -0.5000 
     55 C           4.8130  -12.3760  -44.3582 C.2       3 UNK         0.5000 
     56 O           5.3572  -11.4457  -43.7617 O.2       3 UNK        -0.5000 
     57 CA          4.9500  -12.4755  -45.8932 C.3       3 UNK         0.1400 
     58 CB          6.3212  -13.0587  -46.2687 C.3       3 UNK        -0.1800 
     59 N           3.9050  -13.2838  -46.5307 N.am      3 UNK        -0.5000 
     60 C           2.6100  -12.9460  -46.5979 C.2       2 UNK         0.5000 
     61 O           2.1711  -11.8763  -46.1702 O.2       2 UNK        -0.5000 
     62 CA          1.6607  -13.9847  -47.2306 C.3       2 UNK         0.1400 
     63 CB          2.0003  -15.4186  -46.7948 C.3       2 UNK        -0.1800 
     64 N           0.2801  -13.7217  -46.8391 N.am      2 UNK        -0.5000 
     65 C          -0.6104  -13.0095  -47.5385 C.2       1 UNK         0.5000 
     66 O          -0.3880  -12.5393  -48.6555 O.2       1 UNK        -0.5000 
     67 C          -1.5691  -22.7915  -46.9831 C.2       11 UNK         0.5000 
     68 O          -1.9018  -23.8381  -47.5360 O.2       11 UNK        -0.5000 
     69 N          -2.3370  -22.1400  -46.0946 N.am      12 UNK        -0.5000 
     70 CA         -3.7350  -22.4601  -45.7766 C.3       12 UNK         0.1400 
     71 CB         -4.2648  -21.4470  -44.7525 C.3       12 UNK        -0.1800 
     72 C          -3.9898  -23.9019  -45.2944 C.2       12 UNK         0.5000 
     73 O          -5.0910  -24.4166  -45.4912 O.2       12 UNK        -0.5000 
     74 N          -2.9660  -24.5391  -44.7125 N.am      13 UNK        -0.5000 
     75 CA         -2.9449  -25.9566  -44.3507 C.3       13 UNK         0.1400 
     76 CB         -1.6572  -26.2408  -43.5620 C.3       13 UNK        -0.1800 
     77 C          -3.0617  -26.9213  -45.5532 C.2       13 UNK         0.5000 
     78 O          -3.4805  -28.0634  -45.3578 O.2       13 UNK        -0.5000 
     79 N          -2.6942  -26.4624  -46.7575 N.am      14 UNK        -0.5000 
     80 CA         -2.7660  -27.2129  -48.0085 C.3       14 UNK         0.1400 
     81 CB         -1.3626  -27.2872  -48.6364 C.3       14 UNK        -0.1800 
     82 C          -3.7814  -26.5583  -48.9591 C.2       14 UNK         0.5000 
     83 O          -4.8209  -27.1557  -49.2412 O.2       14 UNK        -0.5000 
     84 N          -3.4709  -25.3426  -49.4221 N.am      15 UNK        -0.5000 
     85 CA         -4.2642  -24.5213  -50.3315 C.3       15 UNK         0.1400 
     86 CB         -4.3233  -25.1425  -51.7393 C.3       15 UNK        -0.1800 
     87 C          -3.6283  -23.1265  -50.3899 C.2       15 UNK         0.5000 
     88 O          -2.4021  -23.0111  -50.3396 O.2       15 UNK        -0.5000 
     89 N          -4.4640  -22.0927  -50.5041 N.am      16 UNK        -0.5000 
     90 CA         -4.0627  -20.6900  -50.4914 C.3       16 UNK         0.1400 
     91 CB         -3.9304  -20.2210  -49.0308 C.3       16 UNK        -0.1800 
     92 C          -5.1085  -19.8581  -51.2466 C.2       16 UNK         0.5000 
     93 O          -6.1078  -20.4088  -51.7170 O.2       16 UNK        -0.5000 
     94 N          -4.8606  -18.5436  -51.3402 N.am      17 UNK        -0.5000 
     95 CA         -5.7680  -17.5113  -51.8654 C.3       17 UNK         0.1400 
     96 CB         -6.9444  -17.2997  -50.8905 C.3       17 UNK        -0.1800 
     97 C          -6.2338  -17.7626  -53.3166 C.2       17 UNK         0.5000 
     98 O          -7.3632  -17.4255  -53.6750 O.2       17 UNK        -0.5000 
     99 N          -5.3440  -18.3693  -54.1140 N.am      18 UNK        -0.5000 
    100 CA        -5.5192  -18.7722  -55.5112 C.3       18 UNK         0.1400 
    101 CB        -5.7129  -17.5406  -56.4200 C.3       18 UNK        -0.1800 
    102 C         -6.5896  -19.8632  -55.7409 C.2       18 UNK         0.5000 
    103 O         -7.0355  -20.0349  -56.8766 O.2       18 UNK        -0.5000 
    104 N         -6.9766  -20.5998  -54.6863 N.am      19 UNK        -0.5000 
    105 CA        -7.9571  -21.6874  -54.7652 C.3       19 UNK         0.1400 
    106 CB        -8.4252  -22.0641  -53.3511 C.3       19 UNK        -0.1800 
    107 C         -7.4070  -22.9230  -55.5021 C.2       19 UNK         0.5000 
    108 O         -8.1073  -23.5032  -56.3326 O.2       19 UNK        -0.5000 
    109 N         -6.1556  -23.2813  -55.1934 N.am      20 UNK        -0.5000 
    110 CA        -5.3981  -24.3828  -55.7898 C.3       20 UNK         0.1400 
    111 CB        -5.9384  -25.7456  -55.3056 C.3       20 UNK        -0.1800 
    112 C         -3.9013  -24.1852  -55.4860 C.2       20 UNK         0.5000 
    113 O         -3.2022  -25.1372  -55.1364 O.2       20 UNK        -0.5000 
    114 N         -3.4473  -22.9312  -55.5803 N.am      21 UNK        -0.5000 
    115 CA        -2.1104  -22.4628  -55.2304 C.3       21 UNK         0.1400 
    116 CB        -1.9732  -22.3899  -53.6943 C.3       21 UNK        -0.1800 
    117 C         -1.8895  -21.0913  -55.8912 C.2       21 UNK         0.5000 
    118 O         -2.7195  -20.6617  -56.6966 O.2       21 UNK        -0.5000 
    119 N         -0.7947  -20.4188  -55.5167 N.am      22 UNK        -0.5000 
    120 CA        -0.4693  -19.0208  -55.8653 C.3       22 UNK         0.1400 
    121 C         -0.0619  -18.7861  -57.3526 C.2       22 UNK         0.5000 
    122 N          0.2261  -19.8213  -58.1317 N.am      22 UNK        -0.7600 
    123 O          0.0286  -17.6471  -57.8031 O.2       22 UNK        -0.5000 
    124 C124       -1.5383  -17.9966  -55.3776 C.3       23 UNK        -0.0398 
    125 S125       -1.9922  -18.2114  -53.6202 S.3       23 UNK        -0.2404 
    126 C126       -1.0487  -16.8691  -52.8383 C.3       23 UNK        -0.0205 
    127 H127       -1.8926  -11.7873  -42.4617 H         1 UNK         0.0600 
    128 H128       -0.3340  -12.5742  -42.7351 H         1 UNK         0.0600 
    129 H129       -1.8309  -13.4883  -42.9318 H         1 UNK         0.0600 
    130 H130       -2.3483  -13.8085  -45.0807 H         1 UNK         0.3000 
    131 H131       -2.2382  -11.7294  -47.0768 H         1 UNK         0.0600 
    132 H132       -4.0651  -13.2025  -47.3060 H         1 UNK         0.0800 
    133 H133       -3.0079  -13.6236  -48.6167 H         1 UNK         0.0800 
    134 H134       -4.1718  -15.7224  -49.0827 H         1 UNK         0.0800 
    135 H135       -4.0561  -17.1970  -48.1657 H         1 UNK         0.0800 
    136 H136       -2.9850  -16.0421  -51.1192 H         1 UNK         0.1150 
    137 H137        0.8196  -18.0119  -51.2159 H         1 UNK         0.1150 
    138 H138       -1.2692  -17.5600  -47.5030 H         1 UNK         0.1150 
    139 H139        2.0169  -18.0336  -48.8698 H         1 UNK         0.0800 
    140 H140        1.0155  -18.3396  -47.4782 H         1 UNK         0.0800 
    141 H141       -1.0539  -21.0122  -48.9185 H         1 UNK         0.0800 
    142 H142       -0.7767  -20.0910  -47.4606 H         1 UNK         0.0800 
    143 H143        0.3335  -22.8971  -47.9358 H         1 UNK         0.0600 
    144 H144        0.7157  -21.1056  -45.6919 H         1 UNK         0.3000 
    145 H145        1.5125  -23.7175  -43.3629 H         1 UNK         0.0600 
    146 H146        3.5247  -22.3037  -43.0111 H         1 UNK         0.0600 
    147 H147        3.6767  -23.2614  -44.4754 H         1 UNK         0.0600 
    148 H148        3.2955  -21.5514  -44.5890 H         1 UNK         0.0600 
    149 H149        1.4073  -20.9218  -42.9795 H         1 UNK         0.3000 
    150 H150       -2.1136  -20.6646  -42.3290 H         1 UNK         0.0600 
    151 H151       -1.0717  -21.5061  -40.2229 H         1 UNK         0.0600 
    152 H152       -1.2363  -19.7565  -40.2036 H         1 UNK         0.0600 
    153 H153        0.3375  -20.4901  -40.5016 H         1 UNK         0.0600 
    154 H154       -0.0886  -18.7011  -42.1955 H         1 UNK         0.3000 
    155 H155       -0.1641  -17.6578  -45.6245 H         1 UNK         0.0600 
    156 H156       -0.9380  -16.3913  -42.9509 H         1 UNK         0.0600 
    157 H157       -1.9318  -16.4435  -44.3936 H         1 UNK         0.0600 
    158 H158       -0.4368  -15.5157  -44.3946 H         1 UNK         0.0600 
    159 H159        1.5226  -16.8324  -43.5202 H         1 UNK         0.3000 
    160 H160        4.1079  -19.2684  -43.9516 H         1 UNK         0.0600 
    161 H161        4.0214  -16.2595  -44.5254 H         1 UNK         0.0600 
    162 H162        4.5102  -17.4959  -45.6755 H         1 UNK         0.0600 
    163 H163        5.4571  -17.2289  -44.2202 H         1 UNK         0.0600 
    164 H164        3.6896  -16.9985  -42.2091 H         1 UNK         0.3000 
    165 H165        2.2163  -18.8462  -39.5343 H         1 UNK         0.0600 
    166 H166        4.1457  -17.8710  -38.3203 H         1 UNK         0.0600 
    167 H167        4.6784  -19.2192  -39.3118 H         1 UNK         0.0600 
    168 H168        4.9898  -17.5696  -39.8394 H         1 UNK         0.0600 
    169 H169        2.9931  -16.1045  -39.8268 H         1 UNK         0.3000 
    170 H170        0.0103  -14.9047  -41.3267 H         1 UNK         0.0600 
    171 H171       -0.6397  -15.1194  -38.9255 H         1 UNK         0.0600 
    172 H172        0.9682  -14.6025  -38.4314 H         1 UNK         0.0600 
    173 H173       -0.0943  -13.4923  -39.2983 H         1 UNK         0.0600 
    174 H174        2.2762  -13.5526  -40.2655 H         1 UNK         0.3000 
    175 H175        3.5815  -12.4093  -41.9429 H         1 UNK         0.0600 
    176 H176        5.2430  -15.0106  -41.9470 H         1 UNK         0.0600 
    177 H177        5.8889  -13.3927  -41.6888 H         1 UNK         0.0600 
    178 H178        4.8000  -14.0968  -40.5085 H         1 UNK         0.0600 
    179 H179        3.6286  -14.0296  -44.3073 H         1 UNK         0.3000 
    180 H180        4.8875  -11.4614  -46.2935 H         1 UNK         0.0600 
    181 H181        7.1296  -12.4659  -45.8386 H         1 UNK         0.0600 
    182 H182        6.4656  -13.0655  -47.3493 H         1 UNK         0.0600 
    183 H183        6.4361  -14.0813  -45.9065 H         1 UNK         0.0600 
    184 H184        4.1980  -14.1706  -46.9137 H         1 UNK         0.3000 
    185 H185        1.7602  -13.9185  -48.3158 H         1 UNK         0.0600 
    186 H186        2.9381  -15.7663  -47.2287 H         1 UNK         0.0600 
    187 H187        2.0783  -15.4950  -45.7116 H         1 UNK         0.0600 
    188 H188        1.2216  -16.1065  -47.1153 H         1 UNK         0.0600 
    189 H189        0.0194  -14.0064  -45.9080 H         1 UNK         0.3000 
    190 H190       -1.9676  -21.2998  -45.6551 H         1 UNK         0.3000 
    191 H191       -4.3056  -22.3350  -46.6987 H         1 UNK         0.0600 
    192 H192       -3.7228  -21.5155  -43.8098 H         1 UNK         0.0600 
    193 H193       -5.3200  -21.6210  -44.5382 H         1 UNK         0.0600 
    194 H194       -4.1727  -20.4253  -45.1218 H         1 UNK         0.0600 
    195 H195       -2.1233  -24.0089  -44.5200 H         1 UNK         0.3000 
    196 H196       -3.7978  -26.1458  -43.6960 H         1 UNK         0.0600 
    197 H197       -1.6067  -27.2860  -43.2544 H         1 UNK         0.0600 
    198 H198       -1.6062  -25.6335  -42.6581 H         1 UNK         0.0600 
    199 H199       -0.7684  -26.0285  -44.1580 H         1 UNK         0.0600 
    200 H200       -2.3959  -25.4933  -46.8434 H         1 UNK         0.3000 
    201 H201       -3.1026  -28.2358  -47.8279 H         1 UNK         0.0600 
    202 H202       -0.6817  -27.8526  -48.0001 H         1 UNK         0.0600 
    203 H203       -0.9277  -26.2984  -48.7875 H         1 UNK         0.0600 
    204 H204       -1.3933  -27.7871  -49.6053 H         1 UNK         0.0600 
    205 H205       -2.6353  -24.8765  -49.0752 H         1 UNK         0.3000 
    206 H206       -5.2745  -24.4337  -49.9271 H         1 UNK         0.0600 
    207 H207       -3.3252  -25.3177  -52.1425 H         1 UNK         0.0600 
    208 H208       -4.8552  -26.0934  -51.7390 H         1 UNK         0.0600 
    209 H209       -4.8457  -24.4826  -52.4325 H         1 UNK         0.0600 
    210 H210       -5.4570  -22.2397  -50.6342 H         1 UNK         0.3000 
    211 H211       -3.1048  -20.5763  -51.0040 H         1 UNK         0.0600 
    212 H212       -4.9022  -20.1226  -48.5453 H         1 UNK         0.0600 
    213 H213       -3.4289  -19.2584  -48.9760 H         1 UNK         0.0600 
    214 H214       -3.3392  -20.9154  -48.4397 H         1 UNK         0.0600 
    215 H215       -3.9861  -18.2001  -50.9682 H         1 UNK         0.3000 
    216 H216       -5.1965  -16.5831  -51.8950 H         1 UNK         0.0600 
    217 H217       -7.5571  -16.4490  -51.1910 H         1 UNK         0.0600 
    218 H218       -6.5875  -17.0988  -49.8803 H         1 UNK         0.0600 
    219 H219       -7.5948  -18.1741  -50.8486 H         1 UNK         0.0600 
    220 H220       -4.4421  -18.5895  -53.7123 H         1 UNK         0.3000 
    221 H221       -4.5763  -19.2318  -55.7958 H         1 UNK         0.0600 
    222 H222       -6.6775  -17.0606  -56.2531 H         1 UNK         0.0600 
    223 H223       -4.9332  -16.7984  -56.2487 H         1 UNK         0.0600 
    224 H224       -5.6653  -17.8193  -57.4733 H         1 UNK         0.0600 
    225 H225       -6.5999  -20.3916  -53.7678 H         1 UNK         0.3000 
    226 H226       -8.8248  -21.3242  -55.3203 H         1 UNK         0.0600 
    227 H227       -8.8419  -21.2014  -52.8308 H         1 UNK         0.0600 
    228 H228       -9.2020  -22.8289  -53.3889 H         1 UNK         0.0600 
    229 H229       -7.6083  -22.4571  -52.7449 H         1 UNK         0.0600 
    230 H230       -5.6599  -22.7389  -54.5002 H         1 UNK         0.3000 
    231 H231       -5.5069  -24.3328  -56.8749 H         1 UNK         0.0600 
    232 H232       -6.9805  -25.8879  -55.5905 H         1 UNK         0.0600 
    233 H233       -5.8739  -25.8414  -54.2219 H         1 UNK         0.0600 
    234 H234       -5.3745  -26.5699  -55.7438 H         1 UNK         0.0600 
    235 H235       -4.0340  -22.2135  -55.9877 H         1 UNK         0.3000 
    236 H236       -1.3690  -23.1542  -55.6355 H         1 UNK         0.0600 
    237 H237       -2.6780  -21.6777  -53.2640 H         1 UNK         0.0600 
    238 H238       -2.1568  -23.3590  -53.2316 H         1 UNK         0.0600 
    239 H239       -0.9715  -22.0861  -53.3898 H         1 UNK         0.0600 
    240 H240       -0.1602  -20.8558  -54.8643 H         1 UNK         0.3000 
    241 H241        0.4416  -18.8034  -55.3066 H         1 UNK         0.0600 
    242 H242        0.1623  -20.7619  -57.7767 H         1 UNK         0.3800 
    243 H243        0.4991  -19.6629  -59.0892 H         1 UNK         0.3800 
    244 H244       -1.1845  -16.9752  -55.5262 H         1 UNK         0.0800 
    245 H245       -2.4452  -18.0819  -55.9766 H         1 UNK         0.0800 
    246 H246       -1.4656  -15.9053  -53.1345 H         1 UNK         0.0800 
    247 H247       -0.0179  -16.8885  -53.1958 H         1 UNK         0.0800 
@<TRIPOS>BOND
     1    1    2 1    
     2    1  127 1    
     3    1  128 1    
     4    1  129 1    
     5    2    3 2    
     6    2    4 am   BACKBONE|DICT|INTERRES
     7    4    5 1    
     8    4  130 1    
     9    5    6 1    
    10    5   65 1    
    11    5  131 1    
    12    6    7 1    
    13    6  132 1    
    14    6  133 1    
    15    7    8 1    
    16    8    9 1    
    17    8  134 1    
    18    8  135 1    
    19    9   10 ar   
    20    9   14 ar   
    21   10   11 ar   
    22   10  136 1    
    23   11   12 ar   
    24   11  126 1    
    25   12   13 ar   
    26   12  137 1    
    27   13   14 ar   
    28   13   15 1    
    29   14  138 1    
    30   15   16 1    
    31   15  139 1    
    32   15  140 1    
    33   16   17 1    
    34   17   18 1    
    35   17  141 1    
    36   17  142 1    
    37   18   19 1    
    38   18   67 1    
    39   18  143 1    
    40   19   20 am   BACKBONE|DICT|INTERRES
    41   19  144 1    
    42   20   21 2    
    43   20   22 1    
    44   22   23 1    
    45   22   24 1    
    46   22  145 1    
    47   23  146 1    
    48   23  147 1    
    49   23  148 1    
    50   24   25 am   BACKBONE|DICT|INTERRES
    51   24  149 1    
    52   25   26 2    
    53   25   27 1    
    54   27   28 1    
    55   27   29 1    
    56   27  150 1    
    57   28  151 1    
    58   28  152 1    
    59   28  153 1    
    60   29   30 am   BACKBONE|DICT|INTERRES
    61   29  154 1    
    62   30   31 2    
    63   30   32 1    
    64   32   33 1    
    65   32   34 1    
    66   32  155 1    
    67   33  156 1    
    68   33  157 1    
    69   33  158 1    
    70   34   35 am   BACKBONE|DICT|INTERRES
    71   34  159 1    
    72   35   36 2    
    73   35   37 1    
    74   37   38 1    
    75   37   39 1    
    76   37  160 1    
    77   38  161 1    
    78   38  162 1    
    79   38  163 1    
    80   39   40 am   BACKBONE|DICT|INTERRES
    81   39  164 1    
    82   40   41 2    
    83   40   42 1    
    84   42   43 1    
    85   42   44 1    
    86   42  165 1    
    87   43  166 1    
    88   43  167 1    
    89   43  168 1    
    90   44   45 am   BACKBONE|DICT|INTERRES
    91   44  169 1    
    92   45   46 2    
    93   45   47 1    
    94   47   48 1    
    95   47   49 1    
    96   47  170 1    
    97   48  171 1    
    98   48  172 1    
    99   48  173 1    
   100   49   50 am   BACKBONE|DICT|INTERRES
   101   49  174 1    
   102   50   51 2    
   103   50   52 1    
   104   52   53 1    
   105   52   54 1    
   106   52  175 1    
   107   53  176 1    
   108   53  177 1    
   109   53  178 1    
   110   54   55 am   BACKBONE|DICT|INTERRES
   111   54  179 1    
   112   55   56 2    
   113   55   57 1    
   114   57   58 1    
   115   57   59 1    
   116   57  180 1    
   117   58  181 1    
   118   58  182 1    
   119   58  183 1    
   120   59   60 am   BACKBONE|DICT|INTERRES
   121   59  184 1    
   122   60   61 2    
   123   60   62 1    
   124   62   63 1    
   125   62   64 1    
   126   62  185 1    
   127   63  186 1    
   128   63  187 1    
   129   63  188 1    
   130   64   65 am   BACKBONE|DICT|INTERRES
   131   64  189 1    
   132   65   66 2    
   133   67   68 2    
   134   67   69 am   BACKBONE|DICT|INTERRES
   135   69   70 1    
   136   69  190 1    
   137   70   71 1    
   138   70   72 1    
   139   70  191 1    
   140   71  192 1    
   141   71  193 1    
   142   71  194 1    
   143   72   73 2    
   144   72   74 am   BACKBONE|DICT|INTERRES
   145   74   75 1    
   146   74  195 1    
   147   75   76 1    
   148   75   77 1    
   149   75  196 1    
   150   76  197 1    
   151   76  198 1    
   152   76  199 1    
   153   77   78 2    
   154   77   79 am   BACKBONE|DICT|INTERRES
   155   79   80 1    
   156   79  200 1    
   157   80   81 1    
   158   80   82 1    
   159   80  201 1    
   160   81  202 1    
   161   81  203 1    
   162   81  204 1    
   163   82   83 2    
   164   82   84 am   BACKBONE|DICT|INTERRES
   165   84   85 1    
   166   84  205 1    
   167   85   86 1    
   168   85   87 1    
   169   85  206 1    
   170   86  207 1    
   171   86  208 1    
   172   86  209 1    
   173   87   88 2    
   174   87   89 am   BACKBONE|DICT|INTERRES
   175   89   90 1    
   176   89  210 1    
   177   90   91 1    
   178   90   92 1    
   179   90  211 1    
   180   91  212 1    
   181   91  213 1    
   182   91  214 1    
   183   92   93 2    
   184   92   94 am   BACKBONE|DICT|INTERRES
   185   94   95 1    
   186   94  215 1    
   187   95   96 1    
   188   95   97 1    
   189   95  216 1    
   190   96  217 1    
   191   96  218 1    
   192   96  219 1    
   193   97   98 2    
   194   97   99 am   BACKBONE|DICT|INTERRES
   195   99  100 1    
   196   99  220 1    
   197  100  101 1    
   198  100  102 1    
   199  100  221 1    
   200  101  222 1    
   201  101  223 1    
   202  101  224 1    
   203  102  103 2    
   204  102  104 am   BACKBONE|DICT|INTERRES
   205  104  105 1    
   206  104  225 1    
   207  105  106 1    
   208  105  107 1    
   209  105  226 1    
   210  106  227 1    
   211  106  228 1    
   212  106  229 1    
   213  107  108 2    
   214  107  109 am   BACKBONE|DICT|INTERRES
   215  109  110 1    
   216  109  230 1    
   217  110  111 1    
   218  110  112 1    
   219  110  231 1    
   220  111  232 1    
   221  111  233 1    
   222  111  234 1    
   223  112  113 2    
   224  112  114 am   BACKBONE|DICT|INTERRES
   225  114  115 1    
   226  114  235 1    
   227  115  116 1    
   228  115  117 1    
   229  115  236 1    
   230  116  237 1    
   231  116  238 1    
   232  116  239 1    
   233  117  118 2    
   234  117  119 am   BACKBONE|DICT|INTERRES
   235  119  120 1    
   236  119  240 1    
   237  120  121 1    
   238  120  124 1    
   239  120  241 1    
   240  121  122 am   BACKBONE|DICT|INTERRES
   241  121  123 2    
   242  122  242 1    
   243  122  243 1    
   244  124  125 1    
   245  124  244 1    
   246  124  245 1    
   247  125  126 1    
   248  126  246 1    
   249  126  247 1    
@<TRIPOS>SUBSTRUCTURE
     1 UNK         1 GROUP             0       ****    0 ROOT    
