@<TRIPOS>MOLECULE
3R540
247   249    1
SMALL
USER_CHARGES


@<TRIPOS>ATOM
      1 CA          3.1261   -9.6793  -47.0322 C.3       0 UNK        -0.1800 
      2 C           3.9040  -10.4196  -48.1184 C.2       0 UNK         0.5000 
      3 O           4.3415   -9.7937  -49.0814 O.2       0 UNK        -0.5000 
      4 N           4.1024  -11.7416  -48.0169 N.am      1 UNK        -0.5000 
      5 CA          3.6188  -12.6324  -46.9525 C.3       1 UNK         0.1400 
      6 C6          4.5456  -13.8639  -46.7744 C.3       23 UNK        -0.0398 
      7 S7          4.6387  -14.9588  -48.2370 S.3       23 UNK        -0.2404 
      8 C8          3.5585  -16.3152  -47.6862 C.3       23 UNK        -0.0205 
      9 C9          3.1187  -17.2017  -48.8386 C.ar      23 UNK        -0.0193 
     10 C10         2.2283  -16.7167  -49.8017 C.ar      23 UNK        -0.1150 
     11 C11         1.7982  -17.5365  -50.8499 C.ar      23 UNK        -0.0193 
     12 C12         2.2439  -18.8612  -50.9101 C.ar      23 UNK        -0.1150 
     13 C13         3.1189  -19.3620  -49.9417 C.ar      23 UNK        -0.0193 
     14 C14         3.5722  -18.5191  -48.9246 C.ar      23 UNK        -0.1150 
     15 C15         3.5578  -20.8192  -49.9781 C.3       23 UNK        -0.0205 
     16 S16         2.9913  -21.7445  -48.5114 S.3       23 UNK        -0.2404 
     17 C17         1.1958  -21.4356  -48.5679 C.3       23 UNK        -0.0398 
     18 CA          0.4140  -22.3108  -47.5625 C.3       11 UNK         0.1400 
     19 N           0.7976  -22.0731  -46.1669 N.am      11 UNK        -0.5000 
     20 C           0.4584  -22.8687  -45.1413 C.2       10 UNK         0.5000 
     21 O          -0.2336  -23.8776  -45.2756 O.2       10 UNK        -0.5000 
     22 CA          0.9147  -22.4455  -43.7296 C.3       10 UNK         0.1400 
     23 CB          1.2688  -23.6415  -42.8222 C.3       10 UNK        -0.1800 
     24 N           1.9645  -21.4209  -43.7383 N.am      10 UNK        -0.5000 
     25 C           3.2557  -21.5613  -44.0706 C.2       9 UNK         0.5000 
     26 O           3.7831  -22.6402  -44.3399 O.2       9 UNK        -0.5000 
     27 CA          4.1063  -20.2807  -44.1393 C.3       9 UNK         0.1400 
     28 CB          4.2951  -19.8367  -45.5972 C.3       9 UNK        -0.1800 
     29 N           3.5426  -19.1613  -43.3776 N.am      9 UNK        -0.5000 
     30 C           4.2777  -18.3004  -42.6611 C.2       8 UNK         0.5000 
     31 O           5.4995  -18.3874  -42.5295 O.2       8 UNK        -0.5000 
     32 CA          3.5403  -17.1308  -41.9835 C.3       8 UNK         0.1400 
     33 CB          3.5203  -15.9002  -42.9052 C.3       8 UNK        -0.1800 
     34 N           2.1726  -17.4450  -41.5683 N.am      8 UNK        -0.5000 
     35 C           1.8535  -18.2595  -40.5517 C.2       7 UNK         0.5000 
     36 O           2.6801  -18.9062  -39.9079 O.2       7 UNK        -0.5000 
     37 CA          0.3645  -18.3602  -40.1826 C.3       7 UNK         0.1400 
     38 CB         -0.0440  -17.1813  -39.2851 C.3       7 UNK        -0.1800 
     39 N          -0.4751  -18.3606  -41.3787 N.am      7 UNK        -0.5000 
     40 C          -1.0841  -19.4407  -41.8830 C.2       6 UNK         0.5000 
     41 O          -1.0585  -20.5523  -41.3560 O.2       6 UNK        -0.5000 
     42 CA         -1.8395  -19.2635  -43.2152 C.3       6 UNK         0.1400 
     43 CB         -3.3358  -19.0318  -42.9554 C.3       6 UNK        -0.1800 
     44 N          -1.3184  -18.1775  -44.0494 N.am      6 UNK        -0.5000 
     45 C          -0.1003  -18.1564  -44.6068 C.2       5 UNK         0.5000 
     46 O           0.7123  -19.0741  -44.5053 O.2       5 UNK        -0.5000 
     47 CA          0.3005  -16.8913  -45.3813 C.3       5 UNK         0.1400 
     48 CB         -0.0628  -17.0453  -46.8656 C.3       5 UNK        -0.1800 
     49 N          -0.2731  -15.6396  -44.8830 N.am      5 UNK        -0.5000 
     50 C          -0.2750  -15.1692  -43.6264 C.2       4 UNK         0.5000 
     51 O           0.1259  -15.8125  -42.6557 O.2       4 UNK        -0.5000 
     52 CA         -0.8124  -13.7381  -43.4158 C.3       4 UNK         0.1400 
     53 CB          0.3252  -12.7970  -42.9904 C.3       4 UNK        -0.1800 
     54 N          -1.4555  -13.1918  -44.6142 N.am      4 UNK        -0.5000 
     55 C          -2.6858  -13.5027  -45.0416 C.2       3 UNK         0.5000 
     56 O          -3.4674  -14.2051  -44.4007 O.2       3 UNK        -0.5000 
     57 CA         -3.0877  -13.0171  -46.4495 C.3       3 UNK         0.1400 
     58 CB         -3.6828  -11.5962  -46.4140 C.3       3 UNK        -0.1800 
     59 N          -2.0106  -13.1520  -47.4454 N.am      3 UNK        -0.5000 
     60 C          -0.8791  -12.4419  -47.5583 C.2       2 UNK         0.5000 
     61 O          -0.6029  -11.4682  -46.8537 O.2       2 UNK        -0.5000 
     62 CA          0.1250  -12.9378  -48.6193 C.3       2 UNK         0.1400 
     63 CB         -0.1715  -12.2971  -49.9828 C.3       2 UNK        -0.1800 
     64 N           1.5221  -12.6711  -48.2666 N.am      2 UNK        -0.5000 
     65 C           2.1393  -13.0463  -47.1350 C.2       1 UNK         0.5000 
     66 O           1.5940  -13.7070  -46.2523 O.2       1 UNK        -0.5000 
     67 C          -1.1007  -22.1249  -47.7513 C.2       11 UNK         0.5000 
     68 O          -1.7605  -23.0153  -48.2808 O.2       11 UNK        -0.5000 
     69 N          -1.6461  -21.0010  -47.2630 N.am      12 UNK        -0.5000 
     70 CA         -3.0804  -20.7075  -47.3448 C.3       12 UNK         0.1400 
     71 CB         -3.3323  -19.2284  -47.0290 C.3       12 UNK        -0.1800 
     72 C          -3.9422  -21.6301  -46.4596 C.2       12 UNK         0.5000 
     73 O          -5.1070  -21.8623  -46.7833 O.2       12 UNK        -0.5000 
     74 N          -3.3433  -22.1818  -45.3944 N.am      13 UNK        -0.5000 
     75 CA         -3.9543  -23.2042  -44.5439 C.3       13 UNK         0.1400 
     76 CB         -3.1421  -23.3465  -43.2476 C.3       13 UNK        -0.1800 
     77 C          -4.0949  -24.5614  -45.2635 C.2       13 UNK         0.5000 
     78 O          -5.0398  -25.2996  -44.9818 O.2       13 UNK        -0.5000 
     79 N          -3.1951  -24.8505  -46.2153 N.am      14 UNK        -0.5000 
     80 CA         -3.2311  -26.0191  -47.0945 C.3       14 UNK         0.1400 
     81 CB         -1.8007  -26.3523  -47.5555 C.3       14 UNK        -0.1800 
     82 C          -4.2054  -25.7933  -48.2694 C.2       14 UNK         0.5000 
     83 O          -3.7938  -25.7666  -49.4321 O.2       14 UNK        -0.5000 
     84 N          -5.4890  -25.6158  -47.9248 N.am      15 UNK        -0.5000 
     85 CA         -6.6427  -25.4556  -48.8147 C.3       15 UNK         0.1400 
     86 CB         -6.9603  -26.7956  -49.5112 C.3       15 UNK        -0.1800 
     87 C          -6.4795  -24.2921  -49.8126 C.2       15 UNK         0.5000 
     88 O          -6.6421  -24.4900  -51.0172 O.2       15 UNK        -0.5000 
     89 N          -6.1260  -23.1047  -49.2969 N.am      16 UNK        -0.5000 
     90 CA         -5.8779  -21.8717  -50.0545 C.3       16 UNK         0.1400 
     91 CB         -7.1802  -21.3581  -50.7054 C.3       16 UNK        -0.1800 
     92 C          -4.7169  -22.0226  -51.0600 C.2       16 UNK         0.5000 
     93 O          -4.8237  -21.5611  -52.1971 O.2       16 UNK        -0.5000 
     94 N          -3.6406  -22.6942  -50.6228 N.am      17 UNK        -0.5000 
     95 CA         -2.4534  -23.0629  -51.3998 C.3       17 UNK         0.1400 
     96 CB         -1.6345  -21.8099  -51.7775 C.3       17 UNK        -0.1800 
     97 C          -2.8177  -23.9602  -52.5968 C.2       17 UNK         0.5000 
     98 O          -2.4587  -23.6564  -53.7344 O.2       17 UNK        -0.5000 
     99 N          -3.5669  -25.0341  -52.3035 N.am      18 UNK        -0.5000 
    100 CA        -4.1506  -25.9893  -53.2516 C.3       18 UNK         0.1400 
    101 CB        -3.0494  -26.8438  -53.9129 C.3       18 UNK        -0.1800 
    102 C         -5.0879  -25.3047  -54.2709 C.2       18 UNK         0.5000 
    103 O         -4.9647  -25.5183  -55.4784 O.2       18 UNK        -0.5000 
    104 N         -6.0009  -24.4775  -53.7437 N.am      19 UNK        -0.5000 
    105 CA        -7.0197  -23.6892  -54.4423 C.3       19 UNK         0.1400 
    106 CB        -8.0392  -24.6115  -55.1430 C.3       19 UNK        -0.1800 
    107 C         -6.4610  -22.5948  -55.3783 C.2       19 UNK         0.5000 
    108 O         -7.1771  -22.1426  -56.2739 O.2       19 UNK        -0.5000 
    109 N         -5.2127  -22.1613  -55.1536 N.am      20 UNK        -0.5000 
    110 CA        -4.5913  -21.0478  -55.8731 C.3       20 UNK         0.1400 
    111 CB        -3.0659  -21.1148  -55.7150 C.3       20 UNK        -0.1800 
    112 C         -5.1202  -19.6817  -55.3999 C.2       20 UNK         0.5000 
    113 O         -5.2458  -18.7709  -56.2193 O.2       20 UNK        -0.5000 
    114 N         -5.4233  -19.5756  -54.0955 N.am      21 UNK        -0.5000 
    115 CA        -5.9479  -18.4003  -53.3920 C.3       21 UNK         0.1400 
    116 CB        -7.4056  -18.1262  -53.8146 C.3       21 UNK        -0.1800 
    117 C         -5.0284  -17.1689  -53.5260 C.2       21 UNK         0.5000 
    118 O         -5.4899  -16.0759  -53.8597 O.2       21 UNK        -0.5000 
    119 N         -3.7290  -17.3857  -53.2848 N.am      22 UNK        -0.5000 
    120 CA        -2.6626  -16.3856  -53.4530 C.3       22 UNK         0.1400 
    121 C         -2.6134  -15.2484  -52.3874 C.2       22 UNK         0.5000 
    122 N         -3.4097  -15.2918  -51.3262 N.am      22 UNK        -0.7600 
    123 O         -1.8485  -14.3000  -52.5373 O.2       22 UNK        -0.5000 
    124 C124       -1.2869  -17.0648  -53.6705 C.3       23 UNK        -0.0398 
    125 S125       -0.6223  -17.9357  -52.2042 S.3       23 UNK        -0.2404 
    126 C126        0.9029  -16.9713  -51.9444 C.3       23 UNK        -0.0205 
    127 H127        3.0015   -8.6300  -47.3005 H         1 UNK         0.0600 
    128 H128        3.6588   -9.7175  -46.0822 H         1 UNK         0.0600 
    129 H129        2.1316  -10.1041  -46.8967 H         1 UNK         0.0600 
    130 H130        4.6219  -12.2080  -48.7478 H         1 UNK         0.3000 
    131 H131        3.6583  -12.0870  -46.0083 H         1 UNK         0.0600 
    132 H132        5.5577  -13.5222  -46.5538 H         1 UNK         0.0800 
    133 H133        4.2448  -14.4427  -45.8989 H         1 UNK         0.0800 
    134 H134        4.0779  -16.8959  -46.9225 H         1 UNK         0.0800 
    135 H135        2.6699  -15.9098  -47.2071 H         1 UNK         0.0800 
    136 H136        1.8873  -15.6926  -49.7408 H         1 UNK         0.1150 
    137 H137        1.9053  -19.5010  -51.7130 H         1 UNK         0.1150 
    138 H138        4.2603  -18.9027  -48.1864 H         1 UNK         0.1150 
    139 H139        3.1861  -21.3152  -50.8760 H         1 UNK         0.0800 
    140 H140        4.6464  -20.8645  -50.0286 H         1 UNK         0.0800 
    141 H141        0.8550  -21.6284  -49.5871 H         1 UNK         0.0800 
    142 H142        1.0174  -20.3759  -48.3763 H         1 UNK         0.0800 
    143 H143        0.6375  -23.3556  -47.7914 H         1 UNK         0.0600 
    144 H144        1.3654  -21.2600  -45.9797 H         1 UNK         0.3000 
    145 H145        0.0448  -21.9637  -43.2864 H         1 UNK         0.0600 
    146 H146        1.5972  -23.3062  -41.8385 H         1 UNK         0.0600 
    147 H147        0.4008  -24.2843  -42.6710 H         1 UNK         0.0600 
    148 H148        2.0569  -24.2610  -43.2501 H         1 UNK         0.0600 
    149 H149        1.6073  -20.4760  -43.6515 H         1 UNK         0.3000 
    150 H150        5.0835  -20.5512  -43.7339 H         1 UNK         0.0600 
    151 H151        4.7199  -20.6396  -46.2009 H         1 UNK         0.0600 
    152 H152        4.9741  -18.9869  -45.6660 H         1 UNK         0.0600 
    153 H153        3.3455  -19.5472  -46.0491 H         1 UNK         0.0600 
    154 H154        2.5471  -19.0016  -43.4580 H         1 UNK         0.3000 
    155 H155        4.1057  -16.8661  -41.0874 H         1 UNK         0.0600 
    156 H156        4.5327  -15.6019  -43.1804 H         1 UNK         0.0600 
    157 H157        3.0523  -15.0461  -42.4151 H         1 UNK         0.0600 
    158 H158        2.9760  -16.0941  -43.8281 H         1 UNK         0.0600 
    159 H159        1.4328  -16.9047  -42.0098 H         1 UNK         0.3000 
    160 H160        0.2240  -19.2810  -39.6127 H         1 UNK         0.0600 
    161 H161        0.0734  -16.2242  -39.7953 H         1 UNK         0.0600 
    162 H162        0.5646  -17.1493  -38.3805 H         1 UNK         0.0600 
    163 H163       -1.0850  -17.2681  -38.9738 H         1 UNK         0.0600 
    164 H164       -0.5210  -17.4866  -41.8925 H         1 UNK         0.3000 
    165 H165       -1.7327  -20.1943  -43.7749 H         1 UNK         0.0600 
    166 H166       -3.9051  -19.0078  -43.8839 H         1 UNK         0.0600 
    167 H167       -3.7548  -19.8323  -42.3441 H         1 UNK         0.0600 
    168 H168       -3.5106  -18.0922  -42.4299 H         1 UNK         0.0600 
    169 H169       -1.9091  -17.3662  -44.1624 H         1 UNK         0.3000 
    170 H170        1.3840  -16.8013  -45.3073 H         1 UNK         0.0600 
    171 H171        0.3766  -17.9493  -47.2901 H         1 UNK         0.0600 
    172 H172       -1.1415  -17.0991  -47.0105 H         1 UNK         0.0600 
    173 H173        0.3052  -16.2036  -47.4515 H         1 UNK         0.0600 
    174 H174       -0.5719  -14.9887  -45.5928 H         1 UNK         0.3000 
    175 H175       -1.5445  -13.7791  -42.6069 H         1 UNK         0.0600 
    176 H176        1.0927  -12.7184  -43.7611 H         1 UNK         0.0600 
    177 H177       -0.0489  -11.7937  -42.7865 H         1 UNK         0.0600 
    178 H178        0.8098  -13.1538  -42.0806 H         1 UNK         0.0600 
    179 H179       -0.8870  -12.5949  -45.2073 H         1 UNK         0.3000 
    180 H180       -3.8797  -13.6855  -46.7911 H         1 UNK         0.0600 
    181 H181       -2.9839  -10.8655  -46.0068 H         1 UNK         0.0600 
    182 H182       -4.5758  -11.5687  -45.7885 H         1 UNK         0.0600 
    183 H183       -3.9739  -11.2650  -47.4108 H         1 UNK         0.0600 
    184 H184       -2.1304  -13.9327  -48.0754 H         1 UNK         0.3000 
    185 H185        0.0181  -14.0201  -48.7141 H         1 UNK         0.0600 
    186 H186        0.4794  -12.7003  -50.7590 H         1 UNK         0.0600 
    187 H187       -1.1988  -12.4912  -50.2941 H         1 UNK         0.0600 
    188 H188       -0.0352  -11.2152  -49.9561 H         1 UNK         0.0600 
    189 H189        2.0548  -12.1295  -48.9308 H         1 UNK         0.3000 
    190 H190       -1.0557  -20.3151  -46.8176 H         1 UNK         0.3000 
    191 H191       -3.3914  -20.8747  -48.3768 H         1 UNK         0.0600 
    192 H192       -2.8545  -18.5860  -47.7684 H         1 UNK         0.0600 
    193 H193       -4.3987  -18.9991  -47.0455 H         1 UNK         0.0600 
    194 H194       -2.9532  -18.9546  -46.0477 H         1 UNK         0.0600 
    195 H195       -2.3717  -21.9734  -45.2291 H         1 UNK         0.3000 
    196 H196       -4.9581  -22.8671  -44.2765 H         1 UNK         0.0600 
    197 H197       -3.6202  -24.0523  -42.5673 H         1 UNK         0.0600 
    198 H198       -3.0620  -22.3948  -42.7221 H         1 UNK         0.0600 
    199 H199       -2.1336  -23.7122  -43.4369 H         1 UNK         0.0600 
    200 H200       -2.4630  -24.1807  -46.4130 H         1 UNK         0.3000 
    201 H201       -3.5976  -26.8779  -46.5283 H         1 UNK         0.0600 
    202 H202       -1.1398  -26.5125  -46.7034 H         1 UNK         0.0600 
    203 H203       -1.3703  -25.5583  -48.1647 H         1 UNK         0.0600 
    204 H204       -1.7884  -27.2640  -48.1537 H         1 UNK         0.0600 
    205 H205       -5.6952  -25.6085  -46.9314 H         1 UNK         0.3000 
    206 H206       -7.4936  -25.2007  -48.1816 H         1 UNK         0.0600 
    207 H207       -7.1134  -27.5918  -48.7828 H         1 UNK         0.0600 
    208 H208       -7.8716  -26.7216  -50.1058 H         1 UNK         0.0600 
    209 H209       -6.1568  -27.1045  -50.1809 H         1 UNK         0.0600 
    210 H210       -5.9773  -23.0281  -48.2962 H         1 UNK         0.3000 
    211 H211       -5.5631  -21.1177  -49.3339 H         1 UNK         0.0600 
    212 H212       -7.5309  -22.0192  -51.4974 H         1 UNK         0.0600 
    213 H213       -7.0361  -20.3723  -51.1457 H         1 UNK         0.0600 
    214 H214       -7.9781  -21.2670  -49.9686 H         1 UNK         0.0600 
    215 H215       -3.6499  -23.0633  -49.6812 H         1 UNK         0.3000 
    216 H216       -1.8288  -23.6798  -50.7535 H         1 UNK         0.0600 
    217 H217       -0.7183  -22.0835  -52.3016 H         1 UNK         0.0600 
    218 H218       -1.3451  -21.2491  -50.8890 H         1 UNK         0.0600 
    219 H219       -2.1926  -21.1344  -52.4243 H         1 UNK         0.0600 
    220 H220       -3.7935  -25.1978  -51.3255 H         1 UNK         0.3000 
    221 H221       -4.7776  -26.6593  -52.6613 H         1 UNK         0.0600 
    222 H222       -2.3986  -26.2457  -54.5514 H         1 UNK         0.0600 
    223 H223       -2.4270  -27.3320  -53.1630 H         1 UNK         0.0600 
    224 H224       -3.4848  -27.6277  -54.5334 H         1 UNK         0.0600 
    225 H225       -6.0411  -24.4058  -52.7276 H         1 UNK         0.3000 
    226 H226       -7.5567  -23.1533  -53.6592 H         1 UNK         0.0600 
    227 H227       -7.5966  -25.1344  -55.9911 H         1 UNK         0.0600 
    228 H228       -8.4319  -25.3594  -54.4541 H         1 UNK         0.0600 
    229 H229       -8.8903  -24.0426  -55.5189 H         1 UNK         0.0600 
    230 H230       -4.6904  -22.5578  -54.3825 H         1 UNK         0.3000 
    231 H231       -4.8225  -21.1475  -56.9358 H         1 UNK         0.0600 
    232 H232       -2.6721  -22.0606  -56.0875 H         1 UNK         0.0600 
    233 H233       -2.7660  -21.0145  -54.6725 H         1 UNK         0.0600 
    234 H234       -2.5791  -20.3152  -56.2746 H         1 UNK         0.0600 
    235 H235       -5.2435  -20.3860  -53.5037 H         1 UNK         0.3000 
    236 H236       -5.9544  -18.6536  -52.3318 H         1 UNK         0.0600 
    237 H237       -8.0290  -19.0082  -53.6673 H         1 UNK         0.0600 
    238 H238       -7.8396  -17.3198  -53.2224 H         1 UNK         0.0600 
    239 H239       -7.4762  -17.8375  -54.8637 H         1 UNK         0.0600 
    240 H240       -3.4305  -18.3084  -53.0043 H         1 UNK         0.3000 
    241 H241       -2.8868  -15.8669  -54.3872 H         1 UNK         0.0600 
    242 H242       -3.3928  -14.5349  -50.6638 H         1 UNK         0.3800 
    243 H243       -4.0472  -16.0600  -51.1982 H         1 UNK         0.3800 
    244 H244       -1.3628  -17.7901  -54.4818 H         1 UNK         0.0800 
    245 H245       -0.5660  -16.3241  -54.0200 H         1 UNK         0.0800 
    246 H246        0.6285  -15.9384  -51.7230 H         1 UNK         0.0800 
    247 H247        1.4762  -16.9488  -52.8722 H         1 UNK         0.0800 
@<TRIPOS>BOND
     1    1    2 1    
     2    1  127 1    
     3    1  128 1    
     4    1  129 1    
     5    2    3 2    
     6    2    4 am   BACKBONE|DICT|INTERRES
     7    4    5 1    
     8    4  130 1    
     9    5    6 1    
    10    5   65 1    
    11    5  131 1    
    12    6    7 1    
    13    6  132 1    
    14    6  133 1    
    15    7    8 1    
    16    8    9 1    
    17    8  134 1    
    18    8  135 1    
    19    9   10 ar   
    20    9   14 ar   
    21   10   11 ar   
    22   10  136 1    
    23   11   12 ar   
    24   11  126 1    
    25   12   13 ar   
    26   12  137 1    
    27   13   14 ar   
    28   13   15 1    
    29   14  138 1    
    30   15   16 1    
    31   15  139 1    
    32   15  140 1    
    33   16   17 1    
    34   17   18 1    
    35   17  141 1    
    36   17  142 1    
    37   18   19 1    
    38   18   67 1    
    39   18  143 1    
    40   19   20 am   BACKBONE|DICT|INTERRES
    41   19  144 1    
    42   20   21 2    
    43   20   22 1    
    44   22   23 1    
    45   22   24 1    
    46   22  145 1    
    47   23  146 1    
    48   23  147 1    
    49   23  148 1    
    50   24   25 am   BACKBONE|DICT|INTERRES
    51   24  149 1    
    52   25   26 2    
    53   25   27 1    
    54   27   28 1    
    55   27   29 1    
    56   27  150 1    
    57   28  151 1    
    58   28  152 1    
    59   28  153 1    
    60   29   30 am   BACKBONE|DICT|INTERRES
    61   29  154 1    
    62   30   31 2    
    63   30   32 1    
    64   32   33 1    
    65   32   34 1    
    66   32  155 1    
    67   33  156 1    
    68   33  157 1    
    69   33  158 1    
    70   34   35 am   BACKBONE|DICT|INTERRES
    71   34  159 1    
    72   35   36 2    
    73   35   37 1    
    74   37   38 1    
    75   37   39 1    
    76   37  160 1    
    77   38  161 1    
    78   38  162 1    
    79   38  163 1    
    80   39   40 am   BACKBONE|DICT|INTERRES
    81   39  164 1    
    82   40   41 2    
    83   40   42 1    
    84   42   43 1    
    85   42   44 1    
    86   42  165 1    
    87   43  166 1    
    88   43  167 1    
    89   43  168 1    
    90   44   45 am   BACKBONE|DICT|INTERRES
    91   44  169 1    
    92   45   46 2    
    93   45   47 1    
    94   47   48 1    
    95   47   49 1    
    96   47  170 1    
    97   48  171 1    
    98   48  172 1    
    99   48  173 1    
   100   49   50 am   BACKBONE|DICT|INTERRES
   101   49  174 1    
   102   50   51 2    
   103   50   52 1    
   104   52   53 1    
   105   52   54 1    
   106   52  175 1    
   107   53  176 1    
   108   53  177 1    
   109   53  178 1    
   110   54   55 am   BACKBONE|DICT|INTERRES
   111   54  179 1    
   112   55   56 2    
   113   55   57 1    
   114   57   58 1    
   115   57   59 1    
   116   57  180 1    
   117   58  181 1    
   118   58  182 1    
   119   58  183 1    
   120   59   60 am   BACKBONE|DICT|INTERRES
   121   59  184 1    
   122   60   61 2    
   123   60   62 1    
   124   62   63 1    
   125   62   64 1    
   126   62  185 1    
   127   63  186 1    
   128   63  187 1    
   129   63  188 1    
   130   64   65 am   BACKBONE|DICT|INTERRES
   131   64  189 1    
   132   65   66 2    
   133   67   68 2    
   134   67   69 am   BACKBONE|DICT|INTERRES
   135   69   70 1    
   136   69  190 1    
   137   70   71 1    
   138   70   72 1    
   139   70  191 1    
   140   71  192 1    
   141   71  193 1    
   142   71  194 1    
   143   72   73 2    
   144   72   74 am   BACKBONE|DICT|INTERRES
   145   74   75 1    
   146   74  195 1    
   147   75   76 1    
   148   75   77 1    
   149   75  196 1    
   150   76  197 1    
   151   76  198 1    
   152   76  199 1    
   153   77   78 2    
   154   77   79 am   BACKBONE|DICT|INTERRES
   155   79   80 1    
   156   79  200 1    
   157   80   81 1    
   158   80   82 1    
   159   80  201 1    
   160   81  202 1    
   161   81  203 1    
   162   81  204 1    
   163   82   83 2    
   164   82   84 am   BACKBONE|DICT|INTERRES
   165   84   85 1    
   166   84  205 1    
   167   85   86 1    
   168   85   87 1    
   169   85  206 1    
   170   86  207 1    
   171   86  208 1    
   172   86  209 1    
   173   87   88 2    
   174   87   89 am   BACKBONE|DICT|INTERRES
   175   89   90 1    
   176   89  210 1    
   177   90   91 1    
   178   90   92 1    
   179   90  211 1    
   180   91  212 1    
   181   91  213 1    
   182   91  214 1    
   183   92   93 2    
   184   92   94 am   BACKBONE|DICT|INTERRES
   185   94   95 1    
   186   94  215 1    
   187   95   96 1    
   188   95   97 1    
   189   95  216 1    
   190   96  217 1    
   191   96  218 1    
   192   96  219 1    
   193   97   98 2    
   194   97   99 am   BACKBONE|DICT|INTERRES
   195   99  100 1    
   196   99  220 1    
   197  100  101 1    
   198  100  102 1    
   199  100  221 1    
   200  101  222 1    
   201  101  223 1    
   202  101  224 1    
   203  102  103 2    
   204  102  104 am   BACKBONE|DICT|INTERRES
   205  104  105 1    
   206  104  225 1    
   207  105  106 1    
   208  105  107 1    
   209  105  226 1    
   210  106  227 1    
   211  106  228 1    
   212  106  229 1    
   213  107  108 2    
   214  107  109 am   BACKBONE|DICT|INTERRES
   215  109  110 1    
   216  109  230 1    
   217  110  111 1    
   218  110  112 1    
   219  110  231 1    
   220  111  232 1    
   221  111  233 1    
   222  111  234 1    
   223  112  113 2    
   224  112  114 am   BACKBONE|DICT|INTERRES
   225  114  115 1    
   226  114  235 1    
   227  115  116 1    
   228  115  117 1    
   229  115  236 1    
   230  116  237 1    
   231  116  238 1    
   232  116  239 1    
   233  117  118 2    
   234  117  119 am   BACKBONE|DICT|INTERRES
   235  119  120 1    
   236  119  240 1    
   237  120  121 1    
   238  120  124 1    
   239  120  241 1    
   240  121  122 am   BACKBONE|DICT|INTERRES
   241  121  123 2    
   242  122  242 1    
   243  122  243 1    
   244  124  125 1    
   245  124  244 1    
   246  124  245 1    
   247  125  126 1    
   248  126  246 1    
   249  126  247 1    
@<TRIPOS>SUBSTRUCTURE
     1 UNK         1 GROUP             0       ****    0 ROOT    
