@<TRIPOS>MOLECULE
3R540
247   249    1
SMALL
USER_CHARGES


@<TRIPOS>ATOM
      1 CA          3.1164  -13.9478  -49.9891 C.3       0 UNK        -0.1800 
      2 C           2.6772  -14.3213  -48.5811 C.2       0 UNK         0.5000 
      3 O           3.0089  -15.4047  -48.1038 O.2       0 UNK        -0.5000 
      4 N           1.9217  -13.4357  -47.9202 N.am      1 UNK        -0.5000 
      5 CA          1.3741  -13.6453  -46.5727 C.3       1 UNK         0.1400 
      6 C6          0.1270  -12.7609  -46.3052 C.3       23 UNK        -0.0398 
      7 S7         -1.1512  -12.8456  -47.6097 S.3       23 UNK        -0.2404 
      8 C8         -1.8566  -14.5075  -47.3742 C.3       23 UNK        -0.0205 
      9 C9         -1.7591  -15.3222  -48.6541 C.ar      23 UNK        -0.0193 
     10 C10        -2.8332  -15.3625  -49.5490 C.ar      23 UNK        -0.1150 
     11 C11        -2.7320  -16.0767  -50.7470 C.ar      23 UNK        -0.0193 
     12 C12        -1.5431  -16.7485  -51.0471 C.ar      23 UNK        -0.1150 
     13 C13        -0.4692  -16.7284  -50.1539 C.ar      23 UNK        -0.0193 
     14 C14        -0.5860  -16.0204  -48.9553 C.ar      23 UNK        -0.1150 
     15 C15         0.8227  -17.4515  -50.5004 C.3       23 UNK        -0.0205 
     16 S16         0.6724  -19.2497  -50.2850 S.3       23 UNK        -0.2404 
     17 C17         0.6587  -19.3910  -48.4677 C.3       23 UNK        -0.0398 
     18 CA          0.5642  -20.8644  -48.0014 C.3       11 UNK         0.1400 
     19 N           1.1561  -21.0503  -46.6741 N.am      11 UNK        -0.5000 
     20 C           1.4324  -22.2388  -46.1196 C.2       10 UNK         0.5000 
     21 O           1.2078  -23.3172  -46.6674 O.2       10 UNK        -0.5000 
     22 CA          2.0382  -22.2182  -44.7063 C.3       10 UNK         0.1400 
     23 CB          3.5417  -21.9039  -44.7531 C.3       10 UNK        -0.1800 
     24 N           1.3601  -21.2486  -43.8490 N.am      10 UNK        -0.5000 
     25 C           0.1511  -21.4412  -43.3041 C.2       9 UNK         0.5000 
     26 O          -0.4886  -22.4882  -43.4069 O.2       9 UNK        -0.5000 
     27 CA         -0.4566  -20.2546  -42.5326 C.3       9 UNK         0.1400 
     28 CB         -0.0521  -20.3087  -41.0520 C.3       9 UNK        -0.1800 
     29 N          -0.0842  -18.9514  -43.0877 N.am      9 UNK        -0.5000 
     30 C          -0.4530  -18.5171  -44.3019 C.2       8 UNK         0.5000 
     31 O          -1.1222  -19.1785  -45.0916 O.2       8 UNK        -0.5000 
     32 CA          0.0484  -17.1291  -44.7292 C.3       8 UNK         0.1400 
     33 CB         -0.8043  -16.0392  -44.0651 C.3       8 UNK        -0.1800 
     34 N           1.4586  -16.9046  -44.4145 N.am      8 UNK        -0.5000 
     35 C           2.4789  -17.6666  -44.8378 C.2       7 UNK         0.5000 
     36 O           2.3332  -18.6593  -45.5511 O.2       7 UNK        -0.5000 
     37 CA          3.8893  -17.2964  -44.3531 C.3       7 UNK         0.1400 
     38 CB          4.6811  -16.5754  -45.4511 C.3       7 UNK        -0.1800 
     39 N           3.8374  -16.4635  -43.1484 N.am      7 UNK        -0.5000 
     40 C           4.2443  -16.8761  -41.9420 C.2       6 UNK         0.5000 
     41 O           4.8182  -17.9468  -41.7369 O.2       6 UNK        -0.5000 
     42 CA          3.9284  -15.9591  -40.7476 C.3       6 UNK         0.1400 
     43 CB          4.9312  -14.7990  -40.6525 C.3       6 UNK        -0.1800 
     44 N           2.5657  -15.4226  -40.7119 N.am      6 UNK        -0.5000 
     45 C           1.4217  -16.1158  -40.7713 C.2       5 UNK         0.5000 
     46 O           1.3463  -17.3021  -41.0916 O.2       5 UNK        -0.5000 
     47 CA          0.1298  -15.3659  -40.3893 C.3       5 UNK         0.1400 
     48 CB          0.0451  -15.1603  -38.8647 C.3       5 UNK        -0.1800 
     49 N          -0.1102  -14.1072  -41.1088 N.am      5 UNK        -0.5000 
     50 C           0.5967  -12.9699  -41.0768 C.2       4 UNK         0.5000 
     51 O           1.6415  -12.8138  -40.4394 O.2       4 UNK        -0.5000 
     52 CA          0.0036  -11.7925  -41.8588 C.3       4 UNK         0.1400 
     53 CB         -0.9840  -11.0045  -40.9770 C.3       4 UNK        -0.1800 
     54 N           1.0933  -10.9351  -42.3046 N.am      4 UNK        -0.5000 
     55 C           1.0092   -9.9677  -43.2208 C.2       3 UNK         0.5000 
     56 O          -0.0347   -9.6530  -43.7929 O.2       3 UNK        -0.5000 
     57 CA          2.3223   -9.2669  -43.6085 C.3       3 UNK         0.1400 
     58 CB          2.9956   -8.5580  -42.4151 C.3       3 UNK        -0.1800 
     59 N           3.2265  -10.1826  -44.3111 N.am      3 UNK        -0.5000 
     60 C           3.9060  -11.2307  -43.8223 C.2       2 UNK         0.5000 
     61 O           3.9841  -11.5174  -42.6269 O.2       2 UNK        -0.5000 
     62 CA          4.5310  -12.1426  -44.8946 C.3       2 UNK         0.1400 
     63 CB          5.4073  -13.2695  -44.3161 C.3       2 UNK        -0.1800 
     64 N           3.4931  -12.6695  -45.7907 N.am      2 UNK        -0.5000 
     65 C           2.4272  -13.4222  -45.4642 C.2       1 UNK         0.5000 
     66 O           2.2430  -13.9244  -44.3523 O.2       1 UNK        -0.5000 
     67 C          -0.8828  -21.3992  -48.0847 C.2       11 UNK         0.5000 
     68 O          -1.2539  -21.9858  -49.0998 O.2       11 UNK        -0.5000 
     69 N          -1.6598  -21.2174  -47.0073 N.am      12 UNK        -0.5000 
     70 CA         -3.0575  -21.6357  -46.8835 C.3       12 UNK         0.1400 
     71 CB         -3.7039  -20.8772  -45.7134 C.3       12 UNK        -0.1800 
     72 C          -3.2712  -23.1544  -46.7187 C.2       12 UNK         0.5000 
     73 O          -4.4255  -23.5881  -46.7225 O.2       12 UNK        -0.5000 
     74 N          -2.1938  -23.9405  -46.5786 N.am      13 UNK        -0.5000 
     75 CA         -2.2275  -25.3985  -46.4351 C.3       13 UNK         0.1400 
     76 CB         -0.7920  -25.9268  -46.3086 C.3       13 UNK        -0.1800 
     77 C          -2.9595  -26.1009  -47.5967 C.2       13 UNK         0.5000 
     78 O          -2.8093  -25.6950  -48.7517 O.2       13 UNK        -0.5000 
     79 N          -3.7506  -27.1297  -47.2584 N.am      14 UNK        -0.5000 
     80 CA         -4.6040  -27.9142  -48.1615 C.3       14 UNK         0.1400 
     81 CB         -3.7428  -28.7817  -49.1037 C.3       14 UNK        -0.1800 
     82 C          -5.6347  -27.0442  -48.9151 C.2       14 UNK         0.5000 
     83 O          -5.8324  -27.2230  -50.1179 O.2       14 UNK        -0.5000 
     84 N          -6.2424  -26.0895  -48.1919 N.am      15 UNK        -0.5000 
     85 CA         -7.1771  -25.0696  -48.6858 C.3       15 UNK         0.1400 
     86 CB         -8.5054  -25.7137  -49.1362 C.3       15 UNK        -0.1800 
     87 C          -6.5337  -24.1877  -49.7751 C.2       15 UNK         0.5000 
     88 O          -7.0916  -24.0285  -50.8613 O.2       15 UNK        -0.5000 
     89 N          -5.3328  -23.6803  -49.4675 N.am      16 UNK        -0.5000 
     90 CA         -4.4299  -22.9345  -50.3490 C.3       16 UNK         0.1400 
     91 CB         -4.9970  -21.5312  -50.6494 C.3       16 UNK        -0.1800 
     92 C          -4.0552  -23.7317  -51.6138 C.2       16 UNK         0.5000 
     93 O          -4.1322  -23.2025  -52.7230 O.2       16 UNK        -0.5000 
     94 N          -3.6960  -25.0089  -51.4157 N.am      17 UNK        -0.5000 
     95 CA         -3.4238  -26.0224  -52.4403 C.3       17 UNK         0.1400 
     96 CB         -2.0984  -25.7070  -53.1646 C.3       17 UNK        -0.1800 
     97 C          -4.6117  -26.2039  -53.4100 C.2       17 UNK         0.5000 
     98 O          -4.4318  -26.1453  -54.6261 O.2       17 UNK        -0.5000 
     99 N          -5.8182  -26.3647  -52.8463 N.am      18 UNK        -0.5000 
    100 CA        -7.1168  -26.3746  -53.5323 C.3       18 UNK         0.1400 
    101 CB        -7.2824  -27.6613  -54.3668 C.3       18 UNK        -0.1800 
    102 C         -7.3507  -25.0827  -54.3485 C.2       18 UNK         0.5000 
    103 O         -7.7163  -25.1385  -55.5238 O.2       18 UNK        -0.5000 
    104 N         -7.0818  -23.9434  -53.6974 N.am      19 UNK        -0.5000 
    105 CA        -7.1109  -22.5616  -54.1870 C.3       19 UNK         0.1400 
    106 CB        -8.5241  -22.1754  -54.6679 C.3       19 UNK        -0.1800 
    107 C         -6.0312  -22.1985  -55.2308 C.2       19 UNK         0.5000 
    108 O         -5.9824  -21.0393  -55.6458 O.2       19 UNK        -0.5000 
    109 N         -5.1709  -23.1472  -55.6307 N.am      20 UNK        -0.5000 
    110 CA        -4.1375  -22.9467  -56.6485 C.3       20 UNK         0.1400 
    111 CB        -3.5680  -24.3016  -57.0913 C.3       20 UNK        -0.1800 
    112 C         -3.0002  -22.0107  -56.2027 C.2       20 UNK         0.5000 
    113 O         -2.4442  -21.3067  -57.0472 O.2       20 UNK        -0.5000 
    114 N         -2.6878  -21.9797  -54.8976 N.am      21 UNK        -0.5000 
    115 CA        -1.6433  -21.1201  -54.3263 C.3       21 UNK         0.1400 
    116 CB        -1.3370  -21.5574  -52.8861 C.3       21 UNK        -0.1800 
    117 C         -1.9986  -19.6207  -54.3763 C.2       21 UNK         0.5000 
    118 O         -1.0951  -18.7842  -54.3562 O.2       21 UNK        -0.5000 
    119 N         -3.2983  -19.3175  -54.4734 N.am      22 UNK        -0.5000 
    120 CA        -3.8479  -17.9709  -54.6814 C.3       22 UNK         0.1400 
    121 C         -4.1997  -17.6778  -56.1708 C.2       22 UNK         0.5000 
    122 N         -3.8581  -18.5349  -57.1270 N.am      22 UNK        -0.7600 
    123 O         -4.7742  -16.6357  -56.4748 O.2       22 UNK        -0.5000 
    124 C124       -5.0433  -17.6906  -53.7314 C.3       23 UNK        -0.0398 
    125 S125       -4.5583  -17.7698  -51.9726 S.3       23 UNK        -0.2404 
    126 C126       -3.8836  -16.0923  -51.7410 C.3       23 UNK        -0.0205 
    127 H127        2.7600  -12.9582  -50.2762 H         1 UNK         0.0600 
    128 H128        2.7263  -14.6706  -50.7058 H         1 UNK         0.0600 
    129 H129        4.2043  -13.9514  -50.0563 H         1 UNK         0.0600 
    130 H130        1.6437  -12.5792  -48.3787 H         1 UNK         0.3000 
    131 H131        1.0645  -14.6885  -46.4927 H         1 UNK         0.0600 
    132 H132       -0.3352  -13.0135  -45.3504 H         1 UNK         0.0800 
    133 H133        0.4214  -11.7131  -46.2185 H         1 UNK         0.0800 
    134 H134       -1.3429  -15.0309  -46.5716 H         1 UNK         0.0800 
    135 H135       -2.8972  -14.4133  -47.0601 H         1 UNK         0.0800 
    136 H136       -3.7412  -14.8225  -49.3196 H         1 UNK         0.1150 
    137 H137       -1.4558  -17.2940  -51.9771 H         1 UNK         0.1150 
    138 H138        0.2447  -15.9990  -48.2658 H         1 UNK         0.1150 
    139 H139        1.0821  -17.2430  -51.5394 H         1 UNK         0.0800 
    140 H140        1.6532  -17.0801  -49.8983 H         1 UNK         0.0800 
    141 H141       -0.1476  -18.7870  -48.0473 H         1 UNK         0.0800 
    142 H142        1.5879  -18.9435  -48.1122 H         1 UNK         0.0800 
    143 H143        1.1659  -21.4714  -48.6820 H         1 UNK         0.0600 
    144 H144        1.4154  -20.2054  -46.1716 H         1 UNK         0.3000 
    145 H145        1.9163  -23.2137  -44.2736 H         1 UNK         0.0600 
    146 H146        4.0722  -22.6363  -45.3628 H         1 UNK         0.0600 
    147 H147        3.7405  -20.9199  -45.1782 H         1 UNK         0.0600 
    148 H148        3.9810  -21.9323  -43.7558 H         1 UNK         0.0600 
    149 H149        1.7955  -20.3434  -43.7483 H         1 UNK         0.3000 
    150 H150       -1.5432  -20.3456  -42.5928 H         1 UNK         0.0600 
    151 H151       -0.3379  -21.2603  -40.6020 H         1 UNK         0.0600 
    152 H152       -0.5408  -19.5188  -40.4812 H         1 UNK         0.0600 
    153 H153        1.0253  -20.1940  -40.9258 H         1 UNK         0.0600 
    154 H154        0.4820  -18.3509  -42.4942 H         1 UNK         0.3000 
    155 H155       -0.0604  -17.0486  -45.8125 H         1 UNK         0.0600 
    156 H156       -1.8341  -16.0803  -44.4220 H         1 UNK         0.0600 
    157 H157       -0.4198  -15.0430  -44.2739 H         1 UNK         0.0600 
    158 H158       -0.8362  -16.1624  -42.9848 H         1 UNK         0.0600 
    159 H159        1.6682  -16.0956  -43.8484 H         1 UNK         0.3000 
    160 H160        4.4000  -18.2400  -44.1511 H         1 UNK         0.0600 
    161 H161        4.2313  -15.6200  -45.7123 H         1 UNK         0.0600 
    162 H162        4.7227  -17.1748  -46.3615 H         1 UNK         0.0600 
    163 H163        5.7077  -16.3890  -45.1364 H         1 UNK         0.0600 
    164 H164        3.3947  -15.5569  -43.2338 H         1 UNK         0.3000 
    165 H165        4.0449  -16.5680  -39.8490 H         1 UNK         0.0600 
    166 H166        4.8520  -14.2932  -39.6902 H         1 UNK         0.0600 
    167 H167        5.9586  -15.1523  -40.7500 H         1 UNK         0.0600 
    168 H168        4.7604  -14.0537  -41.4287 H         1 UNK         0.0600 
    169 H169        2.4782  -14.4304  -40.5005 H         1 UNK         0.3000 
    170 H170       -0.6986  -16.0224  -40.6594 H         1 UNK         0.0600 
    171 H171        0.1335  -16.1117  -38.3386 H         1 UNK         0.0600 
    172 H172        0.8369  -14.5094  -38.4930 H         1 UNK         0.0600 
    173 H173       -0.9105  -14.7200  -38.5799 H         1 UNK         0.0600 
    174 H174       -0.9499  -14.1078  -41.6702 H         1 UNK         0.3000 
    175 H175       -0.5157  -12.1811  -42.7373 H         1 UNK         0.0600 
    176 H176       -1.4656  -10.1998  -41.5322 H         1 UNK         0.0600 
    177 H177       -1.7767  -11.6522  -40.6005 H         1 UNK         0.0600 
    178 H178       -0.4837  -10.5627  -40.1143 H         1 UNK         0.0600 
    179 H179        2.0084  -11.1867  -41.9387 H         1 UNK         0.3000 
    180 H180        2.0642   -8.4929  -44.3332 H         1 UNK         0.0600 
    181 H181        3.2547   -9.2451  -41.6097 H         1 UNK         0.0600 
    182 H182        2.3305   -7.8045  -41.9919 H         1 UNK         0.0600 
    183 H183        3.9076   -8.0484  -42.7255 H         1 UNK         0.0600 
    184 H184        3.2258  -10.0712  -45.3152 H         1 UNK         0.3000 
    185 H185        5.1804  -11.5085  -45.5003 H         1 UNK         0.0600 
    186 H186        4.8245  -13.9766  -43.7312 H         1 UNK         0.0600 
    187 H187        5.9083  -13.8216  -45.1106 H         1 UNK         0.0600 
    188 H188        6.1824  -12.8664  -43.6634 H         1 UNK         0.0600 
    189 H189        3.5446  -12.3479  -46.7469 H         1 UNK         0.3000 
    190 H190       -1.2934  -20.6704  -46.2318 H         1 UNK         0.3000 
    191 H191       -3.5764  -21.3398  -47.7966 H         1 UNK         0.0600 
    192 H192       -3.6608  -19.7995  -45.8715 H         1 UNK         0.0600 
    193 H193       -4.7561  -21.1419  -45.6009 H         1 UNK         0.0600 
    194 H194       -3.2052  -21.0993  -44.7690 H         1 UNK         0.0600 
    195 H195       -1.2788  -23.5132  -46.6197 H         1 UNK         0.3000 
    196 H196       -2.7575  -25.6169  -45.5059 H         1 UNK         0.0600 
    197 H197       -0.7824  -27.0079  -46.1642 H         1 UNK         0.0600 
    198 H198       -0.2803  -25.4798  -45.4558 H         1 UNK         0.0600 
    199 H199       -0.2063  -25.7093  -47.2029 H         1 UNK         0.0600 
    200 H200       -3.8091  -27.3856  -46.2823 H         1 UNK         0.3000 
    201 H201       -5.1841  -28.5906  -47.5322 H         1 UNK         0.0600 
    202 H202       -3.0593  -29.4152  -48.5387 H         1 UNK         0.0600 
    203 H203       -3.1476  -28.1746  -49.7857 H         1 UNK         0.0600 
    204 H204       -4.3662  -29.4396  -49.7104 H         1 UNK         0.0600 
    205 H205       -5.9770  -25.9982  -47.2211 H         1 UNK         0.3000 
    206 H206       -7.3959  -24.4108  -47.8441 H         1 UNK         0.0600 
    207 H207       -8.9428  -26.3132  -48.3379 H         1 UNK         0.0600 
    208 H208       -9.2356  -24.9499  -49.4060 H         1 UNK         0.0600 
    209 H209       -8.3733  -26.3584  -50.0055 H         1 UNK         0.0600 
    210 H210       -4.9715  -23.8734  -48.5376 H         1 UNK         0.3000 
    211 H211       -3.5029  -22.8082  -49.7963 H         1 UNK         0.0600 
    212 H212       -5.9357  -21.5812  -51.1993 H         1 UNK         0.0600 
    213 H213       -4.3001  -20.9422  -51.2459 H         1 UNK         0.0600 
    214 H214       -5.1807  -20.9762  -49.7298 H         1 UNK         0.0600 
    215 H215       -3.6090  -25.3283  -50.4539 H         1 UNK         0.3000 
    216 H216       -3.3022  -26.9710  -51.9167 H         1 UNK         0.0600 
    217 H217       -1.8289  -26.5101  -53.8513 H         1 UNK         0.0600 
    218 H218       -1.2786  -25.5969  -52.4548 H         1 UNK         0.0600 
    219 H219       -2.1623  -24.7878  -53.7474 H         1 UNK         0.0600 
    220 H220       -5.8590  -26.4463  -51.8324 H         1 UNK         0.3000 
    221 H221       -7.8766  -26.3865  -52.7494 H         1 UNK         0.0600 
    222 H222       -6.5745  -27.7030  -55.1951 H         1 UNK         0.0600 
    223 H223       -7.1331  -28.5495  -53.7530 H         1 UNK         0.0600 
    224 H224       -8.2853  -27.7242  -54.7905 H         1 UNK         0.0600 
    225 H225       -6.8235  -24.0281  -52.7163 H         1 UNK         0.3000 
    226 H226       -6.8884  -21.9459  -53.3157 H         1 UNK         0.0600 
    227 H227       -9.2736  -22.3978  -53.9083 H         1 UNK         0.0600 
    228 H228       -8.5867  -21.1074  -54.8799 H         1 UNK         0.0600 
    229 H229       -8.8015  -22.7032  -55.5805 H         1 UNK         0.0600 
    230 H230       -5.2271  -24.0676  -55.2126 H         1 UNK         0.3000 
    231 H231       -4.6180  -22.4888  -57.5157 H         1 UNK         0.0600 
    232 H232       -2.9827  -24.7693  -56.2993 H         1 UNK         0.0600 
    233 H233       -2.9095  -24.1822  -57.9524 H         1 UNK         0.0600 
    234 H234       -4.3606  -24.9925  -57.3795 H         1 UNK         0.0600 
    235 H235       -3.2260  -22.5430  -54.2416 H         1 UNK         0.3000 
    236 H236       -0.7368  -21.2616  -54.9185 H         1 UNK         0.0600 
    237 H237       -1.1141  -22.6228  -52.8292 H         1 UNK         0.0600 
    238 H238       -0.4698  -21.0236  -52.4971 H         1 UNK         0.0600 
    239 H239       -2.1697  -21.3500  -52.2150 H         1 UNK         0.0600 
    240 H240       -3.9659  -20.0749  -54.5164 H         1 UNK         0.3000 
    241 H241       -3.0749  -17.2390  -54.4430 H         1 UNK         0.0600 
    242 H242       -3.3643  -19.3924  -56.9147 H         1 UNK         0.3800 
    243 H243       -4.0901  -18.3203  -58.0838 H         1 UNK         0.3800 
    244 H244       -5.4803  -16.7090  -53.9228 H         1 UNK         0.0800 
    245 H245       -5.8398  -18.4163  -53.9042 H         1 UNK         0.0800 
    246 H246       -4.6886  -15.4295  -51.4201 H         1 UNK         0.0800 
    247 H247       -3.5195  -15.6942  -52.6886 H         1 UNK         0.0800 
@<TRIPOS>BOND
     1    1    2 1    
     2    1  127 1    
     3    1  128 1    
     4    1  129 1    
     5    2    3 2    
     6    2    4 am   BACKBONE|DICT|INTERRES
     7    4    5 1    
     8    4  130 1    
     9    5    6 1    
    10    5   65 1    
    11    5  131 1    
    12    6    7 1    
    13    6  132 1    
    14    6  133 1    
    15    7    8 1    
    16    8    9 1    
    17    8  134 1    
    18    8  135 1    
    19    9   10 ar   
    20    9   14 ar   
    21   10   11 ar   
    22   10  136 1    
    23   11   12 ar   
    24   11  126 1    
    25   12   13 ar   
    26   12  137 1    
    27   13   14 ar   
    28   13   15 1    
    29   14  138 1    
    30   15   16 1    
    31   15  139 1    
    32   15  140 1    
    33   16   17 1    
    34   17   18 1    
    35   17  141 1    
    36   17  142 1    
    37   18   19 1    
    38   18   67 1    
    39   18  143 1    
    40   19   20 am   BACKBONE|DICT|INTERRES
    41   19  144 1    
    42   20   21 2    
    43   20   22 1    
    44   22   23 1    
    45   22   24 1    
    46   22  145 1    
    47   23  146 1    
    48   23  147 1    
    49   23  148 1    
    50   24   25 am   BACKBONE|DICT|INTERRES
    51   24  149 1    
    52   25   26 2    
    53   25   27 1    
    54   27   28 1    
    55   27   29 1    
    56   27  150 1    
    57   28  151 1    
    58   28  152 1    
    59   28  153 1    
    60   29   30 am   BACKBONE|DICT|INTERRES
    61   29  154 1    
    62   30   31 2    
    63   30   32 1    
    64   32   33 1    
    65   32   34 1    
    66   32  155 1    
    67   33  156 1    
    68   33  157 1    
    69   33  158 1    
    70   34   35 am   BACKBONE|DICT|INTERRES
    71   34  159 1    
    72   35   36 2    
    73   35   37 1    
    74   37   38 1    
    75   37   39 1    
    76   37  160 1    
    77   38  161 1    
    78   38  162 1    
    79   38  163 1    
    80   39   40 am   BACKBONE|DICT|INTERRES
    81   39  164 1    
    82   40   41 2    
    83   40   42 1    
    84   42   43 1    
    85   42   44 1    
    86   42  165 1    
    87   43  166 1    
    88   43  167 1    
    89   43  168 1    
    90   44   45 am   BACKBONE|DICT|INTERRES
    91   44  169 1    
    92   45   46 2    
    93   45   47 1    
    94   47   48 1    
    95   47   49 1    
    96   47  170 1    
    97   48  171 1    
    98   48  172 1    
    99   48  173 1    
   100   49   50 am   BACKBONE|DICT|INTERRES
   101   49  174 1    
   102   50   51 2    
   103   50   52 1    
   104   52   53 1    
   105   52   54 1    
   106   52  175 1    
   107   53  176 1    
   108   53  177 1    
   109   53  178 1    
   110   54   55 am   BACKBONE|DICT|INTERRES
   111   54  179 1    
   112   55   56 2    
   113   55   57 1    
   114   57   58 1    
   115   57   59 1    
   116   57  180 1    
   117   58  181 1    
   118   58  182 1    
   119   58  183 1    
   120   59   60 am   BACKBONE|DICT|INTERRES
   121   59  184 1    
   122   60   61 2    
   123   60   62 1    
   124   62   63 1    
   125   62   64 1    
   126   62  185 1    
   127   63  186 1    
   128   63  187 1    
   129   63  188 1    
   130   64   65 am   BACKBONE|DICT|INTERRES
   131   64  189 1    
   132   65   66 2    
   133   67   68 2    
   134   67   69 am   BACKBONE|DICT|INTERRES
   135   69   70 1    
   136   69  190 1    
   137   70   71 1    
   138   70   72 1    
   139   70  191 1    
   140   71  192 1    
   141   71  193 1    
   142   71  194 1    
   143   72   73 2    
   144   72   74 am   BACKBONE|DICT|INTERRES
   145   74   75 1    
   146   74  195 1    
   147   75   76 1    
   148   75   77 1    
   149   75  196 1    
   150   76  197 1    
   151   76  198 1    
   152   76  199 1    
   153   77   78 2    
   154   77   79 am   BACKBONE|DICT|INTERRES
   155   79   80 1    
   156   79  200 1    
   157   80   81 1    
   158   80   82 1    
   159   80  201 1    
   160   81  202 1    
   161   81  203 1    
   162   81  204 1    
   163   82   83 2    
   164   82   84 am   BACKBONE|DICT|INTERRES
   165   84   85 1    
   166   84  205 1    
   167   85   86 1    
   168   85   87 1    
   169   85  206 1    
   170   86  207 1    
   171   86  208 1    
   172   86  209 1    
   173   87   88 2    
   174   87   89 am   BACKBONE|DICT|INTERRES
   175   89   90 1    
   176   89  210 1    
   177   90   91 1    
   178   90   92 1    
   179   90  211 1    
   180   91  212 1    
   181   91  213 1    
   182   91  214 1    
   183   92   93 2    
   184   92   94 am   BACKBONE|DICT|INTERRES
   185   94   95 1    
   186   94  215 1    
   187   95   96 1    
   188   95   97 1    
   189   95  216 1    
   190   96  217 1    
   191   96  218 1    
   192   96  219 1    
   193   97   98 2    
   194   97   99 am   BACKBONE|DICT|INTERRES
   195   99  100 1    
   196   99  220 1    
   197  100  101 1    
   198  100  102 1    
   199  100  221 1    
   200  101  222 1    
   201  101  223 1    
   202  101  224 1    
   203  102  103 2    
   204  102  104 am   BACKBONE|DICT|INTERRES
   205  104  105 1    
   206  104  225 1    
   207  105  106 1    
   208  105  107 1    
   209  105  226 1    
   210  106  227 1    
   211  106  228 1    
   212  106  229 1    
   213  107  108 2    
   214  107  109 am   BACKBONE|DICT|INTERRES
   215  109  110 1    
   216  109  230 1    
   217  110  111 1    
   218  110  112 1    
   219  110  231 1    
   220  111  232 1    
   221  111  233 1    
   222  111  234 1    
   223  112  113 2    
   224  112  114 am   BACKBONE|DICT|INTERRES
   225  114  115 1    
   226  114  235 1    
   227  115  116 1    
   228  115  117 1    
   229  115  236 1    
   230  116  237 1    
   231  116  238 1    
   232  116  239 1    
   233  117  118 2    
   234  117  119 am   BACKBONE|DICT|INTERRES
   235  119  120 1    
   236  119  240 1    
   237  120  121 1    
   238  120  124 1    
   239  120  241 1    
   240  121  122 am   BACKBONE|DICT|INTERRES
   241  121  123 2    
   242  122  242 1    
   243  122  243 1    
   244  124  125 1    
   245  124  244 1    
   246  124  245 1    
   247  125  126 1    
   248  126  246 1    
   249  126  247 1    
@<TRIPOS>SUBSTRUCTURE
     1 UNK         1 GROUP             0       ****    0 ROOT    
