@<TRIPOS>MOLECULE
3R540
247   249    1
SMALL
USER_CHARGES


@<TRIPOS>ATOM
      1 CA          2.4003   -8.8567  -46.9012 C.3       0 UNK        -0.1800 
      2 C           2.6697  -10.3542  -46.9156 C.2       0 UNK         0.5000 
      3 O           3.8167  -10.7700  -47.0823 O.2       0 UNK        -0.5000 
      4 N           1.6212  -11.1677  -46.7240 N.am      1 UNK        -0.5000 
      5 CA          1.6662  -12.6395  -46.7583 C.3       1 UNK         0.1400 
      6 C6          0.2583  -13.2880  -46.7421 C.3       23 UNK        -0.0398 
      7 S7         -0.8799  -12.5500  -47.9631 S.3       23 UNK        -0.2404 
      8 C8         -0.3786  -13.3893  -49.4987 C.3       23 UNK        -0.0205 
      9 C9         -0.9367  -14.8000  -49.5927 C.ar      23 UNK        -0.0193 
     10 C10        -2.3091  -14.9904  -49.7660 C.ar      23 UNK        -0.1150 
     11 C11        -2.8398  -16.2757  -49.8893 C.ar      23 UNK        -0.0193 
     12 C12        -1.9844  -17.3806  -49.8371 C.ar      23 UNK        -0.1150 
     13 C13        -0.6054  -17.2041  -49.6728 C.ar      23 UNK        -0.0193 
     14 C14        -0.0882  -15.9100  -49.5486 C.ar      23 UNK        -0.1150 
     15 C15         0.3260  -18.4112  -49.6660 C.3       23 UNK        -0.0205 
     16 S16         1.3083  -18.5659  -48.1348 S.3       23 UNK        -0.2404 
     17 C17         0.0148  -18.6702  -46.8544 C.3       23 UNK        -0.0398 
     18 CA         -0.3246  -20.1109  -46.4034 C.3       11 UNK         0.1400 
     19 N          -1.1163  -20.0912  -45.1754 N.am      11 UNK        -0.5000 
     20 C          -1.5127  -21.1517  -44.4630 C.2       10 UNK         0.5000 
     21 O          -1.1814  -22.3087  -44.7122 O.2       10 UNK        -0.5000 
     22 CA         -2.4980  -20.8704  -43.3152 C.3       10 UNK         0.1400 
     23 CB         -1.7628  -20.4378  -42.0381 C.3       10 UNK        -0.1800 
     24 N          -3.4845  -19.8521  -43.6798 N.am      10 UNK        -0.5000 
     25 C          -4.4709  -20.0384  -44.5671 C.2       9 UNK         0.5000 
     26 O          -4.6730  -21.1055  -45.1468 O.2       9 UNK        -0.5000 
     27 CA         -5.3606  -18.8192  -44.8769 C.3       9 UNK         0.1400 
     28 CB         -6.4523  -18.6604  -43.8083 C.3       9 UNK        -0.1800 
     29 N          -4.6010  -17.5708  -44.9842 N.am      9 UNK        -0.5000 
     30 C          -3.7496  -17.2958  -45.9821 C.2       8 UNK         0.5000 
     31 O          -3.5209  -18.0697  -46.9110 O.2       8 UNK        -0.5000 
     32 CA         -2.9848  -15.9569  -45.8978 C.3       8 UNK         0.1400 
     33 CB         -3.8626  -14.8012  -46.3991 C.3       8 UNK        -0.1800 
     34 N          -2.4718  -15.6236  -44.5609 N.am      8 UNK        -0.5000 
     35 C          -1.7050  -16.4256  -43.8111 C.2       7 UNK         0.5000 
     36 O          -1.4322  -17.5839  -44.1241 O.2       7 UNK        -0.5000 
     37 CA         -1.1837  -15.8714  -42.4720 C.3       7 UNK         0.1400 
     38 CB         -2.2791  -15.9565  -41.3980 C.3       7 UNK        -0.1800 
     39 N          -0.0235  -16.6451  -42.0219 N.am      7 UNK        -0.5000 
     40 C           1.1847  -16.5826  -42.5937 C.2       6 UNK         0.5000 
     41 O           1.5150  -15.7164  -43.4061 O.2       6 UNK        -0.5000 
     42 CA          2.1706  -17.7002  -42.2289 C.3       6 UNK         0.1400 
     43 CB          1.9114  -18.9551  -43.0845 C.3       6 UNK        -0.1800 
     44 N           3.5285  -17.2281  -42.4649 N.am      6 UNK        -0.5000 
     45 C           4.6335  -17.6972  -41.8747 C.2       5 UNK         0.5000 
     46 O           4.6238  -18.5972  -41.0326 O.2       5 UNK        -0.5000 
     47 CA          5.9653  -17.0380  -42.2916 C.3       5 UNK         0.1400 
     48 CB          7.2037  -17.8982  -41.9616 C.3       5 UNK        -0.1800 
     49 N           5.9743  -16.6052  -43.6938 N.am      5 UNK        -0.5000 
     50 C           5.9119  -17.3753  -44.7931 C.2       4 UNK         0.5000 
     51 O           5.8836  -18.6060  -44.7616 O.2       4 UNK        -0.5000 
     52 CA          5.8519  -16.6638  -46.1635 C.3       4 UNK         0.1400 
     53 CB          4.5845  -17.0764  -46.9317 C.3       4 UNK        -0.1800 
     54 N           5.8819  -15.2030  -46.0522 N.am      4 UNK        -0.5000 
     55 C           6.9942  -14.4633  -45.9217 C.2       3 UNK         0.5000 
     56 O           8.1309  -14.9333  -45.9760 O.2       3 UNK        -0.5000 
     57 CA          6.8165  -12.9533  -45.6445 C.3       3 UNK         0.1400 
     58 CB          6.9664  -12.1488  -46.9440 C.3       3 UNK        -0.1800 
     59 N           5.5348  -12.6136  -45.0201 N.am      3 UNK        -0.5000 
     60 C           5.1136  -13.0614  -43.8270 C.2       2 UNK         0.5000 
     61 O           5.8207  -13.7223  -43.0669 O.2       2 UNK        -0.5000 
     62 CA          3.6456  -12.7922  -43.4351 C.3       2 UNK         0.1400 
     63 CB          3.5646  -11.6491  -42.4128 C.3       2 UNK        -0.1800 
     64 N           2.7601  -12.4835  -44.5607 N.am      2 UNK        -0.5000 
     65 C           2.5510  -13.2435  -45.6476 C.2       1 UNK         0.5000 
     66 O           3.0762  -14.3419  -45.8246 O.2       1 UNK        -0.5000 
     67 C          -1.0387  -20.9147  -47.5093 C.2       11 UNK         0.5000 
     68 O          -0.4258  -21.7973  -48.1080 O.2       11 UNK        -0.5000 
     69 N          -2.3324  -20.6349  -47.7261 N.am      12 UNK        -0.5000 
     70 CA         -3.1851  -21.3500  -48.6758 C.3       12 UNK         0.1400 
     71 CB         -4.5424  -20.6436  -48.7702 C.3       12 UNK        -0.1800 
     72 C          -3.3673  -22.8408  -48.3348 C.2       12 UNK         0.5000 
     73 O          -3.3786  -23.6734  -49.2425 O.2       12 UNK        -0.5000 
     74 N          -3.4820  -23.1553  -47.0372 N.am      13 UNK        -0.5000 
     75 CA         -3.5359  -24.5244  -46.5260 C.3       13 UNK         0.1400 
     76 CB         -3.9609  -24.5138  -45.0501 C.3       13 UNK        -0.1800 
     77 C          -2.2026  -25.2715  -46.7170 C.2       13 UNK         0.5000 
     78 O          -2.2139  -26.4172  -47.1663 O.2       13 UNK        -0.5000 
     79 N          -1.0812  -24.6024  -46.4118 N.am      14 UNK        -0.5000 
     80 CA          0.2803  -25.1177  -46.5818 C.3       14 UNK         0.1400 
     81 CB          1.2781  -24.1625  -45.9092 C.3       14 UNK        -0.1800 
     82 C           0.6608  -25.3516  -48.0560 C.2       14 UNK         0.5000 
     83 O           1.3439  -26.3307  -48.3582 O.2       14 UNK        -0.5000 
     84 N           0.1860  -24.4711  -48.9480 N.am      15 UNK        -0.5000 
     85 CA          0.3203  -24.5861  -50.4026 C.3       15 UNK         0.1400 
     86 CB         -0.1012  -23.2557  -51.0468 C.3       15 UNK        -0.1800 
     87 C          -0.4934  -25.7493  -51.0073 C.2       15 UNK         0.5000 
     88 O          -0.1689  -26.1920  -52.1101 O.2       15 UNK        -0.5000 
     89 N          -1.5155  -26.2100  -50.2697 N.am      16 UNK        -0.5000 
     90 CA         -2.5209  -27.2230  -50.6005 C.3       16 UNK         0.1400 
     91 CB         -1.8763  -28.5596  -51.0177 C.3       16 UNK        -0.1800 
     92 C          -3.5399  -26.7315  -51.6449 C.2       16 UNK         0.5000 
     93 O          -3.2561  -25.8223  -52.4277 O.2       16 UNK        -0.5000 
     94 N          -4.7389  -27.3336  -51.6114 N.am      17 UNK        -0.5000 
     95 CA         -5.8892  -27.0606  -52.4876 C.3       17 UNK         0.1400 
     96 CB         -5.6037  -27.5743  -53.9145 C.3       17 UNK        -0.1800 
     97 C          -6.3420  -25.5825  -52.4739 C.2       17 UNK         0.5000 
     98 O          -6.7929  -25.0659  -53.4976 O.2       17 UNK        -0.5000 
     99 N          -6.1617  -24.9133  -51.3236 N.am      18 UNK        -0.5000 
    100 CA        -6.3757  -23.4791  -51.0932 C.3       18 UNK         0.1400 
    101 CB        -7.8808  -23.1456  -51.1588 C.3       18 UNK        -0.1800 
    102 C         -5.5229  -22.5861  -52.0258 C.2       18 UNK         0.5000 
    103 O         -5.9800  -21.5228  -52.4516 O.2       18 UNK        -0.5000 
    104 N         -4.3224  -23.0696  -52.3847 N.am      19 UNK        -0.5000 
    105 CA        -3.3951  -22.5188  -53.3824 C.3       19 UNK         0.1400 
    106 CB        -2.8406  -21.1549  -52.9175 C.3       19 UNK        -0.1800 
    107 C         -3.9883  -22.4469  -54.8096 C.2       19 UNK         0.5000 
    108 O         -3.4412  -21.7398  -55.6569 O.2       19 UNK        -0.5000 
    109 N         -5.1116  -23.1484  -55.0398 N.am      20 UNK        -0.5000 
    110 CA        -6.0033  -23.0620  -56.1995 C.3       20 UNK         0.1400 
    111 CB        -5.3169  -23.6278  -57.4599 C.3       20 UNK        -0.1800 
    112 C         -6.5856  -21.6444  -56.4108 C.2       20 UNK         0.5000 
    113 O         -6.9051  -21.2808  -57.5447 O.2       20 UNK        -0.5000 
    114 N         -6.7003  -20.8597  -55.3290 N.am      21 UNK        -0.5000 
    115 CA        -7.0626  -19.4481  -55.3641 C.3       21 UNK         0.1400 
    116 CB        -5.8421  -18.6080  -55.8087 C.3       21 UNK        -0.1800 
    117 C         -7.6637  -19.0226  -54.0121 C.2       21 UNK         0.5000 
    118 O         -8.7701  -19.4503  -53.6807 O.2       21 UNK        -0.5000 
    119 N         -6.9507  -18.1548  -53.2863 N.am      22 UNK        -0.5000 
    120 CA        -7.3881  -17.4512  -52.0706 C.3       22 UNK         0.1400 
    121 C         -7.5150  -18.2961  -50.7707 C.2       22 UNK         0.5000 
    122 N         -7.1252  -19.5602  -50.7424 N.am      22 UNK        -0.7600 
    123 O         -7.9958  -17.7919  -49.7594 O.2       22 UNK        -0.5000 
    124 C124       -6.5465  -16.1674  -51.8428 C.3       23 UNK        -0.0398 
    125 S125       -4.7374  -16.4400  -51.8731 S.3       23 UNK        -0.2404 
    126 C126       -4.3346  -16.4539  -50.1003 C.3       23 UNK        -0.0205 
    127 H127        2.9728   -8.3806  -46.1052 H         1 UNK         0.0600 
    128 H128        2.7003   -8.4134  -47.8507 H         1 UNK         0.0600 
    129 H129        1.3447   -8.6361  -46.7410 H         1 UNK         0.0600 
    130 H130        0.7004  -10.7680  -46.6078 H         1 UNK         0.3000 
    131 H131        2.1415  -12.9121  -47.7025 H         1 UNK         0.0600 
    132 H132        0.3263  -14.3628  -46.9222 H         1 UNK         0.0800 
    133 H133       -0.2010  -13.1766  -45.7582 H         1 UNK         0.0800 
    134 H134       -0.7479  -12.8104  -50.3463 H         1 UNK         0.0800 
    135 H135        0.7086  -13.3895  -49.5855 H         1 UNK         0.0800 
    136 H136       -2.9647  -14.1321  -49.8139 H         1 UNK         0.1150 
    137 H137       -2.3940  -18.3756  -49.9386 H         1 UNK         0.1150 
    138 H138        0.9770  -15.7709  -49.4278 H         1 UNK         0.1150 
    139 H139       -0.2332  -19.3335  -49.8280 H         1 UNK         0.0800 
    140 H140        1.0120  -18.3249  -50.5094 H         1 UNK         0.0800 
    141 H141       -0.8808  -18.1382  -47.1724 H         1 UNK         0.0800 
    142 H142        0.3951  -18.1065  -46.0015 H         1 UNK         0.0800 
    143 H143        0.6096  -20.6253  -46.1690 H         1 UNK         0.0600 
    144 H144       -1.3968  -19.1681  -44.8459 H         1 UNK         0.3000 
    145 H145       -3.0274  -21.8011  -43.1005 H         1 UNK         0.0600 
    146 H146       -1.2989  -19.4588  -42.1504 H         1 UNK         0.0600 
    147 H147       -2.4482  -20.3843  -41.1922 H         1 UNK         0.0600 
    148 H148       -0.9781  -21.1490  -41.7764 H         1 UNK         0.0600 
    149 H149       -3.3440  -18.9276  -43.3008 H         1 UNK         0.3000 
    150 H150       -5.8496  -19.0026  -45.8362 H         1 UNK         0.0600 
    151 H151       -7.0451  -19.5718  -43.7183 H         1 UNK         0.0600 
    152 H152       -7.1381  -17.8522  -44.0631 H         1 UNK         0.0600 
    153 H153       -6.0292  -18.4454  -42.8263 H         1 UNK         0.0600 
    154 H154       -4.7250  -16.8898  -44.2498 H         1 UNK         0.3000 
    155 H155       -2.1233  -16.0362  -46.5644 H         1 UNK         0.0600 
    156 H156       -4.2644  -15.0151  -47.3889 H         1 UNK         0.0600 
    157 H157       -3.2906  -13.8768  -46.4774 H         1 UNK         0.0600 
    158 H158       -4.7083  -14.6189  -45.7352 H         1 UNK         0.0600 
    159 H159       -2.6789  -14.6946  -44.2243 H         1 UNK         0.3000 
    160 H160       -0.8909  -14.8282  -42.6084 H         1 UNK         0.0600 
    161 H161       -1.9239  -15.5700  -40.4426 H         1 UNK         0.0600 
    162 H162       -2.6120  -16.9836  -41.2409 H         1 UNK         0.0600 
    163 H163       -3.1530  -15.3676  -41.6792 H         1 UNK         0.0600 
    164 H164       -0.2179  -17.3999  -41.3815 H         1 UNK         0.3000 
    165 H165        2.0450  -17.9404  -41.1711 H         1 UNK         0.0600 
    166 H166        2.5745  -19.7725  -42.8017 H         1 UNK         0.0600 
    167 H167        0.8894  -19.3124  -42.9666 H         1 UNK         0.0600 
    168 H168        2.0650  -18.7534  -44.1455 H         1 UNK         0.0600 
    169 H169        3.5939  -16.4655  -43.1272 H         1 UNK         0.3000 
    170 H170        6.0411  -16.1262  -41.6978 H         1 UNK         0.0600 
    171 H171        7.2797  -18.0762  -40.8884 H         1 UNK         0.0600 
    172 H172        7.1659  -18.8721  -42.4500 H         1 UNK         0.0600 
    173 H173        8.1227  -17.4014  -42.2724 H         1 UNK         0.0600 
    174 H174        5.9939  -15.5991  -43.8185 H         1 UNK         0.3000 
    175 H175        6.7176  -16.9942  -46.7409 H         1 UNK         0.0600 
    176 H176        4.5081  -16.5536  -47.8852 H         1 UNK         0.0600 
    177 H177        4.5884  -18.1452  -47.1487 H         1 UNK         0.0600 
    178 H178        3.6794  -16.8668  -46.3605 H         1 UNK         0.0600 
    179 H179        4.9742  -14.7492  -45.9901 H         1 UNK         0.3000 
    180 H180        7.6106  -12.6505  -44.9590 H         1 UNK         0.0600 
    181 H181        6.1838  -12.3983  -47.6619 H         1 UNK         0.0600 
    182 H182        7.9269  -12.3485  -47.4207 H         1 UNK         0.0600 
    183 H183        6.9148  -11.0767  -46.7530 H         1 UNK         0.0600 
    184 H184        4.8910  -12.0752  -45.5878 H         1 UNK         0.3000 
    185 H185        3.2691  -13.7010  -42.9629 H         1 UNK         0.0600 
    186 H186        2.5451  -11.5141  -42.0511 H         1 UNK         0.0600 
    187 H187        4.1906  -11.8557  -41.5436 H         1 UNK         0.0600 
    188 H188        3.8987  -10.7032  -42.8411 H         1 UNK         0.0600 
    189 H189        2.3000  -11.5856  -44.5292 H         1 UNK         0.3000 
    190 H190       -2.7624  -19.8612  -47.2272 H         1 UNK         0.3000 
    191 H191       -2.7048  -21.2954  -49.6530 H         1 UNK         0.0600 
    192 H192       -5.0503  -20.6096  -47.8065 H         1 UNK         0.0600 
    193 H193       -5.1999  -21.1536  -49.4705 H         1 UNK         0.0600 
    194 H194       -4.4278  -19.6205  -49.1238 H         1 UNK         0.0600 
    195 H195       -3.5291  -22.4073  -46.3545 H         1 UNK         0.3000 
    196 H196       -4.3011  -25.0619  -47.0900 H         1 UNK         0.0600 
    197 H197       -3.2408  -23.9889  -44.4232 H         1 UNK         0.0600 
    198 H198       -4.0515  -25.5298  -44.6641 H         1 UNK         0.0600 
    199 H199       -4.9292  -24.0293  -44.9228 H         1 UNK         0.0600 
    200 H200       -1.1625  -23.6772  -45.9967 H         1 UNK         0.3000 
    201 H201        0.3363  -26.0809  -46.0706 H         1 UNK         0.0600 
    202 H202        1.2452  -23.1676  -46.3542 H         1 UNK         0.0600 
    203 H203        2.2996  -24.5324  -46.0047 H         1 UNK         0.0600 
    204 H204        1.0677  -24.0590  -44.8446 H         1 UNK         0.0600 
    205 H205       -0.2856  -23.6391  -48.6023 H         1 UNK         0.3000 
    206 H206        1.3726  -24.7630  -50.6339 H         1 UNK         0.0600 
    207 H207        0.5127  -22.4292  -50.6883 H         1 UNK         0.0600 
    208 H208        0.0036  -23.2927  -52.1318 H         1 UNK         0.0600 
    209 H209       -1.1426  -23.0210  -50.8257 H         1 UNK         0.0600 
    210 H210       -1.6771  -25.7396  -49.3891 H         1 UNK         0.3000 
    211 H211       -3.0680  -27.3939  -49.6723 H         1 UNK         0.0600 
    212 H212       -1.3927  -28.4949  -51.9926 H         1 UNK         0.0600 
    213 H213       -2.6257  -29.3489  -51.0836 H         1 UNK         0.0600 
    214 H214       -1.1297  -28.8813  -50.2913 H         1 UNK         0.0600 
    215 H215       -4.8879  -28.0596  -50.9239 H         1 UNK         0.3000 
    216 H216       -6.7260  -27.6361  -52.0895 H         1 UNK         0.0600 
    217 H217       -5.2986  -28.6207  -53.9034 H         1 UNK         0.0600 
    218 H218       -6.4923  -27.5043  -54.5431 H         1 UNK         0.0600 
    219 H219       -4.8138  -27.0000  -54.3999 H         1 UNK         0.0600 
    220 H220       -5.7599  -25.4217  -50.5487 H         1 UNK         0.3000 
    221 H221       -6.0367  -23.2811  -50.0765 H         1 UNK         0.0600 
    222 H222       -8.2720  -23.2327  -52.1730 H         1 UNK         0.0600 
    223 H223       -8.4603  -23.8101  -50.5182 H         1 UNK         0.0600 
    224 H224       -8.0758  -22.1279  -50.8235 H         1 UNK         0.0600 
    225 H225       -4.0515  -23.9808  -52.0278 H         1 UNK         0.3000 
    226 H226       -2.5592  -23.2176  -53.4363 H         1 UNK         0.0600 
    227 H227       -2.3972  -21.2250  -51.9264 H         1 UNK         0.0600 
    228 H228       -2.0591  -20.7993  -53.5897 H         1 UNK         0.0600 
    229 H229       -3.6151  -20.3879  -52.8861 H         1 UNK         0.0600 
    230 H230       -5.4760  -23.7165  -54.2822 H         1 UNK         0.3000 
    231 H231       -6.8550  -23.7045  -55.9727 H         1 UNK         0.0600 
    232 H232       -4.9184  -24.6257  -57.2765 H         1 UNK         0.0600 
    233 H233       -4.4953  -22.9937  -57.7938 H         1 UNK         0.0600 
    234 H234       -6.0231  -23.7094  -58.2869 H         1 UNK         0.0600 
    235 H235       -6.4574  -21.2272  -54.4134 H         1 UNK         0.3000 
    236 H236       -7.8566  -19.3055  -56.1001 H         1 UNK         0.0600 
    237 H237       -6.0728  -17.5419  -55.8153 H         1 UNK         0.0600 
    238 H238       -4.9815  -18.7661  -55.1570 H         1 UNK         0.0600 
    239 H239       -5.5346  -18.8689  -56.8214 H         1 UNK         0.0600 
    240 H240       -6.0323  -17.8958  -53.6162 H         1 UNK         0.3000 
    241 H241       -8.4084  -17.1177  -52.2692 H         1 UNK         0.0600 
    242 H242       -7.2397  -20.0727  -49.8856 H         1 UNK         0.3800 
    243 H243       -6.7411  -20.0231  -51.5608 H         1 UNK         0.3800 
    244 H244       -6.7708  -15.4573  -52.6398 H         1 UNK         0.0800 
    245 H245       -6.8378  -15.6571  -50.9231 H         1 UNK         0.0800 
    246 H246       -4.8746  -15.6515  -49.5969 H         1 UNK         0.0800 
    247 H247       -4.6773  -17.3852  -49.6496 H         1 UNK         0.0800 
@<TRIPOS>BOND
     1    1    2 1    
     2    1  127 1    
     3    1  128 1    
     4    1  129 1    
     5    2    3 2    
     6    2    4 am   BACKBONE|DICT|INTERRES
     7    4    5 1    
     8    4  130 1    
     9    5    6 1    
    10    5   65 1    
    11    5  131 1    
    12    6    7 1    
    13    6  132 1    
    14    6  133 1    
    15    7    8 1    
    16    8    9 1    
    17    8  134 1    
    18    8  135 1    
    19    9   10 ar   
    20    9   14 ar   
    21   10   11 ar   
    22   10  136 1    
    23   11   12 ar   
    24   11  126 1    
    25   12   13 ar   
    26   12  137 1    
    27   13   14 ar   
    28   13   15 1    
    29   14  138 1    
    30   15   16 1    
    31   15  139 1    
    32   15  140 1    
    33   16   17 1    
    34   17   18 1    
    35   17  141 1    
    36   17  142 1    
    37   18   19 1    
    38   18   67 1    
    39   18  143 1    
    40   19   20 am   BACKBONE|DICT|INTERRES
    41   19  144 1    
    42   20   21 2    
    43   20   22 1    
    44   22   23 1    
    45   22   24 1    
    46   22  145 1    
    47   23  146 1    
    48   23  147 1    
    49   23  148 1    
    50   24   25 am   BACKBONE|DICT|INTERRES
    51   24  149 1    
    52   25   26 2    
    53   25   27 1    
    54   27   28 1    
    55   27   29 1    
    56   27  150 1    
    57   28  151 1    
    58   28  152 1    
    59   28  153 1    
    60   29   30 am   BACKBONE|DICT|INTERRES
    61   29  154 1    
    62   30   31 2    
    63   30   32 1    
    64   32   33 1    
    65   32   34 1    
    66   32  155 1    
    67   33  156 1    
    68   33  157 1    
    69   33  158 1    
    70   34   35 am   BACKBONE|DICT|INTERRES
    71   34  159 1    
    72   35   36 2    
    73   35   37 1    
    74   37   38 1    
    75   37   39 1    
    76   37  160 1    
    77   38  161 1    
    78   38  162 1    
    79   38  163 1    
    80   39   40 am   BACKBONE|DICT|INTERRES
    81   39  164 1    
    82   40   41 2    
    83   40   42 1    
    84   42   43 1    
    85   42   44 1    
    86   42  165 1    
    87   43  166 1    
    88   43  167 1    
    89   43  168 1    
    90   44   45 am   BACKBONE|DICT|INTERRES
    91   44  169 1    
    92   45   46 2    
    93   45   47 1    
    94   47   48 1    
    95   47   49 1    
    96   47  170 1    
    97   48  171 1    
    98   48  172 1    
    99   48  173 1    
   100   49   50 am   BACKBONE|DICT|INTERRES
   101   49  174 1    
   102   50   51 2    
   103   50   52 1    
   104   52   53 1    
   105   52   54 1    
   106   52  175 1    
   107   53  176 1    
   108   53  177 1    
   109   53  178 1    
   110   54   55 am   BACKBONE|DICT|INTERRES
   111   54  179 1    
   112   55   56 2    
   113   55   57 1    
   114   57   58 1    
   115   57   59 1    
   116   57  180 1    
   117   58  181 1    
   118   58  182 1    
   119   58  183 1    
   120   59   60 am   BACKBONE|DICT|INTERRES
   121   59  184 1    
   122   60   61 2    
   123   60   62 1    
   124   62   63 1    
   125   62   64 1    
   126   62  185 1    
   127   63  186 1    
   128   63  187 1    
   129   63  188 1    
   130   64   65 am   BACKBONE|DICT|INTERRES
   131   64  189 1    
   132   65   66 2    
   133   67   68 2    
   134   67   69 am   BACKBONE|DICT|INTERRES
   135   69   70 1    
   136   69  190 1    
   137   70   71 1    
   138   70   72 1    
   139   70  191 1    
   140   71  192 1    
   141   71  193 1    
   142   71  194 1    
   143   72   73 2    
   144   72   74 am   BACKBONE|DICT|INTERRES
   145   74   75 1    
   146   74  195 1    
   147   75   76 1    
   148   75   77 1    
   149   75  196 1    
   150   76  197 1    
   151   76  198 1    
   152   76  199 1    
   153   77   78 2    
   154   77   79 am   BACKBONE|DICT|INTERRES
   155   79   80 1    
   156   79  200 1    
   157   80   81 1    
   158   80   82 1    
   159   80  201 1    
   160   81  202 1    
   161   81  203 1    
   162   81  204 1    
   163   82   83 2    
   164   82   84 am   BACKBONE|DICT|INTERRES
   165   84   85 1    
   166   84  205 1    
   167   85   86 1    
   168   85   87 1    
   169   85  206 1    
   170   86  207 1    
   171   86  208 1    
   172   86  209 1    
   173   87   88 2    
   174   87   89 am   BACKBONE|DICT|INTERRES
   175   89   90 1    
   176   89  210 1    
   177   90   91 1    
   178   90   92 1    
   179   90  211 1    
   180   91  212 1    
   181   91  213 1    
   182   91  214 1    
   183   92   93 2    
   184   92   94 am   BACKBONE|DICT|INTERRES
   185   94   95 1    
   186   94  215 1    
   187   95   96 1    
   188   95   97 1    
   189   95  216 1    
   190   96  217 1    
   191   96  218 1    
   192   96  219 1    
   193   97   98 2    
   194   97   99 am   BACKBONE|DICT|INTERRES
   195   99  100 1    
   196   99  220 1    
   197  100  101 1    
   198  100  102 1    
   199  100  221 1    
   200  101  222 1    
   201  101  223 1    
   202  101  224 1    
   203  102  103 2    
   204  102  104 am   BACKBONE|DICT|INTERRES
   205  104  105 1    
   206  104  225 1    
   207  105  106 1    
   208  105  107 1    
   209  105  226 1    
   210  106  227 1    
   211  106  228 1    
   212  106  229 1    
   213  107  108 2    
   214  107  109 am   BACKBONE|DICT|INTERRES
   215  109  110 1    
   216  109  230 1    
   217  110  111 1    
   218  110  112 1    
   219  110  231 1    
   220  111  232 1    
   221  111  233 1    
   222  111  234 1    
   223  112  113 2    
   224  112  114 am   BACKBONE|DICT|INTERRES
   225  114  115 1    
   226  114  235 1    
   227  115  116 1    
   228  115  117 1    
   229  115  236 1    
   230  116  237 1    
   231  116  238 1    
   232  116  239 1    
   233  117  118 2    
   234  117  119 am   BACKBONE|DICT|INTERRES
   235  119  120 1    
   236  119  240 1    
   237  120  121 1    
   238  120  124 1    
   239  120  241 1    
   240  121  122 am   BACKBONE|DICT|INTERRES
   241  121  123 2    
   242  122  242 1    
   243  122  243 1    
   244  124  125 1    
   245  124  244 1    
   246  124  245 1    
   247  125  126 1    
   248  126  246 1    
   249  126  247 1    
@<TRIPOS>SUBSTRUCTURE
     1 UNK         1 GROUP             0       ****    0 ROOT    
