@<TRIPOS>MOLECULE
3R540
247   249    1
SMALL
USER_CHARGES


@<TRIPOS>ATOM
      1 CA          6.0916  -15.6882  -47.9433 C.3       0 UNK        -0.1800 
      2 C           4.6771  -15.3025  -48.3517 C.2       0 UNK         0.5000 
      3 O           3.7809  -15.2964  -47.5064 O.2       0 UNK        -0.5000 
      4 N           4.4810  -14.9857  -49.6399 N.am      1 UNK        -0.5000 
      5 CA          3.2061  -14.6099  -50.2623 C.3       1 UNK         0.1400 
      6 C6          3.3529  -14.3470  -51.7829 C.3       23 UNK        -0.0398 
      7 S7          3.7527  -15.8513  -52.7337 S.3       23 UNK        -0.2404 
      8 C8          2.1222  -16.2834  -53.4269 C.3       23 UNK        -0.0205 
      9 C9          1.2131  -16.8913  -52.3705 C.ar      23 UNK        -0.0193 
     10 C10         0.3319  -16.0892  -51.6397 C.ar      23 UNK        -0.1150 
     11 C11        -0.4654  -16.6444  -50.6344 C.ar      23 UNK        -0.0193 
     12 C12        -0.3959  -18.0174  -50.3795 C.ar      23 UNK        -0.1150 
     13 C13         0.4641  -18.8319  -51.1220 C.ar      23 UNK        -0.0193 
     14 C14         1.2667  -18.2626  -52.1133 C.ar      23 UNK        -0.1150 
     15 C15         0.5374  -20.3270  -50.8631 C.3       23 UNK        -0.0205 
     16 S16         1.9337  -20.7493  -49.7754 S.3       23 UNK        -0.2404 
     17 C17         1.2047  -20.4562  -48.1288 C.3       23 UNK        -0.0398 
     18 CA          0.8187  -21.7687  -47.4072 C.3       11 UNK         0.1400 
     19 N           0.5773  -21.5542  -45.9803 N.am      11 UNK        -0.5000 
     20 C           0.4085  -22.5335  -45.0816 C.2       10 UNK         0.5000 
     21 O           0.4917  -23.7303  -45.3515 O.2       10 UNK        -0.5000 
     22 CA          0.0386  -22.1112  -43.6506 C.3       10 UNK         0.1400 
     23 CB          1.2965  -21.7284  -42.8576 C.3       10 UNK        -0.1800 
     24 N          -0.9313  -21.0151  -43.6175 N.am      10 UNK        -0.5000 
     25 C          -2.1786  -21.0923  -44.1049 C.2       9 UNK         0.5000 
     26 O          -2.6519  -22.1105  -44.6079 O.2       9 UNK        -0.5000 
     27 CA         -3.0302  -19.8121  -44.0611 C.3       9 UNK         0.1400 
     28 CB         -3.6006  -19.5848  -42.6534 C.3       9 UNK        -0.1800 
     29 N          -2.2925  -18.6255  -44.4911 N.am      9 UNK        -0.5000 
     30 C          -1.7914  -18.4425  -45.7216 C.2       8 UNK         0.5000 
     31 O          -1.9093  -19.2498  -46.6455 O.2       8 UNK        -0.5000 
     32 CA         -0.9650  -17.1612  -45.9342 C.3       8 UNK         0.1400 
     33 CB         -1.8708  -15.9214  -46.0097 C.3       8 UNK        -0.1800 
     34 N           0.0320  -16.9592  -44.8846 N.am      8 UNK        -0.5000 
     35 C           1.0264  -17.8084  -44.5912 C.2       7 UNK         0.5000 
     36 O           1.2507  -18.8467  -45.2122 O.2       7 UNK        -0.5000 
     37 CA          1.8769  -17.4645  -43.3574 C.3       7 UNK         0.1400 
     38 CB          2.9342  -16.4017  -43.6970 C.3       7 UNK        -0.1800 
     39 N           1.0533  -17.0130  -42.2333 N.am      7 UNK        -0.5000 
     40 C           0.1913  -17.7944  -41.5649 C.2       6 UNK         0.5000 
     41 O           0.0148  -18.9854  -41.8123 O.2       6 UNK        -0.5000 
     42 CA         -0.6438  -17.1255  -40.4592 C.3       6 UNK         0.1400 
     43 CB          0.1630  -17.0232  -39.1563 C.3       6 UNK        -0.1800 
     44 N          -1.1160  -15.7968  -40.8440 N.am      6 UNK        -0.5000 
     45 C          -1.9983  -15.5569  -41.8246 C.2       5 UNK         0.5000 
     46 O          -2.5505  -16.4386  -42.4824 O.2       5 UNK        -0.5000 
     47 CA         -2.2518  -14.0753  -42.1631 C.3       5 UNK         0.1400 
     48 CB         -3.3288  -13.4835  -41.2420 C.3       5 UNK        -0.1800 
     49 N          -1.0318  -13.2648  -42.0767 N.am      5 UNK        -0.5000 
     50 C           0.0402  -13.4481  -42.8570 C.2       4 UNK         0.5000 
     51 O           0.0924  -14.2927  -43.7571 O.2       4 UNK        -0.5000 
     52 CA          1.2761  -12.5927  -42.5530 C.3       4 UNK         0.1400 
     53 CB          2.0458  -13.1519  -41.3418 C.3       4 UNK        -0.1800 
     54 N           2.1150  -12.6217  -43.7407 N.am      4 UNK        -0.5000 
     55 C           3.1093  -11.7877  -44.0544 C.2       3 UNK         0.5000 
     56 O           3.5186  -10.8926  -43.3141 O.2       3 UNK        -0.5000 
     57 CA          3.7345  -11.9761  -45.4512 C.3       3 UNK         0.1400 
     58 CB          4.9828  -12.8666  -45.3681 C.3       3 UNK        -0.1800 
     59 N           2.8012  -12.5460  -46.4303 N.am      3 UNK        -0.5000 
     60 C           1.7143  -11.9131  -46.9009 C.2       2 UNK         0.5000 
     61 O           1.4009  -10.7693  -46.5661 O.2       2 UNK        -0.5000 
     62 CA          0.8257  -12.6924  -47.8963 C.3       2 UNK         0.1400 
     63 CB         -0.0350  -11.7686  -48.7839 C.3       2 UNK        -0.1800 
     64 N           1.5695  -13.6544  -48.7162 N.am      2 UNK        -0.5000 
     65 C           2.5693  -13.3883  -49.5695 C.2       1 UNK         0.5000 
     66 O           3.0042  -12.2593  -49.8052 O.2       1 UNK        -0.5000 
     67 C          -0.3713  -22.4829  -48.0831 C.2       11 UNK         0.5000 
     68 O          -0.1589  -23.4656  -48.7933 O.2       11 UNK        -0.5000 
     69 N          -1.6002  -22.0148  -47.8186 N.am      12 UNK        -0.5000 
     70 CA         -2.8316  -22.6337  -48.3163 C.3       12 UNK         0.1400 
     71 CB         -4.0296  -21.7288  -47.9951 C.3       12 UNK        -0.1800 
     72 C          -3.0447  -24.0620  -47.7742 C.2       12 UNK         0.5000 
     73 O          -3.4459  -24.9472  -48.5295 O.2       12 UNK        -0.5000 
     74 N          -2.7257  -24.2806  -46.4906 N.am      13 UNK        -0.5000 
     75 CA         -2.7510  -25.5932  -45.8437 C.3       13 UNK         0.1400 
     76 CB         -2.5583  -25.4308  -44.3286 C.3       13 UNK        -0.1800 
     77 C          -1.7114  -26.5677  -46.4288 C.2       13 UNK         0.5000 
     78 O          -2.0408  -27.7319  -46.6557 O.2       13 UNK        -0.5000 
     79 N          -0.4925  -26.0741  -46.6916 N.am      14 UNK        -0.5000 
     80 CA          0.5955  -26.8251  -47.3223 C.3       14 UNK         0.1400 
     81 CB          1.9056  -26.0302  -47.2128 C.3       14 UNK        -0.1800 
     82 C           0.2978  -27.1861  -48.7889 C.2       14 UNK         0.5000 
     83 O           0.5964  -28.3042  -49.2107 O.2       14 UNK        -0.5000 
     84 N          -0.3103  -26.2484  -49.5292 N.am      15 UNK        -0.5000 
     85 CA         -0.7999  -26.4523  -50.8946 C.3       15 UNK         0.1400 
     86 CB         -1.1533  -25.0888  -51.5104 C.3       15 UNK        -0.1800 
     87 C          -2.0169  -27.3963  -50.9638 C.2       15 UNK         0.5000 
     88 O          -2.2372  -28.0207  -52.0021 O.2       15 UNK        -0.5000 
     89 N          -2.7807  -27.4644  -49.8630 N.am      16 UNK        -0.5000 
     90 CA         -4.0424  -28.1864  -49.6781 C.3       16 UNK         0.1400 
     91 CB         -3.8270  -29.7111  -49.7712 C.3       16 UNK        -0.1800 
     92 C          -5.1557  -27.6662  -50.6114 C.2       16 UNK         0.5000 
     93 O          -5.9953  -28.4420  -51.0729 O.2       16 UNK        -0.5000 
     94 N          -5.1331  -26.3559  -50.8780 N.am      17 UNK        -0.5000 
     95 CA         -6.0086  -25.6449  -51.8004 C.3       17 UNK         0.1400 
     96 CB         -5.6424  -25.9966  -53.2561 C.3       17 UNK        -0.1800 
     97 C          -5.8476  -24.1394  -51.5599 C.2       17 UNK         0.5000 
     98 O          -4.8516  -23.7112  -50.9704 O.2       17 UNK        -0.5000 
     99 N          -6.8050  -23.3499  -52.0597 N.am      18 UNK        -0.5000 
    100 CA        -6.8094  -21.8867  -51.9994 C.3       18 UNK         0.1400 
    101 CB        -8.2513  -21.3842  -52.1958 C.3       18 UNK        -0.1800 
    102 C         -5.8184  -21.2568  -53.0026 C.2       18 UNK         0.5000 
    103 O         -6.2224  -20.4941  -53.8833 O.2       18 UNK        -0.5000 
    104 N         -4.5324  -21.5970  -52.8528 N.am      19 UNK        -0.5000 
    105 CA        -3.4025  -21.0680  -53.6145 C.3       19 UNK         0.1400 
    106 CB        -2.1105  -21.7268  -53.1097 C.3       19 UNK        -0.1800 
    107 C         -3.3241  -19.5365  -53.4967 C.2       19 UNK         0.5000 
    108 O         -3.3694  -19.0162  -52.3815 O.2       19 UNK        -0.5000 
    109 N         -3.2885  -18.8509  -54.6484 N.am      20 UNK        -0.5000 
    110 CA        -3.3299  -17.3885  -54.8031 C.3       20 UNK         0.1400 
    111 CB        -2.0321  -16.7569  -54.2593 C.3       20 UNK        -0.1800 
    112 C         -4.5991  -16.7257  -54.2117 C.2       20 UNK         0.5000 
    113 O         -4.5826  -15.5279  -53.9262 O.2       20 UNK        -0.5000 
    114 N         -5.6699  -17.5182  -54.0352 N.am      21 UNK        -0.5000 
    115 CA        -6.9297  -17.1939  -53.3562 C.3       21 UNK         0.1400 
    116 CB        -7.6791  -16.0492  -54.0702 C.3       21 UNK        -0.1800 
    117 C         -6.7724  -16.9546  -51.8366 C.2       21 UNK         0.5000 
    118 O         -7.6634  -16.3681  -51.2203 O.2       21 UNK        -0.5000 
    119 N         -5.6661  -17.4296  -51.2484 N.am      22 UNK        -0.5000 
    120 CA        -5.3281  -17.2792  -49.8221 C.3       22 UNK         0.1400 
    121 C         -5.9753  -18.3449  -48.8878 C.2       22 UNK         0.5000 
    122 N         -6.8169  -19.2448  -49.3807 N.am      22 UNK        -0.7600 
    123 O         -5.7289  -18.3426  -47.6853 O.2       22 UNK        -0.5000 
    124 C124       -3.7944  -17.1943  -49.6161 C.3       23 UNK        -0.0398 
    125 S125       -3.0785  -15.7286  -50.4372 S.3       23 UNK        -0.2404 
    126 C126       -1.3747  -15.7502  -49.8077 C.3       23 UNK        -0.0205 
    127 H127        6.1059  -16.7129  -47.5721 H         1 UNK         0.0600 
    128 H128        6.4475  -15.0335  -47.1484 H         1 UNK         0.0600 
    129 H129        6.7888  -15.6189  -48.7787 H         1 UNK         0.0600 
    130 H130        5.2690  -15.0110  -50.2710 H         1 UNK         0.3000 
    131 H131        2.5348  -15.4593  -50.1273 H         1 UNK         0.0600 
    132 H132        2.4416  -13.9086  -52.1932 H         1 UNK         0.0800 
    133 H133        4.1381  -13.6113  -51.9660 H         1 UNK         0.0800 
    134 H134        2.2652  -16.9973  -54.2395 H         1 UNK         0.0800 
    135 H135        1.6574  -15.4052  -53.8776 H         1 UNK         0.0800 
    136 H136        0.2788  -15.0286  -51.8400 H         1 UNK         0.1150 
    137 H137       -1.0118  -18.4512  -49.6049 H         1 UNK         0.1150 
    138 H138        1.9457  -18.8875  -52.6764 H         1 UNK         0.1150 
    139 H139       -0.3986  -20.6888  -50.4363 H         1 UNK         0.0800 
    140 H140        0.6611  -20.8538  -51.8103 H         1 UNK         0.0800 
    141 H141        0.3554  -19.7758  -48.1926 H         1 UNK         0.0800 
    142 H142        1.9611  -19.9287  -47.5468 H         1 UNK         0.0800 
    143 H143        1.6752  -22.4435  -47.4730 H         1 UNK         0.0600 
    144 H144        0.5455  -20.5885  -45.6651 H         1 UNK         0.3000 
    145 H145       -0.4193  -22.9722  -43.1599 H         1 UNK         0.0600 
    146 H146        1.0579  -21.5305  -41.8127 H         1 UNK         0.0600 
    147 H147        2.0305  -22.5350  -42.8750 H         1 UNK         0.0600 
    148 H148        1.7754  -20.8387  -43.2671 H         1 UNK         0.0600 
    149 H149       -0.6251  -20.1552  -43.1699 H         1 UNK         0.3000 
    150 H150       -3.8674  -19.9479  -44.7492 H         1 UNK         0.0600 
    151 H151       -4.1646  -20.4547  -42.3146 H         1 UNK         0.0600 
    152 H152       -4.2781  -18.7310  -42.6370 H         1 UNK         0.0600 
    153 H153       -2.8116  -19.3986  -41.9241 H         1 UNK         0.0600 
    154 H154       -2.1709  -17.8936  -43.7977 H         1 UNK         0.3000 
    155 H155       -0.4333  -17.2635  -46.8822 H         1 UNK         0.0600 
    156 H156       -2.3565  -15.7184  -45.0561 H         1 UNK         0.0600 
    157 H157       -1.3011  -15.0342  -46.2849 H         1 UNK         0.0600 
    158 H158       -2.6602  -16.0466  -46.7493 H         1 UNK         0.0600 
    159 H159       -0.0505  -16.1043  -44.3414 H         1 UNK         0.3000 
    160 H160        2.3990  -18.3725  -43.0486 H         1 UNK         0.0600 
    161 H161        2.4818  -15.4673  -44.0264 H         1 UNK         0.0600 
    162 H162        3.5851  -16.7453  -44.5023 H         1 UNK         0.0600 
    163 H163        3.5681  -16.1841  -42.8375 H         1 UNK         0.0600 
    164 H164        1.1030  -16.0349  -41.9962 H         1 UNK         0.3000 
    165 H165       -1.5165  -17.7552  -40.2729 H         1 UNK         0.0600 
    166 H166       -0.4459  -16.6211  -38.3464 H         1 UNK         0.0600 
    167 H167        0.5162  -18.0053  -38.8388 H         1 UNK         0.0600 
    168 H168        1.0371  -16.3809  -39.2705 H         1 UNK         0.0600 
    169 H169       -0.7162  -15.0105  -40.3542 H         1 UNK         0.3000 
    170 H170       -2.6176  -14.0273  -43.1909 H         1 UNK         0.0600 
    171 H171       -4.2525  -14.0610  -41.3015 H         1 UNK         0.0600 
    172 H172       -3.0111  -13.4788  -40.1986 H         1 UNK         0.0600 
    173 H173       -3.5694  -12.4585  -41.5247 H         1 UNK         0.0600 
    174 H174       -1.0084  -12.5537  -41.3597 H         1 UNK         0.3000 
    175 H175        0.9584  -11.5664  -42.3588 H         1 UNK         0.0600 
    176 H176        2.3959  -14.1688  -41.5212 H         1 UNK         0.0600 
    177 H177        2.9162  -12.5388  -41.1083 H         1 UNK         0.0600 
    178 H178        1.4191  -13.1705  -40.4496 H         1 UNK         0.0600 
    179 H179        1.8175  -13.3080  -44.4231 H         1 UNK         0.3000 
    180 H180        4.0414  -10.9911  -45.8087 H         1 UNK         0.0600 
    181 H181        4.7315  -13.8867  -45.0740 H         1 UNK         0.0600 
    182 H182        5.6944  -12.4786  -44.6381 H         1 UNK         0.0600 
    183 H183        5.4959  -12.9088  -46.3286 H         1 UNK         0.0600 
    184 H184        3.0087  -13.4800  -46.7689 H         1 UNK         0.3000 
    185 H185        0.1439  -13.2825  -47.2829 H         1 UNK         0.0600 
    186 H186       -0.7032  -11.1554  -48.1783 H         1 UNK         0.0600 
    187 H187        0.5790  -11.0917  -49.3786 H         1 UNK         0.0600 
    188 H188       -0.6588  -12.3427  -49.4683 H         1 UNK         0.0600 
    189 H189        1.3537  -14.6260  -48.5422 H         1 UNK         0.3000 
    190 H190       -1.7046  -21.1904  -47.2349 H         1 UNK         0.3000 
    191 H191       -2.7491  -22.7050  -49.4028 H         1 UNK         0.0600 
    192 H192       -4.1579  -21.5936  -46.9208 H         1 UNK         0.0600 
    193 H193       -4.9540  -22.1526  -48.3896 H         1 UNK         0.0600 
    194 H194       -3.9078  -20.7423  -48.4431 H         1 UNK         0.0600 
    195 H195       -2.4632  -23.4891  -45.9089 H         1 UNK         0.3000 
    196 H196       -3.7397  -26.0254  -46.0117 H         1 UNK         0.0600 
    197 H197       -2.6062  -26.3962  -43.8234 H         1 UNK         0.0600 
    198 H198       -3.3353  -24.7990  -43.8981 H         1 UNK         0.0600 
    199 H199       -1.5937  -24.9833  -44.0902 H         1 UNK         0.0600 
    200 H200       -0.2809  -25.1186  -46.4163 H         1 UNK         0.3000 
    201 H201        0.7205  -27.7590  -46.7704 H         1 UNK         0.0600 
    202 H202        2.1692  -25.8480  -46.1709 H         1 UNK         0.0600 
    203 H203        1.8341  -25.0642  -47.7132 H         1 UNK         0.0600 
    204 H204        2.7336  -26.5758  -47.6670 H         1 UNK         0.0600 
    205 H205       -0.4467  -25.3224  -49.1309 H         1 UNK         0.3000 
    206 H206        0.0035  -26.8988  -51.4840 H         1 UNK         0.0600 
    207 H207       -0.2898  -24.4234  -51.5226 H         1 UNK         0.0600 
    208 H208       -1.4930  -25.2015  -52.5406 H         1 UNK         0.0600 
    209 H209       -1.9501  -24.5913  -50.9559 H         1 UNK         0.0600 
    210 H210       -2.5321  -26.8494  -49.0979 H         1 UNK         0.3000 
    211 H211       -4.3697  -27.9616  -48.6620 H         1 UNK         0.0600 
    212 H212       -3.5622  -30.0236  -50.7815 H         1 UNK         0.0600 
    213 H213       -4.7315  -30.2509  -49.4889 H         1 UNK         0.0600 
    214 H214       -3.0326  -30.0364  -49.0992 H         1 UNK         0.0600 
    215 H215       -4.4561  -25.7626  -50.4057 H         1 UNK         0.3000 
    216 H216       -7.0444  -25.9231  -51.5966 H         1 UNK         0.0600 
    217 H217       -4.6011  -25.7548  -53.4742 H         1 UNK         0.0600 
    218 H218       -6.2631  -25.4472  -53.9648 H         1 UNK         0.0600 
    219 H219       -5.7870  -27.0572  -53.4609 H         1 UNK         0.0600 
    220 H220       -7.5701  -23.7738  -52.5645 H         1 UNK         0.3000 
    221 H221       -6.4865  -21.5831  -51.0015 H         1 UNK         0.0600 
    222 H222       -8.9160  -21.7864  -51.4310 H         1 UNK         0.0600 
    223 H223       -8.6484  -21.6715  -53.1702 H         1 UNK         0.0600 
    224 H224       -8.3030  -20.2970  -52.1284 H         1 UNK         0.0600 
    225 H225       -4.3139  -22.2491  -52.1056 H         1 UNK         0.3000 
    226 H226       -3.5467  -21.3413  -54.6615 H         1 UNK         0.0600 
    227 H227       -2.1247  -22.8024  -53.2847 H         1 UNK         0.0600 
    228 H228       -1.2363  -21.3236  -53.6225 H         1 UNK         0.0600 
    229 H229       -1.9725  -21.5650  -52.0404 H         1 UNK         0.0600 
    230 H230       -3.2859  -19.3723  -55.5142 H         1 UNK         0.3000 
    231 H231       -3.3649  -17.1967  -55.8763 H         1 UNK         0.0600 
    232 H232       -1.9701  -16.8494  -53.1753 H         1 UNK         0.0600 
    233 H233       -1.9771  -15.6946  -54.4988 H         1 UNK         0.0600 
    234 H234       -1.1485  -17.2318  -54.6856 H         1 UNK         0.0600 
    235 H235       -5.5775  -18.4959  -54.2885 H         1 UNK         0.3000 
    236 H236       -7.5490  -18.0869  -53.4486 H         1 UNK         0.0600 
    237 H237       -8.6917  -15.9429  -53.6796 H         1 UNK         0.0600 
    238 H238       -7.1794  -15.0895  -53.9376 H         1 UNK         0.0600 
    239 H239       -7.7647  -16.2399  -55.1399 H         1 UNK         0.0600 
    240 H240       -4.9641  -17.8994  -51.8116 H         1 UNK         0.3000 
    241 H241       -5.7433  -16.3289  -49.4813 H         1 UNK         0.0600 
    242 H242       -7.2441  -19.9110  -48.7575 H         1 UNK         0.3800 
    243 H243       -7.0779  -19.2126  -50.3504 H         1 UNK         0.3800 
    244 H244       -3.3089  -18.0958  -49.9884 H         1 UNK         0.0800 
    245 H245       -3.5529  -17.1376  -48.5550 H         1 UNK         0.0800 
    246 H246       -0.9952  -14.7284  -49.8159 H         1 UNK         0.0800 
    247 H247       -1.3621  -16.0669  -48.7672 H         1 UNK         0.0800 
@<TRIPOS>BOND
     1    1    2 1    
     2    1  127 1    
     3    1  128 1    
     4    1  129 1    
     5    2    3 2    
     6    2    4 am   BACKBONE|DICT|INTERRES
     7    4    5 1    
     8    4  130 1    
     9    5    6 1    
    10    5   65 1    
    11    5  131 1    
    12    6    7 1    
    13    6  132 1    
    14    6  133 1    
    15    7    8 1    
    16    8    9 1    
    17    8  134 1    
    18    8  135 1    
    19    9   10 ar   
    20    9   14 ar   
    21   10   11 ar   
    22   10  136 1    
    23   11   12 ar   
    24   11  126 1    
    25   12   13 ar   
    26   12  137 1    
    27   13   14 ar   
    28   13   15 1    
    29   14  138 1    
    30   15   16 1    
    31   15  139 1    
    32   15  140 1    
    33   16   17 1    
    34   17   18 1    
    35   17  141 1    
    36   17  142 1    
    37   18   19 1    
    38   18   67 1    
    39   18  143 1    
    40   19   20 am   BACKBONE|DICT|INTERRES
    41   19  144 1    
    42   20   21 2    
    43   20   22 1    
    44   22   23 1    
    45   22   24 1    
    46   22  145 1    
    47   23  146 1    
    48   23  147 1    
    49   23  148 1    
    50   24   25 am   BACKBONE|DICT|INTERRES
    51   24  149 1    
    52   25   26 2    
    53   25   27 1    
    54   27   28 1    
    55   27   29 1    
    56   27  150 1    
    57   28  151 1    
    58   28  152 1    
    59   28  153 1    
    60   29   30 am   BACKBONE|DICT|INTERRES
    61   29  154 1    
    62   30   31 2    
    63   30   32 1    
    64   32   33 1    
    65   32   34 1    
    66   32  155 1    
    67   33  156 1    
    68   33  157 1    
    69   33  158 1    
    70   34   35 am   BACKBONE|DICT|INTERRES
    71   34  159 1    
    72   35   36 2    
    73   35   37 1    
    74   37   38 1    
    75   37   39 1    
    76   37  160 1    
    77   38  161 1    
    78   38  162 1    
    79   38  163 1    
    80   39   40 am   BACKBONE|DICT|INTERRES
    81   39  164 1    
    82   40   41 2    
    83   40   42 1    
    84   42   43 1    
    85   42   44 1    
    86   42  165 1    
    87   43  166 1    
    88   43  167 1    
    89   43  168 1    
    90   44   45 am   BACKBONE|DICT|INTERRES
    91   44  169 1    
    92   45   46 2    
    93   45   47 1    
    94   47   48 1    
    95   47   49 1    
    96   47  170 1    
    97   48  171 1    
    98   48  172 1    
    99   48  173 1    
   100   49   50 am   BACKBONE|DICT|INTERRES
   101   49  174 1    
   102   50   51 2    
   103   50   52 1    
   104   52   53 1    
   105   52   54 1    
   106   52  175 1    
   107   53  176 1    
   108   53  177 1    
   109   53  178 1    
   110   54   55 am   BACKBONE|DICT|INTERRES
   111   54  179 1    
   112   55   56 2    
   113   55   57 1    
   114   57   58 1    
   115   57   59 1    
   116   57  180 1    
   117   58  181 1    
   118   58  182 1    
   119   58  183 1    
   120   59   60 am   BACKBONE|DICT|INTERRES
   121   59  184 1    
   122   60   61 2    
   123   60   62 1    
   124   62   63 1    
   125   62   64 1    
   126   62  185 1    
   127   63  186 1    
   128   63  187 1    
   129   63  188 1    
   130   64   65 am   BACKBONE|DICT|INTERRES
   131   64  189 1    
   132   65   66 2    
   133   67   68 2    
   134   67   69 am   BACKBONE|DICT|INTERRES
   135   69   70 1    
   136   69  190 1    
   137   70   71 1    
   138   70   72 1    
   139   70  191 1    
   140   71  192 1    
   141   71  193 1    
   142   71  194 1    
   143   72   73 2    
   144   72   74 am   BACKBONE|DICT|INTERRES
   145   74   75 1    
   146   74  195 1    
   147   75   76 1    
   148   75   77 1    
   149   75  196 1    
   150   76  197 1    
   151   76  198 1    
   152   76  199 1    
   153   77   78 2    
   154   77   79 am   BACKBONE|DICT|INTERRES
   155   79   80 1    
   156   79  200 1    
   157   80   81 1    
   158   80   82 1    
   159   80  201 1    
   160   81  202 1    
   161   81  203 1    
   162   81  204 1    
   163   82   83 2    
   164   82   84 am   BACKBONE|DICT|INTERRES
   165   84   85 1    
   166   84  205 1    
   167   85   86 1    
   168   85   87 1    
   169   85  206 1    
   170   86  207 1    
   171   86  208 1    
   172   86  209 1    
   173   87   88 2    
   174   87   89 am   BACKBONE|DICT|INTERRES
   175   89   90 1    
   176   89  210 1    
   177   90   91 1    
   178   90   92 1    
   179   90  211 1    
   180   91  212 1    
   181   91  213 1    
   182   91  214 1    
   183   92   93 2    
   184   92   94 am   BACKBONE|DICT|INTERRES
   185   94   95 1    
   186   94  215 1    
   187   95   96 1    
   188   95   97 1    
   189   95  216 1    
   190   96  217 1    
   191   96  218 1    
   192   96  219 1    
   193   97   98 2    
   194   97   99 am   BACKBONE|DICT|INTERRES
   195   99  100 1    
   196   99  220 1    
   197  100  101 1    
   198  100  102 1    
   199  100  221 1    
   200  101  222 1    
   201  101  223 1    
   202  101  224 1    
   203  102  103 2    
   204  102  104 am   BACKBONE|DICT|INTERRES
   205  104  105 1    
   206  104  225 1    
   207  105  106 1    
   208  105  107 1    
   209  105  226 1    
   210  106  227 1    
   211  106  228 1    
   212  106  229 1    
   213  107  108 2    
   214  107  109 am   BACKBONE|DICT|INTERRES
   215  109  110 1    
   216  109  230 1    
   217  110  111 1    
   218  110  112 1    
   219  110  231 1    
   220  111  232 1    
   221  111  233 1    
   222  111  234 1    
   223  112  113 2    
   224  112  114 am   BACKBONE|DICT|INTERRES
   225  114  115 1    
   226  114  235 1    
   227  115  116 1    
   228  115  117 1    
   229  115  236 1    
   230  116  237 1    
   231  116  238 1    
   232  116  239 1    
   233  117  118 2    
   234  117  119 am   BACKBONE|DICT|INTERRES
   235  119  120 1    
   236  119  240 1    
   237  120  121 1    
   238  120  124 1    
   239  120  241 1    
   240  121  122 am   BACKBONE|DICT|INTERRES
   241  121  123 2    
   242  122  242 1    
   243  122  243 1    
   244  124  125 1    
   245  124  244 1    
   246  124  245 1    
   247  125  126 1    
   248  126  246 1    
   249  126  247 1    
@<TRIPOS>SUBSTRUCTURE
     1 UNK         1 GROUP             0       ****    0 ROOT    
