@<TRIPOS>MOLECULE
3R540
247   249    1
SMALL
USER_CHARGES


@<TRIPOS>ATOM
      1 CA          0.4384  -12.6163  -49.9285 C.3       0 UNK        -0.1800 
      2 C          -0.6537  -12.4534  -48.8809 C.2       0 UNK         0.5000 
      3 O          -1.6253  -11.7365  -49.1165 O.2       0 UNK        -0.5000 
      4 N          -0.4928  -13.1208  -47.7300 N.am      1 UNK        -0.5000 
      5 CA         -1.4329  -13.1627  -46.5967 C.3       1 UNK         0.1400 
      6 C6         -2.8130  -13.7880  -46.9445 C.3       23 UNK        -0.0398 
      7 S7         -2.6476  -15.5219  -47.4761 S.3       23 UNK        -0.2404 
      8 C8         -3.0189  -15.4174  -49.2537 C.3       23 UNK        -0.0205 
      9 C9         -2.5639  -16.6928  -49.9381 C.ar      23 UNK        -0.0193 
     10 C10        -1.2982  -16.7611  -50.5238 C.ar      23 UNK        -0.1150 
     11 C11        -0.8203  -17.9681  -51.0406 C.ar      23 UNK        -0.0193 
     12 C12        -1.6309  -19.1065  -50.9888 C.ar      23 UNK        -0.1150 
     13 C13        -2.9090  -19.0452  -50.4231 C.ar      23 UNK        -0.0193 
     14 C14        -3.3764  -17.8280  -49.9175 C.ar      23 UNK        -0.1150 
     15 C15        -3.7575  -20.3077  -50.3188 C.3       23 UNK        -0.0205 
     16 S16        -4.4703  -20.5859  -48.6562 S.3       23 UNK        -0.2404 
     17 C17        -2.9968  -20.5133  -47.5798 C.3       23 UNK        -0.0398 
     18 CA         -2.2748  -21.8748  -47.4560 C.3       11 UNK         0.1400 
     19 N          -0.8466  -21.7038  -47.1764 N.am      11 UNK        -0.5000 
     20 C           0.0597  -22.6904  -47.2053 C.2       10 UNK         0.5000 
     21 O          -0.2024  -23.8480  -47.5273 O.2       10 UNK        -0.5000 
     22 CA          1.4852  -22.3385  -46.7420 C.3       10 UNK         0.1400 
     23 CB          2.2818  -21.6706  -47.8728 C.3       10 UNK        -0.1800 
     24 N           1.4892  -21.4777  -45.5585 N.am      10 UNK        -0.5000 
     25 C           1.0005  -21.8276  -44.3603 C.2       9 UNK         0.5000 
     26 O           0.5604  -22.9475  -44.1050 O.2       9 UNK        -0.5000 
     27 CA          0.9345  -20.7275  -43.2855 C.3       9 UNK         0.1400 
     28 CB          2.2789  -20.5795  -42.5576 C.3       9 UNK        -0.1800 
     29 N           0.5206  -19.4373  -43.8400 N.am      9 UNK        -0.5000 
     30 C          -0.6960  -19.1878  -44.3464 C.2       8 UNK         0.5000 
     31 O          -1.6132  -20.0085  -44.3562 O.2       8 UNK        -0.5000 
     32 CA         -0.9065  -17.8096  -44.9958 C.3       8 UNK         0.1400 
     33 CB         -1.2931  -16.7592  -43.9439 C.3       8 UNK        -0.1800 
     34 N           0.2801  -17.3647  -45.7269 N.am      8 UNK        -0.5000 
     35 C           0.6855  -17.9084  -46.8849 C.2       7 UNK         0.5000 
     36 O           0.0897  -18.8239  -47.4517 O.2       7 UNK        -0.5000 
     37 CA          2.0109  -17.3855  -47.4756 C.3       7 UNK         0.1400 
     38 CB          1.7737  -16.1020  -48.2823 C.3       7 UNK        -0.1800 
     39 N           3.0247  -17.1120  -46.4579 N.am      7 UNK        -0.5000 
     40 C           3.5119  -18.0077  -45.5900 C.2       6 UNK         0.5000 
     41 O           3.2363  -19.2056  -45.6268 O.2       6 UNK        -0.5000 
     42 CA          4.4169  -17.4753  -44.4610 C.3       6 UNK         0.1400 
     43 CB          5.8903  -17.7794  -44.7693 C.3       6 UNK        -0.1800 
     44 N           4.2730  -16.0412  -44.1796 N.am      6 UNK        -0.5000 
     45 C           3.1468  -15.4243  -43.7939 C.2       5 UNK         0.5000 
     46 O           2.0517  -15.9860  -43.7049 O.2       5 UNK        -0.5000 
     47 CA          3.2661  -13.9088  -43.5411 C.3       5 UNK         0.1400 
     48 CB          3.0969  -13.1464  -44.8655 C.3       5 UNK        -0.1800 
     49 N           2.2933  -13.3983  -42.5718 N.am      5 UNK        -0.5000 
     50 C           2.1891  -13.7925  -41.2929 C.2       4 UNK         0.5000 
     51 O           2.9498  -14.6080  -40.7679 O.2       4 UNK        -0.5000 
     52 CA          1.0761  -13.1297  -40.4589 C.3       4 UNK         0.1400 
     53 CB          1.2451  -13.3303  -38.9407 C.3       4 UNK        -0.1800 
     54 N           1.0213  -11.7030  -40.7620 N.am      4 UNK        -0.5000 
     55 C          -0.0910  -10.9717  -40.8864 C.2       3 UNK         0.5000 
     56 O          -1.2249  -11.4005  -40.6665 O.2       3 UNK        -0.5000 
     57 CA          0.0844   -9.5176  -41.3776 C.3       3 UNK         0.1400 
     58 CB          1.5030   -8.9475  -41.1492 C.3       3 UNK        -0.1800 
     59 N          -0.3007   -9.3658  -42.7861 N.am      3 UNK        -0.5000 
     60 C           0.1636  -10.0738  -43.8257 C.2       2 UNK         0.5000 
     61 O           1.0155  -10.9616  -43.7340 O.2       2 UNK        -0.5000 
     62 CA         -0.4007   -9.7191  -45.2115 C.3       2 UNK         0.1400 
     63 CB          0.5465   -8.7617  -45.9502 C.3       2 UNK        -0.1800 
     64 N          -0.5617  -10.9338  -46.0064 N.am      2 UNK        -0.5000 
     65 C          -1.5588  -11.8142  -45.8487 C.2       1 UNK         0.5000 
     66 O          -2.5267  -11.6065  -45.1146 O.2       1 UNK        -0.5000 
     67 C          -2.9589  -22.7964  -46.4230 C.2       11 UNK         0.5000 
     68 O          -3.7269  -23.6787  -46.8068 O.2       11 UNK        -0.5000 
     69 N          -2.6359  -22.6130  -45.1343 N.am      12 UNK        -0.5000 
     70 CA         -3.1059  -23.4581  -44.0353 C.3       12 UNK         0.1400 
     71 CB         -2.7085  -22.8343  -42.6896 C.3       12 UNK        -0.1800 
     72 C          -2.6008  -24.9089  -44.1463 C.2       12 UNK         0.5000 
     73 O          -3.3881  -25.8372  -43.9624 O.2       12 UNK        -0.5000 
     74 N          -1.3200  -25.0839  -44.5036 N.am      13 UNK        -0.5000 
     75 CA         -0.6970  -26.3827  -44.7787 C.3       13 UNK         0.1400 
     76 CB          0.8170  -26.1983  -44.9593 C.3       13 UNK        -0.1800 
     77 C          -1.3103  -27.1014  -45.9975 C.2       13 UNK         0.5000 
     78 O          -1.4138  -28.3282  -45.9914 O.2       13 UNK        -0.5000 
     79 N          -1.7530  -26.3235  -46.9942 N.am      14 UNK        -0.5000 
     80 CA         -2.5089  -26.7799  -48.1623 C.3       14 UNK         0.1400 
     81 CB         -2.3314  -25.7592  -49.3004 C.3       14 UNK        -0.1800 
     82 C          -4.0063  -27.0272  -47.8700 C.2       14 UNK         0.5000 
     83 O          -4.7465  -27.3500  -48.7984 O.2       14 UNK        -0.5000 
     84 N          -4.4400  -26.8625  -46.6102 N.am      15 UNK        -0.5000 
     85 CA         -5.8092  -27.0300  -46.1106 C.3       15 UNK         0.1400 
     86 CB         -6.2589  -28.5023  -46.2176 C.3       15 UNK        -0.1800 
     87 C          -6.8055  -26.0396  -46.7484 C.2       15 UNK         0.5000 
     88 O          -7.9483  -26.4038  -47.0303 O.2       15 UNK        -0.5000 
     89 N          -6.3380  -24.8020  -46.9663 N.am      16 UNK        -0.5000 
     90 CA         -7.0398  -23.6660  -47.5704 C.3       16 UNK         0.1400 
     91 CB         -8.2985  -23.2821  -46.7643 C.3       16 UNK        -0.1800 
     92 C          -7.3170  -23.8232  -49.0802 C.2       16 UNK         0.5000 
     93 O          -8.1014  -23.0494  -49.6332 O.2       16 UNK        -0.5000 
     94 N          -6.6511  -24.7829  -49.7392 N.am      17 UNK        -0.5000 
     95 CA         -6.5851  -24.8740  -51.1974 C.3       17 UNK         0.1400 
     96 CB         -6.0611  -26.2598  -51.6010 C.3       17 UNK        -0.1800 
     97 C          -5.6719  -23.7685  -51.7570 C.2       17 UNK         0.5000 
     98 O          -4.7466  -23.3351  -51.0678 O.2       17 UNK        -0.5000 
     99 N          -5.9382  -23.3461  -53.0002 N.am      18 UNK        -0.5000 
    100 CA        -5.2450  -22.2431  -53.6741 C.3       18 UNK         0.1400 
    101 CB        -5.9140  -21.9801  -55.0320 C.3       18 UNK        -0.1800 
    102 C         -3.7310  -22.4580  -53.8580 C.2       18 UNK         0.5000 
    103 O         -2.9807  -21.4823  -53.8285 O.2       18 UNK        -0.5000 
    104 N         -3.3157  -23.7214  -54.0389 N.am      19 UNK        -0.5000 
    105 CA        -1.9366  -24.1733  -54.2406 C.3       19 UNK         0.1400 
    106 CB        -1.1185  -24.0017  -52.9387 C.3       19 UNK        -0.1800 
    107 C         -1.3072  -23.5028  -55.4809 C.2       19 UNK         0.5000 
    108 O         -1.7107  -23.8159  -56.6022 O.2       19 UNK        -0.5000 
    109 N         -0.3629  -22.5789  -55.2640 N.am      20 UNK        -0.5000 
    110 CA         0.2857  -21.7744  -56.3017 C.3       20 UNK         0.1400 
    111 CB         1.6505  -21.3065  -55.7701 C.3       20 UNK        -0.1800 
    112 C         -0.5601  -20.5719  -56.7765 C.2       20 UNK         0.5000 
    113 O         -0.1241  -19.8599  -57.6821 O.2       20 UNK        -0.5000 
    114 N         -1.7223  -20.3349  -56.1486 N.am      21 UNK        -0.5000 
    115 CA        -2.6911  -19.2474  -56.3508 C.3       21 UNK         0.1400 
    116 CB        -3.1903  -19.1735  -57.8060 C.3       21 UNK        -0.1800 
    117 C         -2.2039  -17.8786  -55.8404 C.2       21 UNK         0.5000 
    118 O         -2.9838  -17.1589  -55.2163 O.2       21 UNK        -0.5000 
    119 N         -0.9237  -17.5677  -56.0738 N.am      22 UNK        -0.5000 
    120 CA        -0.1633  -16.4561  -55.4753 C.3       22 UNK         0.1400 
    121 C         -0.5986  -15.0292  -55.9298 C.2       22 UNK         0.5000 
    122 N         -1.3596  -14.8821  -57.0072 N.am      22 UNK        -0.7600 
    123 O         -0.2141  -14.0342  -55.3211 O.2       22 UNK        -0.5000 
    124 C124       -0.0435  -16.5824  -53.9287 C.3       23 UNK        -0.0398 
    125 S125        0.6188  -18.2055  -53.4113 S.3       23 UNK        -0.2404 
    126 C126        0.5924  -18.0534  -51.6004 C.3       23 UNK        -0.0205 
    127 H127        0.0240  -13.0589  -50.8344 H         1 UNK         0.0600 
    128 H128        1.2474  -13.2574  -49.5778 H         1 UNK         0.0600 
    129 H129        0.8612  -11.6449  -50.1846 H         1 UNK         0.0600 
    130 H130        0.3353  -13.6844  -47.6122 H         1 UNK         0.3000 
    131 H131       -0.9623  -13.8237  -45.8673 H         1 UNK         0.0600 
    132 H132       -3.3348  -13.2043  -47.7036 H         1 UNK         0.0800 
    133 H133       -3.4659  -13.7962  -46.0705 H         1 UNK         0.0800 
    134 H134       -2.5185  -14.5549  -49.6945 H         1 UNK         0.0800 
    135 H135       -4.0898  -15.2675  -49.3981 H         1 UNK         0.0800 
    136 H136       -0.6724  -15.8806  -50.5424 H         1 UNK         0.1150 
    137 H137       -1.2570  -20.0439  -51.3764 H         1 UNK         0.1150 
    138 H138       -4.3519  -17.7770  -49.4548 H         1 UNK         0.1150 
    139 H139       -4.5706  -20.2441  -51.0418 H         1 UNK         0.0800 
    140 H140       -3.1704  -21.1853  -50.5942 H         1 UNK         0.0800 
    141 H141       -3.2956  -20.1312  -46.6021 H         1 UNK         0.0800 
    142 H142       -2.3163  -19.7607  -47.9753 H         1 UNK         0.0800 
    143 H143       -2.3324  -22.3779  -48.4238 H         1 UNK         0.0600 
    144 H144       -0.5351  -20.7649  -46.9532 H         1 UNK         0.3000 
    145 H145        1.9889  -23.2701  -46.4768 H         1 UNK         0.0600 
    146 H146        3.3070  -21.4652  -47.5641 H         1 UNK         0.0600 
    147 H147        2.3281  -22.3165  -48.7503 H         1 UNK         0.0600 
    148 H148        1.8321  -20.7279  -48.1836 H         1 UNK         0.0600 
    149 H149        1.9042  -20.5557  -45.6641 H         1 UNK         0.3000 
    150 H150        0.1865  -21.0276  -42.5488 H         1 UNK         0.0600 
    151 H151        2.5581  -21.5143  -42.0698 H         1 UNK         0.0600 
    152 H152        2.2280  -19.8124  -41.7848 H         1 UNK         0.0600 
    153 H153        3.0865  -20.3169  -43.2399 H         1 UNK         0.0600 
    154 H154        1.2221  -18.7134  -43.8945 H         1 UNK         0.3000 
    155 H155       -1.7330  -17.8990  -45.7041 H         1 UNK         0.0600 
    156 H156       -0.5120  -16.6280  -43.1946 H         1 UNK         0.0600 
    157 H157       -2.2037  -17.0523  -43.4199 H         1 UNK         0.0600 
    158 H158       -1.4823  -15.7904  -44.4053 H         1 UNK         0.0600 
    159 H159        0.8641  -16.6756  -45.2667 H         1 UNK         0.3000 
    160 H160        2.4017  -18.1525  -48.1472 H         1 UNK         0.0600 
    161 H161        1.4570  -15.2802  -47.6409 H         1 UNK         0.0600 
    162 H162        0.9985  -16.2517  -49.0300 H         1 UNK         0.0600 
    163 H163        2.6769  -15.7918  -48.8080 H         1 UNK         0.0600 
    164 H164        3.3177  -16.1524  -46.3563 H         1 UNK         0.3000 
    165 H165        4.1410  -18.0130  -43.5520 H         1 UNK         0.0600 
    166 H166        6.5342  -17.5034  -43.9342 H         1 UNK         0.0600 
    167 H167        6.0399  -18.8442  -44.9534 H         1 UNK         0.0600 
    168 H168        6.2353  -17.2418  -45.6533 H         1 UNK         0.0600 
    169 H169        5.1192  -15.4945  -44.2517 H         1 UNK         0.3000 
    170 H170        4.2627  -13.7047  -43.1448 H         1 UNK         0.0600 
    171 H171        3.7986  -13.5003  -45.6218 H         1 UNK         0.0600 
    172 H172        2.0901  -13.2617  -45.2692 H         1 UNK         0.0600 
    173 H173        3.2830  -12.0807  -44.7314 H         1 UNK         0.0600 
    174 H174        1.6560  -12.6874  -42.9182 H         1 UNK         0.3000 
    175 H175        0.1437  -13.6072  -40.7671 H         1 UNK         0.0600 
    176 H176        2.1771  -12.8933  -38.5806 H         1 UNK         0.0600 
    177 H177        0.4246  -12.8710  -38.3892 H         1 UNK         0.0600 
    178 H178        1.2540  -14.3900  -38.6827 H         1 UNK         0.0600 
    179 H179        1.9030  -11.2749  -41.0092 H         1 UNK         0.3000 
    180 H180       -0.6106   -8.9119  -40.7942 H         1 UNK         0.0600 
    181 H181        1.5358   -7.8856  -41.3930 H         1 UNK         0.0600 
    182 H182        2.2562   -9.4453  -41.7609 H         1 UNK         0.0600 
    183 H183        1.8025   -9.0448  -40.1049 H         1 UNK         0.0600 
    184 H184       -1.0188   -8.6770  -42.9618 H         1 UNK         0.3000 
    185 H185       -1.3715   -9.2324  -45.0962 H         1 UNK         0.0600 
    186 H186        0.1550   -8.5007  -46.9336 H         1 UNK         0.0600 
    187 H187        0.6739   -7.8325  -45.3935 H         1 UNK         0.0600 
    188 H188        1.5360   -9.1999  -46.0879 H         1 UNK         0.0600 
    189 H189        0.2144  -11.1922  -46.5967 H         1 UNK         0.3000 
    190 H190       -2.0409  -21.8284  -44.8840 H         1 UNK         0.3000 
    191 H191       -4.1965  -23.4841  -44.0840 H         1 UNK         0.0600 
    192 H192       -3.0978  -23.4227  -41.8579 H         1 UNK         0.0600 
    193 H193       -3.1081  -21.8248  -42.5898 H         1 UNK         0.0600 
    194 H194       -1.6268  -22.7782  -42.5721 H         1 UNK         0.0600 
    195 H195       -0.7186  -24.2669  -44.5774 H         1 UNK         0.3000 
    196 H196       -0.8591  -27.0186  -43.9061 H         1 UNK         0.0600 
    197 H197        1.0460  -25.5577  -45.8108 H         1 UNK         0.0600 
    198 H198        1.2682  -25.7509  -44.0736 H         1 UNK         0.0600 
    199 H199        1.3100  -27.1566  -45.1273 H         1 UNK         0.0600 
    200 H200       -1.5658  -25.3278  -46.9460 H         1 UNK         0.3000 
    201 H201       -2.0877  -27.7300  -48.4965 H         1 UNK         0.0600 
    202 H202       -2.7856  -24.7985  -49.0578 H         1 UNK         0.0600 
    203 H203       -2.7937  -26.1124  -50.2226 H         1 UNK         0.0600 
    204 H204       -1.2770  -25.5855  -49.5158 H         1 UNK         0.0600 
    205 H205       -3.7692  -26.5607  -45.9135 H         1 UNK         0.3000 
    206 H206       -5.7761  -26.7775  -45.0502 H         1 UNK         0.0600 
    207 H207       -5.5358  -29.1697  -45.7488 H         1 UNK         0.0600 
    208 H208       -7.2143  -28.6559  -45.7148 H         1 UNK         0.0600 
    209 H209       -6.3825  -28.8159  -47.2545 H         1 UNK         0.0600 
    210 H210       -5.3595  -24.6149  -46.7551 H         1 UNK         0.3000 
    211 H211       -6.3453  -22.8287  -47.4928 H         1 UNK         0.0600 
    212 H212       -8.7045  -22.3294  -47.1061 H         1 UNK         0.0600 
    213 H213       -8.0704  -23.1729  -45.7041 H         1 UNK         0.0600 
    214 H214       -9.0897  -24.0252  -46.8649 H         1 UNK         0.0600 
    215 H215       -6.0122  -25.3724  -49.2228 H         1 UNK         0.3000 
    216 H216       -7.5913  -24.7486  -51.6028 H         1 UNK         0.0600 
    217 H217       -5.0246  -26.4028  -51.2946 H         1 UNK         0.0600 
    218 H218       -6.1022  -26.3929  -52.6825 H         1 UNK         0.0600 
    219 H219       -6.6561  -27.0553  -51.1517 H         1 UNK         0.0600 
    220 H220       -6.7073  -23.7645  -53.5035 H         1 UNK         0.3000 
    221 H221       -5.3720  -21.3516  -53.0572 H         1 UNK         0.0600 
    222 H222       -6.9665  -21.7232  -54.9110 H         1 UNK         0.0600 
    223 H223       -5.8526  -22.8506  -55.6863 H         1 UNK         0.0600 
    224 H224       -5.4365  -21.1473  -55.5498 H         1 UNK         0.0600 
    225 H225       -4.0211  -24.4430  -54.0702 H         1 UNK         0.3000 
    226 H226       -1.9853  -25.2411  -54.4601 H         1 UNK         0.0600 
    227 H227       -1.0593  -22.9620  -52.6139 H         1 UNK         0.0600 
    228 H228       -1.5688  -24.5692  -52.1237 H         1 UNK         0.0600 
    229 H229       -0.1003  -24.3722  -53.0621 H         1 UNK         0.0600 
    230 H230       -0.1201  -22.3596  -54.3085 H         1 UNK         0.3000 
    231 H231        0.4631  -22.4044  -57.1759 H         1 UNK         0.0600 
    232 H232        1.5438  -20.6828  -54.8820 H         1 UNK         0.0600 
    233 H233        2.1879  -20.7224  -56.5189 H         1 UNK         0.0600 
    234 H234        2.2830  -22.1553  -55.5094 H         1 UNK         0.0600 
    235 H235       -1.9543  -20.9367  -55.3628 H         1 UNK         0.3000 
    236 H236       -3.5487  -19.5139  -55.7320 H         1 UNK         0.0600 
    237 H237       -3.5661  -20.1395  -58.1425 H         1 UNK         0.0600 
    238 H238       -4.0073  -18.4571  -57.8970 H         1 UNK         0.0600 
    239 H239       -2.4069  -18.8579  -58.4948 H         1 UNK         0.0600 
    240 H240       -0.3883  -18.2222  -56.6346 H         1 UNK         0.3000 
    241 H241        0.8450  -16.5627  -55.8760 H         1 UNK         0.0600 
    242 H242       -1.6298  -13.9577  -57.3047 H         1 UNK         0.3800 
    243 H243       -1.6791  -15.6893  -57.5184 H         1 UNK         0.3800 
    244 H244       -1.0165  -16.4288  -53.4606 H         1 UNK         0.0800 
    245 H245        0.6157  -15.8100  -53.5297 H         1 UNK         0.0800 
    246 H246        1.0940  -18.9197  -51.1668 H         1 UNK         0.0800 
    247 H247        1.1822  -17.1838  -51.3075 H         1 UNK         0.0800 
@<TRIPOS>BOND
     1    1    2 1    
     2    1  127 1    
     3    1  128 1    
     4    1  129 1    
     5    2    3 2    
     6    2    4 am   BACKBONE|DICT|INTERRES
     7    4    5 1    
     8    4  130 1    
     9    5    6 1    
    10    5   65 1    
    11    5  131 1    
    12    6    7 1    
    13    6  132 1    
    14    6  133 1    
    15    7    8 1    
    16    8    9 1    
    17    8  134 1    
    18    8  135 1    
    19    9   10 ar   
    20    9   14 ar   
    21   10   11 ar   
    22   10  136 1    
    23   11   12 ar   
    24   11  126 1    
    25   12   13 ar   
    26   12  137 1    
    27   13   14 ar   
    28   13   15 1    
    29   14  138 1    
    30   15   16 1    
    31   15  139 1    
    32   15  140 1    
    33   16   17 1    
    34   17   18 1    
    35   17  141 1    
    36   17  142 1    
    37   18   19 1    
    38   18   67 1    
    39   18  143 1    
    40   19   20 am   BACKBONE|DICT|INTERRES
    41   19  144 1    
    42   20   21 2    
    43   20   22 1    
    44   22   23 1    
    45   22   24 1    
    46   22  145 1    
    47   23  146 1    
    48   23  147 1    
    49   23  148 1    
    50   24   25 am   BACKBONE|DICT|INTERRES
    51   24  149 1    
    52   25   26 2    
    53   25   27 1    
    54   27   28 1    
    55   27   29 1    
    56   27  150 1    
    57   28  151 1    
    58   28  152 1    
    59   28  153 1    
    60   29   30 am   BACKBONE|DICT|INTERRES
    61   29  154 1    
    62   30   31 2    
    63   30   32 1    
    64   32   33 1    
    65   32   34 1    
    66   32  155 1    
    67   33  156 1    
    68   33  157 1    
    69   33  158 1    
    70   34   35 am   BACKBONE|DICT|INTERRES
    71   34  159 1    
    72   35   36 2    
    73   35   37 1    
    74   37   38 1    
    75   37   39 1    
    76   37  160 1    
    77   38  161 1    
    78   38  162 1    
    79   38  163 1    
    80   39   40 am   BACKBONE|DICT|INTERRES
    81   39  164 1    
    82   40   41 2    
    83   40   42 1    
    84   42   43 1    
    85   42   44 1    
    86   42  165 1    
    87   43  166 1    
    88   43  167 1    
    89   43  168 1    
    90   44   45 am   BACKBONE|DICT|INTERRES
    91   44  169 1    
    92   45   46 2    
    93   45   47 1    
    94   47   48 1    
    95   47   49 1    
    96   47  170 1    
    97   48  171 1    
    98   48  172 1    
    99   48  173 1    
   100   49   50 am   BACKBONE|DICT|INTERRES
   101   49  174 1    
   102   50   51 2    
   103   50   52 1    
   104   52   53 1    
   105   52   54 1    
   106   52  175 1    
   107   53  176 1    
   108   53  177 1    
   109   53  178 1    
   110   54   55 am   BACKBONE|DICT|INTERRES
   111   54  179 1    
   112   55   56 2    
   113   55   57 1    
   114   57   58 1    
   115   57   59 1    
   116   57  180 1    
   117   58  181 1    
   118   58  182 1    
   119   58  183 1    
   120   59   60 am   BACKBONE|DICT|INTERRES
   121   59  184 1    
   122   60   61 2    
   123   60   62 1    
   124   62   63 1    
   125   62   64 1    
   126   62  185 1    
   127   63  186 1    
   128   63  187 1    
   129   63  188 1    
   130   64   65 am   BACKBONE|DICT|INTERRES
   131   64  189 1    
   132   65   66 2    
   133   67   68 2    
   134   67   69 am   BACKBONE|DICT|INTERRES
   135   69   70 1    
   136   69  190 1    
   137   70   71 1    
   138   70   72 1    
   139   70  191 1    
   140   71  192 1    
   141   71  193 1    
   142   71  194 1    
   143   72   73 2    
   144   72   74 am   BACKBONE|DICT|INTERRES
   145   74   75 1    
   146   74  195 1    
   147   75   76 1    
   148   75   77 1    
   149   75  196 1    
   150   76  197 1    
   151   76  198 1    
   152   76  199 1    
   153   77   78 2    
   154   77   79 am   BACKBONE|DICT|INTERRES
   155   79   80 1    
   156   79  200 1    
   157   80   81 1    
   158   80   82 1    
   159   80  201 1    
   160   81  202 1    
   161   81  203 1    
   162   81  204 1    
   163   82   83 2    
   164   82   84 am   BACKBONE|DICT|INTERRES
   165   84   85 1    
   166   84  205 1    
   167   85   86 1    
   168   85   87 1    
   169   85  206 1    
   170   86  207 1    
   171   86  208 1    
   172   86  209 1    
   173   87   88 2    
   174   87   89 am   BACKBONE|DICT|INTERRES
   175   89   90 1    
   176   89  210 1    
   177   90   91 1    
   178   90   92 1    
   179   90  211 1    
   180   91  212 1    
   181   91  213 1    
   182   91  214 1    
   183   92   93 2    
   184   92   94 am   BACKBONE|DICT|INTERRES
   185   94   95 1    
   186   94  215 1    
   187   95   96 1    
   188   95   97 1    
   189   95  216 1    
   190   96  217 1    
   191   96  218 1    
   192   96  219 1    
   193   97   98 2    
   194   97   99 am   BACKBONE|DICT|INTERRES
   195   99  100 1    
   196   99  220 1    
   197  100  101 1    
   198  100  102 1    
   199  100  221 1    
   200  101  222 1    
   201  101  223 1    
   202  101  224 1    
   203  102  103 2    
   204  102  104 am   BACKBONE|DICT|INTERRES
   205  104  105 1    
   206  104  225 1    
   207  105  106 1    
   208  105  107 1    
   209  105  226 1    
   210  106  227 1    
   211  106  228 1    
   212  106  229 1    
   213  107  108 2    
   214  107  109 am   BACKBONE|DICT|INTERRES
   215  109  110 1    
   216  109  230 1    
   217  110  111 1    
   218  110  112 1    
   219  110  231 1    
   220  111  232 1    
   221  111  233 1    
   222  111  234 1    
   223  112  113 2    
   224  112  114 am   BACKBONE|DICT|INTERRES
   225  114  115 1    
   226  114  235 1    
   227  115  116 1    
   228  115  117 1    
   229  115  236 1    
   230  116  237 1    
   231  116  238 1    
   232  116  239 1    
   233  117  118 2    
   234  117  119 am   BACKBONE|DICT|INTERRES
   235  119  120 1    
   236  119  240 1    
   237  120  121 1    
   238  120  124 1    
   239  120  241 1    
   240  121  122 am   BACKBONE|DICT|INTERRES
   241  121  123 2    
   242  122  242 1    
   243  122  243 1    
   244  124  125 1    
   245  124  244 1    
   246  124  245 1    
   247  125  126 1    
   248  126  246 1    
   249  126  247 1    
@<TRIPOS>SUBSTRUCTURE
     1 UNK         1 GROUP             0       ****    0 ROOT    
