@<TRIPOS>MOLECULE
3R540
247   249    1
SMALL
USER_CHARGES


@<TRIPOS>ATOM
      1 CA          0.1718  -11.1679  -48.3806 C.3       0 UNK        -0.1800 
      2 C           1.4345  -11.7867  -47.8004 C.2       0 UNK         0.5000 
      3 O           1.4308  -12.2083  -46.6444 O.2       0 UNK        -0.5000 
      4 N           2.5095  -11.8511  -48.5979 N.am      1 UNK        -0.5000 
      5 CA          3.8256  -12.4037  -48.2498 C.3       1 UNK         0.1400 
      6 C6          3.8075  -13.9377  -47.9909 C.3       23 UNK        -0.0398 
      7 S7          3.1548  -14.9131  -49.3902 S.3       23 UNK        -0.2404 
      8 C8          1.5398  -15.4104  -48.7143 C.3       23 UNK        -0.0205 
      9 C9          0.9308  -16.5785  -49.4706 C.ar      23 UNK        -0.0193 
     10 C10        -0.1695  -16.3937  -50.3115 C.ar      23 UNK        -0.1150 
     11 C11        -0.7893  -17.4823  -50.9359 C.ar      23 UNK        -0.0193 
     12 C12        -0.2894  -18.7706  -50.6980 C.ar      23 UNK        -0.1150 
     13 C13         0.8109  -18.9703  -49.8567 C.ar      23 UNK        -0.0193 
     14 C14         1.4323  -17.8645  -49.2705 C.ar      23 UNK        -0.1150 
     15 C15         1.3058  -20.3875  -49.5816 C.3       23 UNK        -0.0205 
     16 S16         1.7598  -20.7291  -47.8390 S.3       23 UNK        -0.2404 
     17 C17         0.4236  -19.9752  -46.8413 C.3       23 UNK        -0.0398 
     18 CA         -0.8346  -20.8635  -46.7051 C.3       11 UNK         0.1400 
     19 N          -1.5162  -20.6608  -45.4271 N.am      11 UNK        -0.5000 
     20 C          -2.5618  -21.3758  -44.9897 C.2       10 UNK         0.5000 
     21 O          -3.0573  -22.3193  -45.6076 O.2       10 UNK        -0.5000 
     22 CA         -3.1840  -20.9215  -43.6599 C.3       10 UNK         0.1400 
     23 CB         -2.3910  -21.4748  -42.4663 C.3       10 UNK        -0.1800 
     24 N          -3.2468  -19.4623  -43.5733 N.am      10 UNK        -0.5000 
     25 C          -4.1195  -18.7051  -44.2524 C.2       9 UNK         0.5000 
     26 O          -4.9959  -19.1629  -44.9864 O.2       9 UNK        -0.5000 
     27 CA         -3.9613  -17.1788  -44.1121 C.3       9 UNK         0.1400 
     28 CB         -4.6150  -16.6807  -42.8144 C.3       9 UNK        -0.1800 
     29 N          -2.5629  -16.7428  -44.1509 N.am      9 UNK        -0.5000 
     30 C          -1.7716  -16.8550  -45.2264 C.2       8 UNK         0.5000 
     31 O          -2.1399  -17.3343  -46.2952 O.2       8 UNK        -0.5000 
     32 CA         -0.3114  -16.3967  -45.0843 C.3       8 UNK         0.1400 
     33 CB         -0.1848  -14.9014  -45.4045 C.3       8 UNK        -0.1800 
     34 N           0.2988  -16.6660  -43.7812 N.am      8 UNK        -0.5000 
     35 C           0.3829  -17.8649  -43.1836 C.2       7 UNK         0.5000 
     36 O          -0.2119  -18.8708  -43.5759 O.2       7 UNK        -0.5000 
     37 CA          1.3301  -17.9414  -41.9680 C.3       7 UNK         0.1400 
     38 CB          1.6071  -19.3856  -41.5029 C.3       7 UNK        -0.1800 
     39 N           2.5795  -17.2152  -42.2218 N.am      7 UNK        -0.5000 
     40 C           3.4663  -17.4350  -43.2068 C.2       6 UNK         0.5000 
     41 O           3.4395  -18.4136  -43.9532 O.2       6 UNK        -0.5000 
     42 CA          4.5395  -16.3527  -43.4347 C.3       6 UNK         0.1400 
     43 CB          4.2562  -15.6016  -44.7463 C.3       6 UNK        -0.1800 
     44 N           4.5915  -15.3798  -42.3415 N.am      6 UNK        -0.5000 
     45 C           5.3793  -15.4878  -41.2628 C.2       5 UNK         0.5000 
     46 O           6.2177  -16.3771  -41.1140 O.2       5 UNK        -0.5000 
     47 CA          5.1805  -14.4425  -40.1477 C.3       5 UNK         0.1400 
     48 CB          6.2011  -13.3026  -40.2794 C.3       5 UNK        -0.1800 
     49 N           3.8234  -13.8882  -40.1250 N.am      5 UNK        -0.5000 
     50 C           2.7489  -14.5639  -39.6895 C.2       4 UNK         0.5000 
     51 O           2.8022  -15.7120  -39.2494 O.2       4 UNK        -0.5000 
     52 CA          1.3767  -13.8714  -39.7963 C.3       4 UNK         0.1400 
     53 CB          1.0260  -13.1684  -38.4766 C.3       4 UNK        -0.1800 
     54 N           1.2785  -12.9065  -40.8919 N.am      4 UNK        -0.5000 
     55 C           1.3960  -13.1950  -42.1942 C.2       3 UNK         0.5000 
     56 O           1.6220  -14.3302  -42.6209 O.2       3 UNK        -0.5000 
     57 CA          1.2665  -12.0259  -43.1921 C.3       3 UNK         0.1400 
     58 CB          0.8687  -10.6781  -42.5494 C.3       3 UNK        -0.1800 
     59 N           2.4764  -11.8637  -44.0001 N.am      3 UNK        -0.5000 
     60 C           3.7281  -11.6582  -43.5581 C.2       2 UNK         0.5000 
     61 O           4.0233  -11.6029  -42.3630 O.2       2 UNK        -0.5000 
     62 CA          4.8326  -11.5029  -44.6243 C.3       2 UNK         0.1400 
     63 CB          6.1844  -12.0717  -44.1556 C.3       2 UNK        -0.1800 
     64 N           4.4397  -12.1531  -45.8747 N.am      2 UNK        -0.5000 
     65 C           4.4506  -11.5908  -47.0902 C.2       1 UNK         0.5000 
     66 O           4.8940  -10.4641  -47.3198 O.2       1 UNK        -0.5000 
     67 C          -1.7910  -20.6700  -47.8971 C.2       11 UNK         0.5000 
     68 O          -1.7959  -21.5065  -48.7949 O.2       11 UNK        -0.5000 
     69 N          -2.6122  -19.6109  -47.8707 N.am      12 UNK        -0.5000 
     70 CA         -3.5988  -19.3065  -48.9071 C.3       12 UNK         0.1400 
     71 CB         -4.1354  -17.8818  -48.7096 C.3       12 UNK        -0.1800 
     72 C          -4.7564  -20.3161  -48.9748 C.2       12 UNK         0.5000 
     73 O          -5.2856  -20.5509  -50.0615 O.2       12 UNK        -0.5000 
     74 N          -5.1210  -20.9037  -47.8264 N.am      13 UNK        -0.5000 
     75 CA         -6.1088  -21.9775  -47.7371 C.3       13 UNK         0.1400 
     76 CB         -6.5431  -22.1682  -46.2761 C.3       13 UNK        -0.1800 
     77 C          -5.5724  -23.2887  -48.3372 C.2       13 UNK         0.5000 
     78 O          -6.2762  -23.9333  -49.1152 O.2       13 UNK        -0.5000 
     79 N          -4.3233  -23.6404  -48.0009 N.am      14 UNK        -0.5000 
     80 CA         -3.6148  -24.7891  -48.5670 C.3       14 UNK         0.1400 
     81 CB         -2.3251  -25.0371  -47.7702 C.3       14 UNK        -0.1800 
     82 C          -3.2999  -24.6035  -50.0621 C.2       14 UNK         0.5000 
     83 O          -3.4771  -25.5370  -50.8445 O.2       14 UNK        -0.5000 
     84 N          -2.8388  -23.3984  -50.4202 N.am      15 UNK        -0.5000 
     85 CA         -2.4597  -22.9222  -51.7507 C.3       15 UNK         0.1400 
     86 CB         -3.7119  -22.7460  -52.6253 C.3       15 UNK        -0.1800 
     87 C          -1.3783  -23.8024  -52.4052 C.2       15 UNK         0.5000 
     88 O          -1.5095  -24.1796  -53.5684 O.2       15 UNK        -0.5000 
     89 N          -0.3553  -24.1671  -51.6166 N.am      16 UNK        -0.5000 
     90 CA          0.7201  -25.1076  -51.9655 C.3       16 UNK         0.1400 
     91 CB          1.6393  -24.5139  -53.0536 C.3       16 UNK        -0.1800 
     92 C           0.1831  -26.5142  -52.3213 C.2       16 UNK         0.5000 
     93 O           0.6774  -27.1571  -53.2484 O.2       16 UNK        -0.5000 
     94 N          -0.8414  -26.9412  -51.5685 N.am      17 UNK        -0.5000 
     95 CA         -1.6084  -28.1867  -51.6797 C.3       17 UNK         0.1400 
     96 CB         -0.6979  -29.4303  -51.5994 C.3       17 UNK        -0.1800 
     97 C          -2.5822  -28.2355  -52.8773 C.2       17 UNK         0.5000 
     98 O          -3.1454  -29.2984  -53.1447 O.2       17 UNK        -0.5000 
     99 N          -2.8081  -27.1007  -53.5565 N.am      18 UNK        -0.5000 
    100 CA        -3.8013  -26.9726  -54.6274 C.3       18 UNK         0.1400 
    101 CB        -3.4055  -25.8179  -55.5578 C.3       18 UNK        -0.1800 
    102 C         -5.2397  -26.7780  -54.1021 C.2       18 UNK         0.5000 
    103 O         -6.1763  -26.9672  -54.8778 O.2       18 UNK        -0.5000 
    104 N         -5.3828  -26.4242  -52.8138 N.am      19 UNK        -0.5000 
    105 CA        -6.6174  -26.1868  -52.0597 C.3       19 UNK         0.1400 
    106 CB        -7.5155  -27.4402  -52.0300 C.3       19 UNK        -0.1800 
    107 C         -7.3706  -24.9336  -52.5454 C.2       19 UNK         0.5000 
    108 O         -8.1375  -24.9985  -53.5072 O.2       19 UNK        -0.5000 
    109 N         -7.1318  -23.8114  -51.8526 N.am      20 UNK        -0.5000 
    110 CA        -7.7794  -22.5013  -52.0060 C.3       20 UNK         0.1400 
    111 CB        -9.2690  -22.5888  -51.6161 C.3       20 UNK        -0.1800 
    112 C         -7.5722  -21.8132  -53.3740 C.2       20 UNK         0.5000 
    113 O         -8.2929  -20.8655  -53.6938 O.2       20 UNK        -0.5000 
    114 N         -6.5707  -22.2581  -54.1469 N.am      21 UNK        -0.5000 
    115 CA        -6.2369  -21.7484  -55.4826 C.3       21 UNK         0.1400 
    116 CB        -5.2205  -22.6872  -56.1489 C.3       21 UNK        -0.1800 
    117 C         -5.7438  -20.2852  -55.5074 C.2       21 UNK         0.5000 
    118 O         -5.7310  -19.6760  -56.5780 O.2       21 UNK        -0.5000 
    119 N         -5.3889  -19.7336  -54.3384 N.am      22 UNK        -0.5000 
    120 CA        -5.1895  -18.2914  -54.1221 C.3       22 UNK         0.1400 
    121 C         -6.4882  -17.4400  -54.2796 C.2       22 UNK         0.5000 
    122 N         -7.6853  -18.0150  -54.2230 N.am      22 UNK        -0.7600 
    123 O         -6.4049  -16.2281  -54.4591 O.2       22 UNK        -0.5000 
    124 C124       -4.5423  -18.0020  -52.7442 C.3       23 UNK        -0.0398 
    125 S125       -2.8415  -18.6471  -52.5720 S.3       23 UNK        -0.2404 
    126 C126       -2.0139  -17.1994  -51.8115 C.3       23 UNK        -0.0205 
    127 H127        0.3139  -10.8478  -49.4130 H         1 UNK         0.0600 
    128 H128       -0.1243  -10.3002  -47.7913 H         1 UNK         0.0600 
    129 H129       -0.6426  -11.8919  -48.3571 H         1 UNK         0.0600 
    130 H130        2.4458  -11.4670  -49.5299 H         1 UNK         0.3000 
    131 H131        4.4645  -12.2301  -49.1172 H         1 UNK         0.0600 
    132 H132        4.8209  -14.2939  -47.7973 H         1 UNK         0.0800 
    133 H133        3.2289  -14.1757  -47.0990 H         1 UNK         0.0800 
    134 H134        1.6519  -15.7049  -47.6702 H         1 UNK         0.0800 
    135 H135        0.8652  -14.5537  -48.7214 H         1 UNK         0.0800 
    136 H136       -0.5615  -15.3976  -50.4632 H         1 UNK         0.1150 
    137 H137       -0.7616  -19.6312  -51.1475 H         1 UNK         0.1150 
    138 H138        2.2831  -18.0065  -48.6190 H         1 UNK         0.1150 
    139 H139        0.5579  -21.1184  -49.8901 H         1 UNK         0.0800 
    140 H140        2.1796  -20.5730  -50.2071 H         1 UNK         0.0800 
    141 H141        0.1735  -18.9752  -47.1941 H         1 UNK         0.0800 
    142 H142        0.8649  -19.8190  -45.8560 H         1 UNK         0.0800 
    143 H143       -0.5174  -21.9086  -46.7108 H         1 UNK         0.0600 
    144 H144       -1.1509  -19.9260  -44.8262 H         1 UNK         0.3000 
    145 H145       -4.1996  -21.3202  -43.6089 H         1 UNK         0.0600 
    146 H146       -2.8549  -21.1933  -41.5209 H         1 UNK         0.0600 
    147 H147       -2.3516  -22.5644  -42.4974 H         1 UNK         0.0600 
    148 H148       -1.3633  -21.1100  -42.4571 H         1 UNK         0.0600 
    149 H149       -2.5095  -19.0071  -43.0534 H         1 UNK         0.3000 
    150 H150       -4.4810  -16.7153  -44.9535 H         1 UNK         0.0600 
    151 H151       -5.6633  -16.9787  -42.7666 H         1 UNK         0.0600 
    152 H152       -4.5845  -15.5929  -42.7501 H         1 UNK         0.0600 
    153 H153       -4.1184  -17.0837  -41.9309 H         1 UNK         0.0600 
    154 H154       -2.1767  -16.3491  -43.3057 H         1 UNK         0.3000 
    155 H155        0.2724  -16.9470  -45.8241 H         1 UNK         0.0600 
    156 H156        0.8575  -14.5831  -45.3948 H         1 UNK         0.0600 
    157 H157       -0.7292  -14.2907  -44.6841 H         1 UNK         0.0600 
    158 H158       -0.5829  -14.6750  -46.3946 H         1 UNK         0.0600 
    159 H159        0.8156  -15.8932  -43.3692 H         1 UNK         0.3000 
    160 H160        0.8288  -17.4193  -41.1519 H         1 UNK         0.0600 
    161 H161        2.0501  -19.9911  -42.2940 H         1 UNK         0.0600 
    162 H162        0.6843  -19.8785  -41.1947 H         1 UNK         0.0600 
    163 H163        2.2842  -19.4006  -40.6489 H         1 UNK         0.0600 
    164 H164        2.7042  -16.3749  -41.6759 H         1 UNK         0.3000 
    165 H165        5.5019  -16.8592  -43.5333 H         1 UNK         0.0600 
    166 H166        3.3287  -15.0308  -44.6897 H         1 UNK         0.0600 
    167 H167        5.0676  -14.9164  -44.9869 H         1 UNK         0.0600 
    168 H168        4.1643  -16.2933  -45.5850 H         1 UNK         0.0600 
    169 H169        3.9075  -14.6352  -42.3681 H         1 UNK         0.3000 
    170 H170        5.3616  -14.9427  -39.1938 H         1 UNK         0.0600 
    171 H171        7.2210  -13.6860  -40.2310 H         1 UNK         0.0600 
    172 H172        6.0969  -12.7744  -41.2260 H         1 UNK         0.0600 
    173 H173        6.0883  -12.5759  -39.4749 H         1 UNK         0.0600 
    174 H174        3.7018  -12.9622  -40.5172 H         1 UNK         0.3000 
    175 H175        0.6329  -14.6505  -39.9760 H         1 UNK         0.0600 
    176 H176        1.7198  -12.3558  -38.2570 H         1 UNK         0.0600 
    177 H177        0.0188  -12.7523  -38.5061 H         1 UNK         0.0600 
    178 H178        1.0627  -13.8668  -37.6394 H         1 UNK         0.0600 
    179 H179        1.1209  -11.9444  -40.6298 H         1 UNK         0.3000 
    180 H180        0.4716  -12.3053  -43.8841 H         1 UNK         0.0600 
    181 H181        1.6227  -10.3134  -41.8509 H         1 UNK         0.0600 
    182 H182       -0.0774  -10.7588  -42.0127 H         1 UNK         0.0600 
    183 H183        0.7345   -9.9123  -43.3135 H         1 UNK         0.0600 
    184 H184        2.3124  -11.9158  -45.0029 H         1 UNK         0.3000 
    185 H185        4.9510  -10.4292  -44.7817 H         1 UNK         0.0600 
    186 H186        6.9362  -12.0013  -44.9417 H         1 UNK         0.0600 
    187 H187        6.5641  -11.5156  -43.2979 H         1 UNK         0.0600 
    188 H188        6.1045  -13.1175  -43.8592 H         1 UNK         0.0600 
    189 H189        4.0154  -13.0623  -45.7717 H         1 UNK         0.3000 
    190 H190       -2.5134  -18.9189  -47.1307 H         1 UNK         0.3000 
    191 H191       -3.0829  -19.3482  -49.8646 H         1 UNK         0.0600 
    192 H192       -3.3309  -17.1486  -48.7680 H         1 UNK         0.0600 
    193 H193       -4.8644  -17.6258  -49.4793 H         1 UNK         0.0600 
    194 H194       -4.6228  -17.7685  -47.7403 H         1 UNK         0.0600 
    195 H195       -4.6524  -20.6363  -46.9713 H         1 UNK         0.3000 
    196 H196       -6.9885  -21.6818  -48.3130 H         1 UNK         0.0600 
    197 H197       -7.3122  -22.9374  -46.1968 H         1 UNK         0.0600 
    198 H198       -6.9595  -21.2476  -45.8665 H         1 UNK         0.0600 
    199 H199       -5.7121  -22.4697  -45.6388 H         1 UNK         0.0600 
    200 H200       -3.8183  -23.0740  -47.3263 H         1 UNK         0.3000 
    201 H201       -4.2540  -25.6688  -48.4672 H         1 UNK         0.0600 
    202 H202       -2.5452  -25.2386  -46.7216 H         1 UNK         0.0600 
    203 H203       -1.6541  -24.1780  -47.8083 H         1 UNK         0.0600 
    204 H204       -1.7822  -25.8989  -48.1603 H         1 UNK         0.0600 
    205 H205       -2.6568  -22.7222  -49.6783 H         1 UNK         0.3000 
    206 H206       -2.0145  -21.9361  -51.6100 H         1 UNK         0.0600 
    207 H207       -4.4600  -22.1401  -52.1153 H         1 UNK         0.0600 
    208 H208       -3.4572  -22.2333  -53.5521 H         1 UNK         0.0600 
    209 H209       -4.1659  -23.7033  -52.8804 H         1 UNK         0.0600 
    210 H210       -0.3443  -23.8150  -50.6695 H         1 UNK         0.3000 
    211 H211        1.3214  -25.2340  -51.0640 H         1 UNK         0.0600 
    212 H212        1.1262  -24.4149  -54.0105 H         1 UNK         0.0600 
    213 H213        2.5117  -25.1478  -53.2159 H         1 UNK         0.0600 
    214 H214        2.0047  -23.5282  -52.7654 H         1 UNK         0.0600 
    215 H215       -1.2029  -26.2948  -50.8817 H         1 UNK         0.3000 
    216 H216       -2.2467  -28.2044  -50.7952 H         1 UNK         0.0600 
    217 H217       -0.0220  -29.3716  -50.7463 H         1 UNK         0.0600 
    218 H218       -0.0958  -29.5537  -52.4997 H         1 UNK         0.0600 
    219 H219       -1.2888  -30.3391  -51.4802 H         1 UNK         0.0600 
    220 H220       -2.3107  -26.2585  -53.2942 H         1 UNK         0.3000 
    221 H221       -3.7925  -27.8888  -55.2216 H         1 UNK         0.0600 
    222 H222       -3.4932  -24.8554  -55.0568 H         1 UNK         0.0600 
    223 H223       -2.3790  -25.9230  -55.9094 H         1 UNK         0.0600 
    224 H224       -4.0502  -25.7876  -56.4369 H         1 UNK         0.0600 
    225 H225       -4.5349  -26.2614  -52.2765 H         1 UNK         0.3000 
    226 H226       -6.3032  -26.0048  -51.0306 H         1 UNK         0.0600 
    227 H227       -6.9725  -28.3039  -51.6462 H         1 UNK         0.0600 
    228 H228       -8.3765  -27.2812  -51.3799 H         1 UNK         0.0600 
    229 H229       -7.8998  -27.6976  -53.0171 H         1 UNK         0.0600 
    230 H230       -6.5366  -23.8838  -51.0314 H         1 UNK         0.3000 
    231 H231       -7.2952  -21.8507  -51.2775 H         1 UNK         0.0600 
    232 H232       -9.7245  -21.5987  -51.5743 H         1 UNK         0.0600 
    233 H233       -9.3915  -23.0403  -50.6314 H         1 UNK         0.0600 
    234 H234       -9.8401  -23.1812  -52.3314 H         1 UNK         0.0600 
    235 H235       -6.0352  -23.0452  -53.8142 H         1 UNK         0.3000 
    236 H236       -7.1537  -21.7799  -56.0748 H         1 UNK         0.0600 
    237 H237       -4.2546  -22.6638  -55.6467 H         1 UNK         0.0600 
    238 H238       -5.5787  -23.7168  -56.1539 H         1 UNK         0.0600 
    239 H239       -5.0504  -22.4000  -57.1872 H         1 UNK         0.0600 
    240 H240       -5.4127  -20.3083  -53.5102 H         1 UNK         0.3000 
    241 H241       -4.5020  -17.9388  -54.8934 H         1 UNK         0.0600 
    242 H242       -7.7912  -19.0131  -54.0684 H         1 UNK         0.3800 
    243 H243       -8.5086  -17.4443  -54.3309 H         1 UNK         0.3800 
    244 H244       -4.5218  -16.9254  -52.5664 H         1 UNK         0.0800 
    245 H245       -5.1516  -18.4244  -51.9435 H         1 UNK         0.0800 
    246 H246       -2.7347  -16.6701  -51.1873 H         1 UNK         0.0800 
    247 H247       -1.7299  -16.5102  -52.6079 H         1 UNK         0.0800 
@<TRIPOS>BOND
     1    1    2 1    
     2    1  127 1    
     3    1  128 1    
     4    1  129 1    
     5    2    3 2    
     6    2    4 am   BACKBONE|DICT|INTERRES
     7    4    5 1    
     8    4  130 1    
     9    5    6 1    
    10    5   65 1    
    11    5  131 1    
    12    6    7 1    
    13    6  132 1    
    14    6  133 1    
    15    7    8 1    
    16    8    9 1    
    17    8  134 1    
    18    8  135 1    
    19    9   10 ar   
    20    9   14 ar   
    21   10   11 ar   
    22   10  136 1    
    23   11   12 ar   
    24   11  126 1    
    25   12   13 ar   
    26   12  137 1    
    27   13   14 ar   
    28   13   15 1    
    29   14  138 1    
    30   15   16 1    
    31   15  139 1    
    32   15  140 1    
    33   16   17 1    
    34   17   18 1    
    35   17  141 1    
    36   17  142 1    
    37   18   19 1    
    38   18   67 1    
    39   18  143 1    
    40   19   20 am   BACKBONE|DICT|INTERRES
    41   19  144 1    
    42   20   21 2    
    43   20   22 1    
    44   22   23 1    
    45   22   24 1    
    46   22  145 1    
    47   23  146 1    
    48   23  147 1    
    49   23  148 1    
    50   24   25 am   BACKBONE|DICT|INTERRES
    51   24  149 1    
    52   25   26 2    
    53   25   27 1    
    54   27   28 1    
    55   27   29 1    
    56   27  150 1    
    57   28  151 1    
    58   28  152 1    
    59   28  153 1    
    60   29   30 am   BACKBONE|DICT|INTERRES
    61   29  154 1    
    62   30   31 2    
    63   30   32 1    
    64   32   33 1    
    65   32   34 1    
    66   32  155 1    
    67   33  156 1    
    68   33  157 1    
    69   33  158 1    
    70   34   35 am   BACKBONE|DICT|INTERRES
    71   34  159 1    
    72   35   36 2    
    73   35   37 1    
    74   37   38 1    
    75   37   39 1    
    76   37  160 1    
    77   38  161 1    
    78   38  162 1    
    79   38  163 1    
    80   39   40 am   BACKBONE|DICT|INTERRES
    81   39  164 1    
    82   40   41 2    
    83   40   42 1    
    84   42   43 1    
    85   42   44 1    
    86   42  165 1    
    87   43  166 1    
    88   43  167 1    
    89   43  168 1    
    90   44   45 am   BACKBONE|DICT|INTERRES
    91   44  169 1    
    92   45   46 2    
    93   45   47 1    
    94   47   48 1    
    95   47   49 1    
    96   47  170 1    
    97   48  171 1    
    98   48  172 1    
    99   48  173 1    
   100   49   50 am   BACKBONE|DICT|INTERRES
   101   49  174 1    
   102   50   51 2    
   103   50   52 1    
   104   52   53 1    
   105   52   54 1    
   106   52  175 1    
   107   53  176 1    
   108   53  177 1    
   109   53  178 1    
   110   54   55 am   BACKBONE|DICT|INTERRES
   111   54  179 1    
   112   55   56 2    
   113   55   57 1    
   114   57   58 1    
   115   57   59 1    
   116   57  180 1    
   117   58  181 1    
   118   58  182 1    
   119   58  183 1    
   120   59   60 am   BACKBONE|DICT|INTERRES
   121   59  184 1    
   122   60   61 2    
   123   60   62 1    
   124   62   63 1    
   125   62   64 1    
   126   62  185 1    
   127   63  186 1    
   128   63  187 1    
   129   63  188 1    
   130   64   65 am   BACKBONE|DICT|INTERRES
   131   64  189 1    
   132   65   66 2    
   133   67   68 2    
   134   67   69 am   BACKBONE|DICT|INTERRES
   135   69   70 1    
   136   69  190 1    
   137   70   71 1    
   138   70   72 1    
   139   70  191 1    
   140   71  192 1    
   141   71  193 1    
   142   71  194 1    
   143   72   73 2    
   144   72   74 am   BACKBONE|DICT|INTERRES
   145   74   75 1    
   146   74  195 1    
   147   75   76 1    
   148   75   77 1    
   149   75  196 1    
   150   76  197 1    
   151   76  198 1    
   152   76  199 1    
   153   77   78 2    
   154   77   79 am   BACKBONE|DICT|INTERRES
   155   79   80 1    
   156   79  200 1    
   157   80   81 1    
   158   80   82 1    
   159   80  201 1    
   160   81  202 1    
   161   81  203 1    
   162   81  204 1    
   163   82   83 2    
   164   82   84 am   BACKBONE|DICT|INTERRES
   165   84   85 1    
   166   84  205 1    
   167   85   86 1    
   168   85   87 1    
   169   85  206 1    
   170   86  207 1    
   171   86  208 1    
   172   86  209 1    
   173   87   88 2    
   174   87   89 am   BACKBONE|DICT|INTERRES
   175   89   90 1    
   176   89  210 1    
   177   90   91 1    
   178   90   92 1    
   179   90  211 1    
   180   91  212 1    
   181   91  213 1    
   182   91  214 1    
   183   92   93 2    
   184   92   94 am   BACKBONE|DICT|INTERRES
   185   94   95 1    
   186   94  215 1    
   187   95   96 1    
   188   95   97 1    
   189   95  216 1    
   190   96  217 1    
   191   96  218 1    
   192   96  219 1    
   193   97   98 2    
   194   97   99 am   BACKBONE|DICT|INTERRES
   195   99  100 1    
   196   99  220 1    
   197  100  101 1    
   198  100  102 1    
   199  100  221 1    
   200  101  222 1    
   201  101  223 1    
   202  101  224 1    
   203  102  103 2    
   204  102  104 am   BACKBONE|DICT|INTERRES
   205  104  105 1    
   206  104  225 1    
   207  105  106 1    
   208  105  107 1    
   209  105  226 1    
   210  106  227 1    
   211  106  228 1    
   212  106  229 1    
   213  107  108 2    
   214  107  109 am   BACKBONE|DICT|INTERRES
   215  109  110 1    
   216  109  230 1    
   217  110  111 1    
   218  110  112 1    
   219  110  231 1    
   220  111  232 1    
   221  111  233 1    
   222  111  234 1    
   223  112  113 2    
   224  112  114 am   BACKBONE|DICT|INTERRES
   225  114  115 1    
   226  114  235 1    
   227  115  116 1    
   228  115  117 1    
   229  115  236 1    
   230  116  237 1    
   231  116  238 1    
   232  116  239 1    
   233  117  118 2    
   234  117  119 am   BACKBONE|DICT|INTERRES
   235  119  120 1    
   236  119  240 1    
   237  120  121 1    
   238  120  124 1    
   239  120  241 1    
   240  121  122 am   BACKBONE|DICT|INTERRES
   241  121  123 2    
   242  122  242 1    
   243  122  243 1    
   244  124  125 1    
   245  124  244 1    
   246  124  245 1    
   247  125  126 1    
   248  126  246 1    
   249  126  247 1    
@<TRIPOS>SUBSTRUCTURE
     1 UNK         1 GROUP             0       ****    0 ROOT    
