@<TRIPOS>MOLECULE
3R540
247   249    1
SMALL
USER_CHARGES


@<TRIPOS>ATOM
      1 CA         -2.2425  -16.0413  -48.9789 C.3       0 UNK        -0.1800 
      2 C          -1.2525  -15.4801  -47.9723 C.2       0 UNK         0.5000 
      3 O          -1.6502  -14.7991  -47.0263 O.2       0 UNK        -0.5000 
      4 N           0.0384  -15.7944  -48.1474 N.am      1 UNK        -0.5000 
      5 CA          1.1302  -15.3528  -47.2670 C.3       1 UNK         0.1400 
      6 C6          2.5281  -15.6711  -47.8424 C.3       23 UNK        -0.0398 
      7 S7          2.8210  -14.8162  -49.4257 S.3       23 UNK        -0.2404 
      8 C8          3.2894  -16.1941  -50.5201 C.3       23 UNK        -0.0205 
      9 C9          2.1685  -17.2069  -50.7109 C.ar      23 UNK        -0.0193 
     10 C10         0.9814  -16.8343  -51.3478 C.ar      23 UNK        -0.1150 
     11 C11        -0.0407  -17.7684  -51.5672 C.ar      23 UNK        -0.0193 
     12 C12         0.1418  -19.0816  -51.1202 C.ar      23 UNK        -0.1150 
     13 C13         1.3238  -19.4698  -50.4837 C.ar      23 UNK        -0.0193 
     14 C14         2.3330  -18.5258  -50.2812 C.ar      23 UNK        -0.1150 
     15 C15         1.5370  -20.9162  -50.0565 C.3       23 UNK        -0.0205 
     16 S16         1.5593  -21.1071  -48.2459 S.3       23 UNK        -0.2404 
     17 C17        -0.2118  -20.9878  -47.8302 C.3       23 UNK        -0.0398 
     18 CA         -0.7556  -22.2567  -47.1247 C.3       11 UNK         0.1400 
     19 N           0.0285  -22.6616  -45.9492 N.am      11 UNK        -0.5000 
     20 C          -0.0962  -23.8555  -45.3510 C.2       10 UNK         0.5000 
     21 O          -0.9092  -24.7091  -45.7037 O.2       10 UNK        -0.5000 
     22 CA          0.7961  -24.1375  -44.1276 C.3       10 UNK         0.1400 
     23 CB          2.1723  -24.6486  -44.5789 C.3       10 UNK        -0.1800 
     24 N           0.9839  -23.0071  -43.2154 N.am      10 UNK        -0.5000 
     25 C           0.0313  -22.2216  -42.6939 C.2       9 UNK         0.5000 
     26 O          -1.1614  -22.3081  -42.9888 O.2       9 UNK        -0.5000 
     27 CA          0.4730  -21.1560  -41.6674 C.3       9 UNK         0.1400 
     28 CB         -0.0109  -21.5475  -40.2628 C.3       9 UNK        -0.1800 
     29 N           1.9145  -20.8838  -41.6075 N.am      9 UNK        -0.5000 
     30 C           2.6655  -20.3972  -42.6042 C.2       8 UNK         0.5000 
     31 O           2.2575  -20.2370  -43.7557 O.2       8 UNK        -0.5000 
     32 CA          4.1320  -20.0779  -42.2537 C.3       8 UNK         0.1400 
     33 CB          4.9822  -21.3574  -42.3036 C.3       8 UNK        -0.1800 
     34 N           4.7179  -19.0899  -43.1609 N.am      8 UNK        -0.5000 
     35 C           4.3027  -17.8237  -43.2900 C.2       7 UNK         0.5000 
     36 O           3.4376  -17.3064  -42.5760 O.2       7 UNK        -0.5000 
     37 CA          4.9662  -17.0106  -44.4135 C.3       7 UNK         0.1400 
     38 CB          4.6813  -17.6291  -45.7943 C.3       7 UNK        -0.1800 
     39 N           4.4432  -15.6505  -44.3796 N.am      7 UNK        -0.5000 
     40 C           5.1471  -14.5230  -44.5265 C.2       6 UNK         0.5000 
     41 O           6.3442  -14.4959  -44.8136 O.2       6 UNK        -0.5000 
     42 CA          4.3896  -13.1989  -44.3055 C.3       6 UNK         0.1400 
     43 CB          4.0481  -12.5346  -45.6488 C.3       6 UNK        -0.1800 
     44 N           3.1485  -13.4038  -43.5610 N.am      6 UNK        -0.5000 
     45 C           3.0206  -13.3789  -42.2290 C.2       5 UNK         0.5000 
     46 O           3.9401  -13.0914  -41.4607 O.2       5 UNK        -0.5000 
     47 CA          1.6284  -13.7579  -41.6760 C.3       5 UNK         0.1400 
     48 CB          1.3512  -13.1761  -40.2744 C.3       5 UNK        -0.1800 
     49 N           0.5387  -13.4453  -42.6089 N.am      5 UNK        -0.5000 
     50 C           0.1491  -12.2371  -43.0460 C.2       4 UNK         0.5000 
     51 O           0.6196  -11.1738  -42.6408 O.2       4 UNK        -0.5000 
     52 CA         -0.9274  -12.2054  -44.1522 C.3       4 UNK         0.1400 
     53 CB         -0.2887  -11.8270  -45.4976 C.3       4 UNK        -0.1800 
     54 N          -1.6388  -13.4756  -44.3128 N.am      4 UNK        -0.5000 
     55 C          -2.5508  -13.9548  -43.4556 C.2       3 UNK         0.5000 
     56 O          -2.9451  -13.3447  -42.4614 O.2       3 UNK        -0.5000 
     57 CA         -3.0800  -15.3711  -43.7394 C.3       3 UNK         0.1400 
     58 CB         -4.2846  -15.3282  -44.6920 C.3       3 UNK        -0.1800 
     59 N          -2.0471  -16.2410  -44.3035 N.am      3 UNK        -0.5000 
     60 C          -1.0317  -16.7678  -43.6046 C.2       2 UNK         0.5000 
     61 O          -0.8526  -16.5765  -42.4025 O.2       2 UNK        -0.5000 
     62 CA         -0.0442  -17.6449  -44.3944 C.3       2 UNK         0.1400 
     63 CB         -0.6727  -19.0203  -44.6538 C.3       2 UNK        -0.1800 
     64 N           0.3373  -17.0539  -45.6765 N.am      2 UNK        -0.5000 
     65 C           0.9964  -15.8975  -45.8294 C.2       1 UNK         0.5000 
     66 O           1.4530  -15.2420  -44.8938 O.2       1 UNK        -0.5000 
     67 C          -2.2553  -22.0810  -46.8061 C.2       11 UNK         0.5000 
     68 O          -3.0769  -22.3080  -47.6922 O.2       11 UNK        -0.5000 
     69 N          -2.5773  -21.6793  -45.5669 N.am      12 UNK        -0.5000 
     70 CA         -3.9463  -21.4886  -45.0822 C.3       12 UNK         0.1400 
     71 CB         -3.9757  -20.3216  -44.0818 C.3       12 UNK        -0.1800 
     72 C          -4.5188  -22.7642  -44.4389 C.2       12 UNK         0.5000 
     73 O          -5.7402  -22.9174  -44.3941 O.2       12 UNK        -0.5000 
     74 N          -3.6420  -23.6558  -43.9530 N.am      13 UNK        -0.5000 
     75 CA         -3.9971  -25.0044  -43.5078 C.3       13 UNK         0.1400 
     76 CB         -2.8248  -25.6120  -42.7225 C.3       13 UNK        -0.1800 
     77 C          -4.3917  -25.8972  -44.7004 C.2       13 UNK         0.5000 
     78 O          -5.3785  -26.6304  -44.6199 O.2       13 UNK        -0.5000 
     79 N          -3.6321  -25.7801  -45.7967 N.am      14 UNK        -0.5000 
     80 CA         -3.9665  -26.2987  -47.1202 C.3       14 UNK         0.1400 
     81 CB         -2.6586  -26.4408  -47.9207 C.3       14 UNK        -0.1800 
     82 C          -4.9594  -25.3677  -47.8493 C.2       14 UNK         0.5000 
     83 O          -5.3592  -24.3303  -47.3191 O.2       14 UNK        -0.5000 
     84 N          -5.3239  -25.7380  -49.0823 N.am      15 UNK        -0.5000 
     85 CA         -6.1178  -24.8952  -49.9825 C.3       15 UNK         0.1400 
     86 CB         -6.8588  -25.8008  -50.9783 C.3       15 UNK        -0.1800 
     87 C          -5.2630  -23.8551  -50.7383 C.2       15 UNK         0.5000 
     88 O          -5.8266  -22.9676  -51.3794 O.2       15 UNK        -0.5000 
     89 N          -3.9295  -23.9958  -50.6807 N.am      16 UNK        -0.5000 
     90 CA         -2.9255  -23.2759  -51.4732 C.3       16 UNK         0.1400 
     91 CB         -1.5285  -23.7656  -51.0637 C.3       16 UNK        -0.1800 
     92 C          -2.9897  -21.7378  -51.4179 C.2       16 UNK         0.5000 
     93 O          -2.5418  -21.0913  -52.3615 O.2       16 UNK        -0.5000 
     94 N          -3.5558  -21.1715  -50.3438 N.am      17 UNK        -0.5000 
     95 CA         -3.8318  -19.7397  -50.2062 C.3       17 UNK         0.1400 
     96 CB         -4.3002  -19.4429  -48.7723 C.3       17 UNK        -0.1800 
     97 C          -4.8407  -19.1817  -51.2356 C.2       17 UNK         0.5000 
     98 O          -4.8651  -17.9669  -51.4352 O.2       17 UNK        -0.5000 
     99 N          -5.6496  -20.0534  -51.8551 N.am      18 UNK        -0.5000 
    100 CA        -6.6122  -19.6975  -52.8988 C.3       18 UNK         0.1400 
    101 CB        -8.0294  -19.7246  -52.3043 C.3       18 UNK        -0.1800 
    102 C         -6.5240  -20.6163  -54.1311 C.2       18 UNK         0.5000 
    103 O         -6.8144  -20.1585  -55.2375 O.2       18 UNK        -0.5000 
    104 N         -6.1628  -21.8931  -53.9407 N.am      19 UNK        -0.5000 
    105 CA        -6.0199  -22.8763  -55.0116 C.3       19 UNK         0.1400 
    106 CB        -6.0429  -24.2935  -54.4176 C.3       19 UNK        -0.1800 
    107 C         -4.7290  -22.6366  -55.8115 C.2       19 UNK         0.5000 
    108 O         -3.6365  -22.7459  -55.2500 O.2       19 UNK        -0.5000 
    109 N         -4.8903  -22.3374  -57.1076 N.am      20 UNK        -0.5000 
    110 CA        -3.8678  -22.0615  -58.1241 C.3       20 UNK         0.1400 
    111 CB        -2.9351  -23.2704  -58.3388 C.3       20 UNK        -0.1800 
    112 C         -3.0752  -20.7643  -57.8748 C.2       20 UNK         0.5000 
    113 O         -3.1220  -19.8567  -58.7071 O.2       20 UNK        -0.5000 
    114 N         -2.3688  -20.6917  -56.7424 N.am      21 UNK        -0.5000 
    115 CA        -1.6412  -19.5092  -56.2940 C.3       21 UNK         0.1400 
    116 CB        -0.5962  -19.9237  -55.2469 C.3       21 UNK        -0.1800 
    117 C         -2.6080  -18.4584  -55.7226 C.2       21 UNK         0.5000 
    118 O         -3.5959  -18.8158  -55.0783 O.2       21 UNK        -0.5000 
    119 N         -2.2851  -17.1811  -55.9572 N.am      22 UNK        -0.5000 
    120 CA        -3.0236  -15.9968  -55.4776 C.3       22 UNK         0.1400 
    121 C         -4.4439  -15.8070  -56.0975 C.2       22 UNK         0.5000 
    122 N         -4.7960  -16.4970  -57.1758 N.am      22 UNK        -0.7600 
    123 O         -5.2296  -14.9920  -55.6210 O.2       22 UNK        -0.5000 
    124 C124       -3.0294  -15.8668  -53.9272 C.3       23 UNK        -0.0398 
    125 S125       -1.3470  -15.8512  -53.2161 S.3       23 UNK        -0.2404 
    126 C126       -1.3517  -17.4155  -52.2749 C.3       23 UNK        -0.0205 
    127 H127       -2.0151  -17.0842  -49.1973 H         1 UNK         0.0600 
    128 H128       -2.2048  -15.4691  -49.9058 H         1 UNK         0.0600 
    129 H129       -3.2589  -15.9937  -48.5876 H         1 UNK         0.0600 
    130 H130        0.3177  -16.3303  -48.9581 H         1 UNK         0.3000 
    131 H131        1.0509  -14.2673  -47.1909 H         1 UNK         0.0600 
    132 H132        3.3108  -15.3482  -47.1549 H         1 UNK         0.0800 
    133 H133        2.6559  -16.7472  -47.9649 H         1 UNK         0.0800 
    134 H134        3.5665  -15.7891  -51.4943 H         1 UNK         0.0800 
    135 H135        4.1860  -16.6732  -50.1234 H         1 UNK         0.0800 
    136 H136        0.8725  -15.8106  -51.6745 H         1 UNK         0.1150 
    137 H137       -0.6337  -19.8131  -51.2879 H         1 UNK         0.1150 
    138 H138        3.2523  -18.8264  -49.7980 H         1 UNK         0.1150 
    139 H139        0.7771  -21.5705  -50.4863 H         1 UNK         0.0800 
    140 H140        2.4922  -21.2618  -50.4540 H         1 UNK         0.0800 
    141 H141       -0.7811  -20.7990  -48.7423 H         1 UNK         0.0800 
    142 H142       -0.3482  -20.1016  -47.2143 H         1 UNK         0.0800 
    143 H143       -0.6850  -23.0775  -47.8406 H         1 UNK         0.0600 
    144 H144        0.7238  -22.0109  -45.6105 H         1 UNK         0.3000 
    145 H145        0.3149  -24.9301  -43.5524 H         1 UNK         0.0600 
    146 H146        2.7731  -24.9712  -43.7283 H         1 UNK         0.0600 
    147 H147        2.0725  -25.5051  -45.2472 H         1 UNK         0.0600 
    148 H148        2.7313  -23.8785  -45.1124 H         1 UNK         0.0600 
    149 H149        1.9325  -22.8286  -42.9228 H         1 UNK         0.3000 
    150 H150       -0.0192  -20.2219  -41.9385 H         1 UNK         0.0600 
    151 H151        0.4702  -22.4616  -39.9127 H         1 UNK         0.0600 
    152 H152       -1.0883  -21.7192  -40.2518 H         1 UNK         0.0600 
    153 H153        0.1957  -20.7591  -39.5388 H         1 UNK         0.0600 
    154 H154        2.3450  -21.0137  -40.7031 H         1 UNK         0.3000 
    155 H155        4.1656  -19.6688  -41.2418 H         1 UNK         0.0600 
    156 H156        4.9820  -21.8017  -43.3000 H         1 UNK         0.0600 
    157 H157        4.6049  -22.1093  -41.6093 H         1 UNK         0.0600 
    158 H158        6.0170  -21.1548  -42.0266 H         1 UNK         0.0600 
    159 H159        5.4130  -19.4389  -43.8037 H         1 UNK         0.3000 
    160 H160        6.0426  -17.0036  -44.2304 H         1 UNK         0.0600 
    161 H161        3.6113  -17.7593  -45.9595 H         1 UNK         0.0600 
    162 H162        5.1460  -18.6105  -45.8924 H         1 UNK         0.0600 
    163 H163        5.0781  -17.0072  -46.5967 H         1 UNK         0.0600 
    164 H164        3.4736  -15.5821  -44.0911 H         1 UNK         0.3000 
    165 H165        5.0468  -12.5282  -43.7482 H         1 UNK         0.0600 
    166 H166        3.5860  -11.5590  -45.4960 H         1 UNK         0.0600 
    167 H167        4.9448  -12.3791  -46.2498 H         1 UNK         0.0600 
    168 H168        3.3577  -13.1395  -46.2363 H         1 UNK         0.0600 
    169 H169        2.3539  -13.7377  -44.0976 H         1 UNK         0.3000 
    170 H170        1.6336  -14.8452  -41.5829 H         1 UNK         0.0600 
    171 H171        2.0740  -13.5487  -39.5478 H         1 UNK         0.0600 
    172 H172        1.4130  -12.0878  -40.2655 H         1 UNK         0.0600 
    173 H173        0.3604  -13.4601  -39.9195 H         1 UNK         0.0600 
    174 H174        0.1000  -14.2506  -43.0345 H         1 UNK         0.3000 
    175 H175       -1.6538  -11.4344  -43.8874 H         1 UNK         0.0600 
    176 H176        0.1582  -10.8332  -45.4513 H         1 UNK         0.0600 
    177 H177        0.5004  -12.5251  -45.7749 H         1 UNK         0.0600 
    178 H178       -1.0268  -11.8154  -46.2999 H         1 UNK         0.0600 
    179 H179       -1.4309  -14.0166  -45.1459 H         1 UNK         0.3000 
    180 H180       -3.4128  -15.7998  -42.7916 H         1 UNK         0.0600 
    181 H181       -4.0187  -14.9103  -45.6634 H         1 UNK         0.0600 
    182 H182       -5.0853  -14.7133  -44.2791 H         1 UNK         0.0600 
    183 H183       -4.6928  -16.3257  -44.8562 H         1 UNK         0.0600 
    184 H184       -2.0833  -16.3893  -45.3017 H         1 UNK         0.3000 
    185 H185        0.8547  -17.7742  -43.7877 H         1 UNK         0.0600 
    186 H186       -1.1111  -19.4326  -43.7464 H         1 UNK         0.0600 
    187 H187       -1.4672  -18.9636  -45.3979 H         1 UNK         0.0600 
    188 H188        0.0721  -19.7310  -45.0059 H         1 UNK         0.0600 
    189 H189        0.0066  -17.5192  -46.5076 H         1 UNK         0.3000 
    190 H190       -1.8443  -21.5946  -44.8734 H         1 UNK         0.3000 
    191 H191       -4.5959  -21.2276  -45.9208 H         1 UNK         0.0600 
    192 H192       -3.6775  -19.3867  -44.5553 H         1 UNK         0.0600 
    193 H193       -4.9813  -20.1722  -43.6866 H         1 UNK         0.0600 
    194 H194       -3.3147  -20.5004  -43.2331 H         1 UNK         0.0600 
    195 H195       -2.6600  -23.4099  -43.9402 H         1 UNK         0.3000 
    196 H196       -4.8557  -24.9312  -42.8371 H         1 UNK         0.0600 
    197 H197       -3.0959  -26.5862  -42.3139 H         1 UNK         0.0600 
    198 H198       -2.5365  -24.9750  -41.8859 H         1 UNK         0.0600 
    199 H199       -1.9476  -25.7554  -43.3527 H         1 UNK         0.0600 
    200 H200       -2.8179  -25.1754  -45.7553 H         1 UNK         0.3000 
    201 H201       -4.4282  -27.2825  -47.0159 H         1 UNK         0.0600 
    202 H202       -2.8252  -26.9276  -48.8819 H         1 UNK         0.0600 
    203 H203       -1.9313  -27.0462  -47.3792 H         1 UNK         0.0600 
    204 H204       -2.2001  -25.4700  -48.1151 H         1 UNK         0.0600 
    205 H205       -4.9905  -26.6140  -49.4590 H         1 UNK         0.3000 
    206 H206       -6.8659  -24.3478  -49.4052 H         1 UNK         0.0600 
    207 H207       -7.4760  -26.5353  -50.4606 H         1 UNK         0.0600 
    208 H208       -7.5227  -25.2162  -51.6160 H         1 UNK         0.0600 
    209 H209       -6.1673  -26.3392  -51.6279 H         1 UNK         0.0600 
    210 H210       -3.5745  -24.7349  -50.0950 H         1 UNK         0.3000 
    211 H211       -3.0885  -23.5556  -52.5159 H         1 UNK         0.0600 
    212 H212       -1.3215  -23.5482  -50.0167 H         1 UNK         0.0600 
    213 H213       -0.7534  -23.2826  -51.6604 H         1 UNK         0.0600 
    214 H214       -1.4258  -24.8408  -51.2113 H         1 UNK         0.0600 
    215 H215       -3.8223  -21.7651  -49.5653 H         1 UNK         0.3000 
    216 H216       -2.8911  -19.2117  -50.3625 H         1 UNK         0.0600 
    217 H217       -4.5832  -18.3958  -48.6573 H         1 UNK         0.0600 
    218 H218       -3.5078  -19.6374  -48.0506 H         1 UNK         0.0600 
    219 H219       -5.1640  -20.0498  -48.4985 H         1 UNK         0.0600 
    220 H220       -5.5741  -21.0373  -51.6192 H         1 UNK         0.3000 
    221 H221       -6.4133  -18.6865  -53.2611 H         1 UNK         0.0600 
    222 H222       -8.2805  -20.7115  -51.9133 H         1 UNK         0.0600 
    223 H223       -8.1279  -19.0061  -51.4904 H         1 UNK         0.0600 
    224 H224       -8.7756  -19.4677  -53.0573 H         1 UNK         0.0600 
    225 H225       -5.9718  -22.2303  -53.0012 H         1 UNK         0.3000 
    226 H226       -6.8794  -22.7863  -55.6795 H         1 UNK         0.0600 
    227 H227       -5.9715  -25.0458  -55.2039 H         1 UNK         0.0600 
    228 H228       -5.2123  -24.4593  -53.7312 H         1 UNK         0.0600 
    229 H229       -6.9704  -24.4768  -53.8759 H         1 UNK         0.0600 
    230 H230       -5.8396  -22.2352  -57.4390 H         1 UNK         0.3000 
    231 H231       -4.4165  -21.9143  -59.0558 H         1 UNK         0.0600 
    232 H232       -2.3403  -23.4968  -57.4537 H         1 UNK         0.0600 
    233 H233       -2.2388  -23.0813  -59.1566 H         1 UNK         0.0600 
    234 H234       -3.5034  -24.1640  -58.5966 H         1 UNK         0.0600 
    235 H235       -2.4973  -21.4382  -56.0645 H         1 UNK         0.3000 
    236 H236       -1.1145  -19.0791  -57.1487 H         1 UNK         0.0600 
    237 H237        0.1233  -20.6277  -55.6650 H         1 UNK         0.0600 
    238 H238       -0.0362  -19.0594  -54.8871 H         1 UNK         0.0600 
    239 H239       -1.0608  -20.3959  -54.3821 H         1 UNK         0.0600 
    240 H240       -1.4571  -16.9800  -56.4991 H         1 UNK         0.3000 
    241 H241       -2.4592  -15.1450  -55.8584 H         1 UNK         0.0600 
    242 H242       -4.1676  -17.1731  -57.5806 H         1 UNK         0.3800 
    243 H243       -5.7106  -16.3590  -57.5760 H         1 UNK         0.3800 
    244 H244       -3.5101  -14.9352  -53.6248 H         1 UNK         0.0800 
    245 H245       -3.6209  -16.6653  -53.4777 H         1 UNK         0.0800 
    246 H246       -2.1475  -17.3599  -51.5353 H         1 UNK         0.0800 
    247 H247       -1.6205  -18.2281  -52.9507 H         1 UNK         0.0800 
@<TRIPOS>BOND
     1    1    2 1    
     2    1  127 1    
     3    1  128 1    
     4    1  129 1    
     5    2    3 2    
     6    2    4 am   BACKBONE|DICT|INTERRES
     7    4    5 1    
     8    4  130 1    
     9    5    6 1    
    10    5   65 1    
    11    5  131 1    
    12    6    7 1    
    13    6  132 1    
    14    6  133 1    
    15    7    8 1    
    16    8    9 1    
    17    8  134 1    
    18    8  135 1    
    19    9   10 ar   
    20    9   14 ar   
    21   10   11 ar   
    22   10  136 1    
    23   11   12 ar   
    24   11  126 1    
    25   12   13 ar   
    26   12  137 1    
    27   13   14 ar   
    28   13   15 1    
    29   14  138 1    
    30   15   16 1    
    31   15  139 1    
    32   15  140 1    
    33   16   17 1    
    34   17   18 1    
    35   17  141 1    
    36   17  142 1    
    37   18   19 1    
    38   18   67 1    
    39   18  143 1    
    40   19   20 am   BACKBONE|DICT|INTERRES
    41   19  144 1    
    42   20   21 2    
    43   20   22 1    
    44   22   23 1    
    45   22   24 1    
    46   22  145 1    
    47   23  146 1    
    48   23  147 1    
    49   23  148 1    
    50   24   25 am   BACKBONE|DICT|INTERRES
    51   24  149 1    
    52   25   26 2    
    53   25   27 1    
    54   27   28 1    
    55   27   29 1    
    56   27  150 1    
    57   28  151 1    
    58   28  152 1    
    59   28  153 1    
    60   29   30 am   BACKBONE|DICT|INTERRES
    61   29  154 1    
    62   30   31 2    
    63   30   32 1    
    64   32   33 1    
    65   32   34 1    
    66   32  155 1    
    67   33  156 1    
    68   33  157 1    
    69   33  158 1    
    70   34   35 am   BACKBONE|DICT|INTERRES
    71   34  159 1    
    72   35   36 2    
    73   35   37 1    
    74   37   38 1    
    75   37   39 1    
    76   37  160 1    
    77   38  161 1    
    78   38  162 1    
    79   38  163 1    
    80   39   40 am   BACKBONE|DICT|INTERRES
    81   39  164 1    
    82   40   41 2    
    83   40   42 1    
    84   42   43 1    
    85   42   44 1    
    86   42  165 1    
    87   43  166 1    
    88   43  167 1    
    89   43  168 1    
    90   44   45 am   BACKBONE|DICT|INTERRES
    91   44  169 1    
    92   45   46 2    
    93   45   47 1    
    94   47   48 1    
    95   47   49 1    
    96   47  170 1    
    97   48  171 1    
    98   48  172 1    
    99   48  173 1    
   100   49   50 am   BACKBONE|DICT|INTERRES
   101   49  174 1    
   102   50   51 2    
   103   50   52 1    
   104   52   53 1    
   105   52   54 1    
   106   52  175 1    
   107   53  176 1    
   108   53  177 1    
   109   53  178 1    
   110   54   55 am   BACKBONE|DICT|INTERRES
   111   54  179 1    
   112   55   56 2    
   113   55   57 1    
   114   57   58 1    
   115   57   59 1    
   116   57  180 1    
   117   58  181 1    
   118   58  182 1    
   119   58  183 1    
   120   59   60 am   BACKBONE|DICT|INTERRES
   121   59  184 1    
   122   60   61 2    
   123   60   62 1    
   124   62   63 1    
   125   62   64 1    
   126   62  185 1    
   127   63  186 1    
   128   63  187 1    
   129   63  188 1    
   130   64   65 am   BACKBONE|DICT|INTERRES
   131   64  189 1    
   132   65   66 2    
   133   67   68 2    
   134   67   69 am   BACKBONE|DICT|INTERRES
   135   69   70 1    
   136   69  190 1    
   137   70   71 1    
   138   70   72 1    
   139   70  191 1    
   140   71  192 1    
   141   71  193 1    
   142   71  194 1    
   143   72   73 2    
   144   72   74 am   BACKBONE|DICT|INTERRES
   145   74   75 1    
   146   74  195 1    
   147   75   76 1    
   148   75   77 1    
   149   75  196 1    
   150   76  197 1    
   151   76  198 1    
   152   76  199 1    
   153   77   78 2    
   154   77   79 am   BACKBONE|DICT|INTERRES
   155   79   80 1    
   156   79  200 1    
   157   80   81 1    
   158   80   82 1    
   159   80  201 1    
   160   81  202 1    
   161   81  203 1    
   162   81  204 1    
   163   82   83 2    
   164   82   84 am   BACKBONE|DICT|INTERRES
   165   84   85 1    
   166   84  205 1    
   167   85   86 1    
   168   85   87 1    
   169   85  206 1    
   170   86  207 1    
   171   86  208 1    
   172   86  209 1    
   173   87   88 2    
   174   87   89 am   BACKBONE|DICT|INTERRES
   175   89   90 1    
   176   89  210 1    
   177   90   91 1    
   178   90   92 1    
   179   90  211 1    
   180   91  212 1    
   181   91  213 1    
   182   91  214 1    
   183   92   93 2    
   184   92   94 am   BACKBONE|DICT|INTERRES
   185   94   95 1    
   186   94  215 1    
   187   95   96 1    
   188   95   97 1    
   189   95  216 1    
   190   96  217 1    
   191   96  218 1    
   192   96  219 1    
   193   97   98 2    
   194   97   99 am   BACKBONE|DICT|INTERRES
   195   99  100 1    
   196   99  220 1    
   197  100  101 1    
   198  100  102 1    
   199  100  221 1    
   200  101  222 1    
   201  101  223 1    
   202  101  224 1    
   203  102  103 2    
   204  102  104 am   BACKBONE|DICT|INTERRES
   205  104  105 1    
   206  104  225 1    
   207  105  106 1    
   208  105  107 1    
   209  105  226 1    
   210  106  227 1    
   211  106  228 1    
   212  106  229 1    
   213  107  108 2    
   214  107  109 am   BACKBONE|DICT|INTERRES
   215  109  110 1    
   216  109  230 1    
   217  110  111 1    
   218  110  112 1    
   219  110  231 1    
   220  111  232 1    
   221  111  233 1    
   222  111  234 1    
   223  112  113 2    
   224  112  114 am   BACKBONE|DICT|INTERRES
   225  114  115 1    
   226  114  235 1    
   227  115  116 1    
   228  115  117 1    
   229  115  236 1    
   230  116  237 1    
   231  116  238 1    
   232  116  239 1    
   233  117  118 2    
   234  117  119 am   BACKBONE|DICT|INTERRES
   235  119  120 1    
   236  119  240 1    
   237  120  121 1    
   238  120  124 1    
   239  120  241 1    
   240  121  122 am   BACKBONE|DICT|INTERRES
   241  121  123 2    
   242  122  242 1    
   243  122  243 1    
   244  124  125 1    
   245  124  244 1    
   246  124  245 1    
   247  125  126 1    
   248  126  246 1    
   249  126  247 1    
@<TRIPOS>SUBSTRUCTURE
     1 UNK         1 GROUP             0       ****    0 ROOT    
