@<TRIPOS>MOLECULE
3R540
247   249    1
SMALL
USER_CHARGES


@<TRIPOS>ATOM
      1 CA         -1.2056  -13.9665  -47.9594 C.3       0 UNK        -0.1800 
      2 C           0.1033  -13.3017  -48.3486 C.2       0 UNK         0.5000 
      3 O           0.5995  -12.4367  -47.6257 O.2       0 UNK        -0.5000 
      4 N           0.6793  -13.7241  -49.4821 N.am      1 UNK        -0.5000 
      5 CA          1.8983  -13.1580  -50.0838 C.3       1 UNK         0.1400 
      6 C6          2.1334  -13.6375  -51.5410 C.3       23 UNK        -0.0398 
      7 S7          0.6387  -13.5471  -52.5946 S.3       23 UNK        -0.2404 
      8 C8          0.3336  -15.3003  -52.9976 C.3       23 UNK        -0.0205 
      9 C9          0.0583  -16.1379  -51.7571 C.ar      23 UNK        -0.0193 
     10 C10        -1.2029  -16.1273  -51.1563 C.ar      23 UNK        -0.1150 
     11 C11        -1.4415  -16.8695  -49.9960 C.ar      23 UNK        -0.0193 
     12 C12        -0.4023  -17.6093  -49.4248 C.ar      23 UNK        -0.1150 
     13 C13         0.8621  -17.6381  -50.0241 C.ar      23 UNK        -0.0193 
     14 C14         1.0769  -16.9128  -51.1978 C.ar      23 UNK        -0.1150 
     15 C15         2.0185  -18.4083  -49.4008 C.3       23 UNK        -0.0205 
     16 S16         1.6934  -20.1941  -49.2719 S.3       23 UNK        -0.2404 
     17 C17         1.2924  -20.2949  -47.4982 C.3       23 UNK        -0.0398 
     18 CA          0.6989  -21.6429  -47.0383 C.3       11 UNK         0.1400 
     19 N           0.5990  -21.6847  -45.5809 N.am      11 UNK        -0.5000 
     20 C           0.2731  -22.7559  -44.8481 C.2       10 UNK         0.5000 
     21 O           0.0626  -23.8737  -45.3187 O.2       10 UNK        -0.5000 
     22 CA          0.1085  -22.5168  -43.3362 C.3       10 UNK         0.1400 
     23 CB          1.4748  -22.4776  -42.6358 C.3       10 UNK        -0.1800 
     24 N          -0.6280  -21.2844  -43.0449 N.am      10 UNK        -0.5000 
     25 C          -1.9074  -21.0745  -43.3884 C.2       9 UNK         0.5000 
     26 O          -2.6119  -21.9175  -43.9450 O.2       9 UNK        -0.5000 
     27 CA         -2.4870  -19.6787  -43.0971 C.3       9 UNK         0.1400 
     28 CB         -2.8617  -19.5434  -41.6138 C.3       9 UNK        -0.1800 
     29 N          -1.5823  -18.5934  -43.4807 N.am      9 UNK        -0.5000 
     30 C          -1.1932  -18.3384  -44.7384 C.2       8 UNK         0.5000 
     31 O          -1.5719  -18.9796  -45.7154 O.2       8 UNK        -0.5000 
     32 CA         -0.1700  -17.2096  -44.9438 C.3       8 UNK         0.1400 
     33 CB         -0.8544  -15.8364  -44.8896 C.3       8 UNK        -0.1800 
     34 N           0.9224  -17.2563  -43.9749 N.am      8 UNK        -0.5000 
     35 C           1.7737  -18.2805  -43.8230 C.2       7 UNK         0.5000 
     36 O           1.7605  -19.2939  -44.5189 O.2       7 UNK        -0.5000 
     37 CA          2.7715  -18.1795  -42.6594 C.3       7 UNK         0.1400 
     38 CB          3.9465  -17.2594  -43.0180 C.3       7 UNK        -0.1800 
     39 N           2.1269  -17.7043  -41.4372 N.am      7 UNK        -0.5000 
     40 C           1.2214  -18.4044  -40.7396 C.2       6 UNK         0.5000 
     41 O           0.8502  -19.5403  -41.0381 O.2       6 UNK        -0.5000 
     42 CA          0.5996  -17.6915  -39.5262 C.3       6 UNK         0.1400 
     43 CB          1.5250  -17.7886  -38.3041 C.3       6 UNK        -0.1800 
     44 N           0.2979  -16.2849  -39.7997 N.am      6 UNK        -0.5000 
     45 C          -0.6418  -15.8753  -40.6625 C.2       5 UNK         0.5000 
     46 O          -1.3505  -16.6398  -41.3164 O.2       5 UNK        -0.5000 
     47 CA         -0.7915  -14.3563  -40.8525 C.3       5 UNK         0.1400 
     48 CB         -1.6326  -13.7493  -39.7194 C.3       5 UNK        -0.1800 
     49 N           0.4823  -13.6373  -40.9544 N.am      5 UNK        -0.5000 
     50 C           1.3968  -13.8410  -41.9109 C.2       4 UNK         0.5000 
     51 O           1.3357  -14.7492  -42.7421 O.2       4 UNK        -0.5000 
     52 CA          2.5727  -12.8626  -41.9703 C.3       4 UNK         0.1400 
     53 CB          3.8493  -13.4785  -41.3754 C.3       4 UNK        -0.1800 
     54 N           2.7773  -12.5317  -43.3749 N.am      4 UNK        -0.5000 
     55 C           3.2267  -11.3652  -43.8476 C.2       3 UNK         0.5000 
     56 O           3.6209  -10.4491  -43.1232 O.2       3 UNK        -0.5000 
     57 CA          3.1895  -11.1743  -45.3805 C.3       3 UNK         0.1400 
     58 CB          4.2516  -10.1756  -45.8873 C.3       3 UNK        -0.1800 
     59 N           3.2358  -12.4233  -46.1515 N.am      3 UNK        -0.5000 
     60 C           4.2512  -13.3007  -46.2225 C.2       2 UNK         0.5000 
     61 O           5.2907  -13.2017  -45.5703 O.2       2 UNK        -0.5000 
     62 CA          4.0880  -14.4947  -47.1892 C.3       2 UNK         0.1400 
     63 CB          3.7187  -15.7652  -46.4078 C.3       2 UNK        -0.1800 
     64 N           3.0830  -14.2748  -48.2307 N.am      2 UNK        -0.5000 
     65 C           3.1670  -13.3772  -49.2249 C.2       1 UNK         0.5000 
     66 O           4.1789  -12.7158  -49.4592 O.2       1 UNK        -0.5000 
     67 C          -0.6526  -21.9616  -47.7101 C.2       11 UNK         0.5000 
     68 O          -0.6897  -22.8124  -48.5965 O.2       11 UNK        -0.5000 
     69 N          -1.7405  -21.3312  -47.2416 N.am      12 UNK        -0.5000 
     70 CA         -3.1093  -21.5722  -47.7023 C.3       12 UNK         0.1400 
     71 CB         -4.0798  -20.6176  -46.9896 C.3       12 UNK        -0.1800 
     72 C          -3.5551  -23.0296  -47.5006 C.2       12 UNK         0.5000 
     73 O          -4.1397  -23.6120  -48.4134 O.2       12 UNK        -0.5000 
     74 N          -3.2380  -23.5999  -46.3290 N.am      13 UNK        -0.5000 
     75 CA         -3.4935  -24.9996  -45.9919 C.3       13 UNK         0.1400 
     76 CB         -3.1885  -25.2402  -44.5058 C.3       13 UNK        -0.1800 
     77 C          -2.7076  -25.9756  -46.8862 C.2       13 UNK         0.5000 
     78 O          -3.2970  -26.9227  -47.4075 O.2       13 UNK        -0.5000 
     79 N          -1.4095  -25.7057  -47.0890 N.am      14 UNK        -0.5000 
     80 CA         -0.5270  -26.4720  -47.9749 C.3       14 UNK         0.1400 
     81 CB          0.9196  -25.9853  -47.8014 C.3       14 UNK        -0.1800 
     82 C          -0.9521  -26.4039  -49.4552 C.2       14 UNK         0.5000 
     83 O          -0.8671  -27.4071  -50.1638 O.2       14 UNK        -0.5000 
     84 N          -1.4408  -25.2322  -49.8790 N.am      15 UNK        -0.5000 
     85 CA         -1.9995  -24.9627  -51.2031 C.3       15 UNK         0.1400 
     86 CB         -1.9613  -23.4444  -51.4420 C.3       15 UNK        -0.1800 
     87 C          -3.4355  -25.4915  -51.3966 C.2       15 UNK         0.5000 
     88 O          -3.9922  -25.3099  -52.4826 O.2       15 UNK        -0.5000 
     89 N          -4.0338  -26.0725  -50.3435 N.am      16 UNK        -0.5000 
     90 CA         -5.4086  -26.5842  -50.2594 C.3       16 UNK         0.1400 
     91 CB         -5.5609  -27.8428  -51.1377 C.3       16 UNK        -0.1800 
     92 C          -6.4824  -25.5160  -50.5670 C.2       16 UNK         0.5000 
     93 O          -7.5723  -25.8534  -51.0322 O.2       16 UNK        -0.5000 
     94 N          -6.1302  -24.2425  -50.3341 N.am      17 UNK        -0.5000 
     95 CA         -6.8508  -23.0214  -50.6995 C.3       17 UNK         0.1400 
     96 CB         -8.0945  -22.8472  -49.8050 C.3       17 UNK        -0.1800 
     97 C          -7.1746  -22.9130  -52.2092 C.2       17 UNK         0.5000 
     98 O          -8.1644  -22.2685  -52.5667 O.2       17 UNK        -0.5000 
     99 N          -6.3516  -23.5404  -53.0636 N.am      18 UNK        -0.5000 
    100 CA        -6.5766  -23.6387  -54.5053 C.3       18 UNK         0.1400 
    101 CB        -7.0677  -25.0574  -54.8370 C.3       18 UNK        -0.1800 
    102 C         -5.3271  -23.2944  -55.3309 C.2       18 UNK         0.5000 
    103 O         -5.4632  -22.6605  -56.3780 O.2       18 UNK        -0.5000 
    104 N         -4.1398  -23.7273  -54.8814 N.am      19 UNK        -0.5000 
    105 CA        -2.8835  -23.5576  -55.6228 C.3       19 UNK         0.1400 
    106 CB        -1.8981  -24.6599  -55.2038 C.3       19 UNK        -0.1800 
    107 C         -2.2454  -22.1620  -55.4618 C.2       19 UNK         0.5000 
    108 O         -1.3705  -21.8074  -56.2536 O.2       19 UNK        -0.5000 
    109 N         -2.6796  -21.4047  -54.4490 N.am      20 UNK        -0.5000 
    110 CA        -2.2599  -20.0326  -54.1683 C.3       20 UNK         0.1400 
    111 CB        -1.9747  -19.9174  -52.6595 C.3       20 UNK        -0.1800 
    112 C         -3.3539  -19.0446  -54.6177 C.2       20 UNK         0.5000 
    113 O         -4.3828  -19.4600  -55.1573 O.2       20 UNK        -0.5000 
    114 N         -3.1222  -17.7432  -54.3885 N.am      21 UNK        -0.5000 
    115 CA        -4.1190  -16.6891  -54.6173 C.3       21 UNK         0.1400 
    116 CB        -3.4466  -15.3104  -54.5376 C.3       21 UNK        -0.1800 
    117 C         -5.3047  -16.7844  -53.6347 C.2       21 UNK         0.5000 
    118 O         -6.4379  -16.4824  -54.0109 O.2       21 UNK        -0.5000 
    119 N         -5.0199  -17.2401  -52.4094 N.am      22 UNK        -0.5000 
    120 CA        -6.0017  -17.7443  -51.4442 C.3       22 UNK         0.1400 
    121 C         -6.4606  -19.1773  -51.8332 C.2       22 UNK         0.5000 
    122 N         -7.7582  -19.4492  -51.8408 N.am      22 UNK        -0.7600 
    123 O         -5.6447  -20.0554  -52.1006 O.2       22 UNK        -0.5000 
    124 C124       -5.4573  -17.6918  -49.9899 C.3       23 UNK        -0.0398 
    125 S125       -3.7581  -18.3486  -49.7982 S.3       23 UNK        -0.2404 
    126 C126       -2.8177  -16.8575  -49.3519 C.3       23 UNK        -0.0205 
    127 H127       -1.6303  -13.4985  -47.0712 H         1 UNK         0.0600 
    128 H128       -1.0372  -15.0205  -47.7446 H         1 UNK         0.0600 
    129 H129       -1.9317  -13.8861  -48.7683 H         1 UNK         0.0600 
    130 H130        0.2254  -14.4421  -50.0315 H         1 UNK         0.3000 
    131 H131        1.7449  -12.0774  -50.1244 H         1 UNK         0.0600 
    132 H132        2.8984  -13.0165  -52.0104 H         1 UNK         0.0800 
    133 H133        2.5372  -14.6488  -51.5575 H         1 UNK         0.0800 
    134 H134        1.1887  -15.6970  -53.5473 H         1 UNK         0.0800 
    135 H135       -0.5166  -15.3628  -53.6771 H         1 UNK         0.0800 
    136 H136       -1.9954  -15.5304  -51.5826 H         1 UNK         0.1150 
    137 H137       -0.5914  -18.1684  -48.5209 H         1 UNK         0.1150 
    138 H138        2.0512  -16.9312  -51.6655 H         1 UNK         0.1150 
    139 H139        2.9271  -18.2762  -49.9900 H         1 UNK         0.0800 
    140 H140        2.2376  -17.9881  -48.4192 H         1 UNK         0.0800 
    141 H141        0.6273  -19.4779  -47.2228 H         1 UNK         0.0800 
    142 H142        2.2245  -20.1132  -46.9616 H         1 UNK         0.0800 
    143 H143        1.3980  -22.4299  -47.3288 H         1 UNK         0.0600 
    144 H144        0.7994  -20.8124  -45.0983 H         1 UNK         0.3000 
    145 H145       -0.4610  -23.3538  -42.9271 H         1 UNK         0.0600 
    146 H146        1.3601  -22.3878  -41.5554 H         1 UNK         0.0600 
    147 H147        2.0397  -23.3903  -42.8291 H         1 UNK         0.0600 
    148 H148        2.0794  -21.6366  -42.9772 H         1 UNK         0.0600 
    149 H149       -0.1205  -20.5518  -42.5595 H         1 UNK         0.3000 
    150 H150       -3.3999  -19.5723  -43.6867 H         1 UNK         0.0600 
    151 H151       -3.5349  -20.3441  -41.3052 H         1 UNK         0.0600 
    152 H152       -3.3709  -18.5989  -41.4219 H         1 UNK         0.0600 
    153 H153       -1.9823  -19.5852  -40.9703 H         1 UNK         0.0600 
    154 H154       -1.2613  -17.9846  -42.7334 H         1 UNK         0.3000 
    155 H155        0.2637  -17.3317  -45.9383 H         1 UNK         0.0600 
    156 H156       -1.7037  -15.7948  -45.5720 H         1 UNK         0.0600 
    157 H157       -0.1644  -15.0409  -45.1718 H         1 UNK         0.0600 
    158 H158       -1.2298  -15.6135  -43.8911 H         1 UNK         0.0600 
    159 H159        1.0280  -16.4384  -43.3784 H         1 UNK         0.3000 
    160 H160        3.1680  -19.1788  -42.4674 H         1 UNK         0.0600 
    161 H161        3.6099  -16.2546  -43.2739 H         1 UNK         0.0600 
    162 H162        4.4940  -17.6519  -43.8755 H         1 UNK         0.0600 
    163 H163        4.6533  -17.1781  -42.1922 H         1 UNK         0.0600 
    164 H164        2.3340  -16.7599  -41.1496 H         1 UNK         0.3000 
    165 H165       -0.3365  -18.2003  -39.2859 H         1 UNK         0.0600 
    166 H166        1.0571  -17.3544  -37.4203 H         1 UNK         0.0600 
    167 H167        1.7544  -18.8293  -38.0709 H         1 UNK         0.0600 
    168 H168        2.4716  -17.2730  -38.4708 H         1 UNK         0.0600 
    169 H169        0.8414  -15.5907  -39.3081 H         1 UNK         0.3000 
    170 H170       -1.3295  -14.1994  -41.7897 H         1 UNK         0.0600 
    171 H171       -2.5940  -14.2573  -39.6312 H         1 UNK         0.0600 
    172 H172       -1.1294  -13.8293  -38.7550 H         1 UNK         0.0600 
    173 H173       -1.8404  -12.6951  -39.9034 H         1 UNK         0.0600 
    174 H174        0.6177  -12.8765  -40.3042 H         1 UNK         0.3000 
    175 H175        2.3103  -11.9610  -41.4126 H         1 UNK         0.0600 
    176 H176        4.1638  -14.3655  -41.9250 H         1 UNK         0.0600 
    177 H177        4.6742  -12.7663  -41.3963 H         1 UNK         0.0600 
    178 H178        3.6964  -13.7697  -40.3356 H         1 UNK         0.0600 
    179 H179        2.4393  -13.2310  -44.0231 H         1 UNK         0.3000 
    180 H180        2.2126  -10.7387  -45.5948 H         1 UNK         0.0600 
    181 H181        5.2632  -10.5000  -45.6420 H         1 UNK         0.0600 
    182 H182        4.1083   -9.1906  -45.4419 H         1 UNK         0.0600 
    183 H183        4.1916  -10.0521  -46.9688 H         1 UNK         0.0600 
    184 H184        2.4128  -12.5977  -46.7203 H         1 UNK         0.3000 
    185 H185        5.0514  -14.6568  -47.6769 H         1 UNK         0.0600 
    186 H186        4.4683  -15.9768  -45.6452 H         1 UNK         0.0600 
    187 H187        2.7548  -15.6683  -45.9058 H         1 UNK         0.0600 
    188 H188        3.6745  -16.6349  -47.0622 H         1 UNK         0.0600 
    189 H189        2.2093  -14.7684  -48.1254 H         1 UNK         0.3000 
    190 H190       -1.6286  -20.6059  -46.5362 H         1 UNK         0.3000 
    191 H191       -3.1387  -21.3545  -48.7718 H         1 UNK         0.0600 
    192 H192       -4.1158  -20.8029  -45.9162 H         1 UNK         0.0600 
    193 H193       -5.0924  -20.7314  -47.3785 H         1 UNK         0.0600 
    194 H194       -3.7923  -19.5770  -47.1340 H         1 UNK         0.0600 
    195 H195       -2.7914  -23.0321  -45.6153 H         1 UNK         0.3000 
    196 H196       -4.5571  -25.1885  -46.1520 H         1 UNK         0.0600 
    197 H197       -3.3936  -26.2746  -44.2275 H         1 UNK         0.0600 
    198 H198       -3.8043  -24.6035  -43.8703 H         1 UNK         0.0600 
    199 H199       -2.1444  -25.0366  -44.2680 H         1 UNK         0.0600 
    200 H200       -0.9895  -24.9206  -46.5987 H         1 UNK         0.3000 
    201 H201       -0.5730  -27.5182  -47.6659 H         1 UNK         0.0600 
    202 H202        1.2535  -26.1028  -46.7703 H         1 UNK         0.0600 
    203 H203        1.0249  -24.9333  -48.0681 H         1 UNK         0.0600 
    204 H204        1.6027  -26.5551  -48.4324 H         1 UNK         0.0600 
    205 H205       -1.3958  -24.4356  -49.2473 H         1 UNK         0.3000 
    206 H206       -1.3707  -25.4488  -51.9509 H         1 UNK         0.0600 
    207 H207       -0.9407  -23.0634  -51.4014 H         1 UNK         0.0600 
    208 H208       -2.3643  -23.1838  -52.4180 H         1 UNK         0.0600 
    209 H209       -2.5492  -22.9059  -50.6982 H         1 UNK         0.0600 
    210 H210       -3.5054  -26.1331  -49.4820 H         1 UNK         0.3000 
    211 H211       -5.5616  -26.8795  -49.2206 H         1 UNK         0.0600 
    212 H212       -5.4840  -27.6057  -52.1993 H         1 UNK         0.0600 
    213 H213       -6.5289  -28.3189  -50.9777 H         1 UNK         0.0600 
    214 H214       -4.7950  -28.5819  -50.9024 H         1 UNK         0.0600 
    215 H215       -5.2429  -24.0884  -49.8595 H         1 UNK         0.3000 
    216 H216       -6.1698  -22.1988  -50.4776 H         1 UNK         0.0600 
    217 H217       -8.5572  -21.8721  -49.9608 H         1 UNK         0.0600 
    218 H218       -7.8313  -22.9132  -48.7492 H         1 UNK         0.0600 
    219 H219       -8.8491  -23.6066  -50.0119 H         1 UNK         0.0600 
    220 H220       -5.5671  -24.0633  -52.6904 H         1 UNK         0.3000 
    221 H221       -7.3516  -22.9345  -54.8149 H         1 UNK         0.0600 
    222 H222       -6.3422  -25.8139  -54.5343 H         1 UNK         0.0600 
    223 H223       -8.0072  -25.2758  -54.3290 H         1 UNK         0.0600 
    224 H224       -7.2406  -25.1736  -55.9076 H         1 UNK         0.0600 
    225 H225       -4.0955  -24.2867  -54.0335 H         1 UNK         0.3000 
    226 H226       -3.0885  -23.6938  -56.6869 H         1 UNK         0.0600 
    227 H227       -2.3362  -25.6506  -55.3264 H         1 UNK         0.0600 
    228 H228       -0.9951  -24.6267  -55.8145 H         1 UNK         0.0600 
    229 H229       -1.5900  -24.5555  -54.1654 H         1 UNK         0.0600 
    230 H230       -3.4681  -21.7391  -53.9144 H         1 UNK         0.3000 
    231 H231       -1.3461  -19.7898  -54.7139 H         1 UNK         0.0600 
    232 H232       -1.1903  -20.6102  -52.3548 H         1 UNK         0.0600 
    233 H233       -2.8615  -20.1416  -52.0662 H         1 UNK         0.0600 
    234 H234       -1.6365  -18.9183  -52.3843 H         1 UNK         0.0600 
    235 H235       -2.2489  -17.4630  -53.9679 H         1 UNK         0.3000 
    236 H236       -4.5156  -16.8112  -55.6276 H         1 UNK         0.0600 
    237 H237       -4.1591  -14.5191  -54.7741 H         1 UNK         0.0600 
    238 H238       -3.0549  -15.1058  -53.5425 H         1 UNK         0.0600 
    239 H239       -2.6247  -15.2284  -55.2490 H         1 UNK         0.0600 
    240 H240       -4.0666  -17.5027  -52.2083 H         1 UNK         0.3000 
    241 H241       -6.8764  -17.0919  -51.4834 H         1 UNK         0.0600 
    242 H242       -8.0485  -20.3840  -52.1100 H         1 UNK         0.3800 
    243 H243       -8.4541  -18.7508  -51.6314 H         1 UNK         0.3800 
    244 H244       -5.4902  -16.6613  -49.6363 H         1 UNK         0.0800 
    245 H245       -6.1145  -18.2411  -49.3135 H         1 UNK         0.0800 
    246 H246       -2.7249  -16.8096  -48.2659 H         1 UNK         0.0800 
    247 H247       -3.3540  -15.9580  -49.6562 H         1 UNK         0.0800 
@<TRIPOS>BOND
     1    1    2 1    
     2    1  127 1    
     3    1  128 1    
     4    1  129 1    
     5    2    3 2    
     6    2    4 am   BACKBONE|DICT|INTERRES
     7    4    5 1    
     8    4  130 1    
     9    5    6 1    
    10    5   65 1    
    11    5  131 1    
    12    6    7 1    
    13    6  132 1    
    14    6  133 1    
    15    7    8 1    
    16    8    9 1    
    17    8  134 1    
    18    8  135 1    
    19    9   10 ar   
    20    9   14 ar   
    21   10   11 ar   
    22   10  136 1    
    23   11   12 ar   
    24   11  126 1    
    25   12   13 ar   
    26   12  137 1    
    27   13   14 ar   
    28   13   15 1    
    29   14  138 1    
    30   15   16 1    
    31   15  139 1    
    32   15  140 1    
    33   16   17 1    
    34   17   18 1    
    35   17  141 1    
    36   17  142 1    
    37   18   19 1    
    38   18   67 1    
    39   18  143 1    
    40   19   20 am   BACKBONE|DICT|INTERRES
    41   19  144 1    
    42   20   21 2    
    43   20   22 1    
    44   22   23 1    
    45   22   24 1    
    46   22  145 1    
    47   23  146 1    
    48   23  147 1    
    49   23  148 1    
    50   24   25 am   BACKBONE|DICT|INTERRES
    51   24  149 1    
    52   25   26 2    
    53   25   27 1    
    54   27   28 1    
    55   27   29 1    
    56   27  150 1    
    57   28  151 1    
    58   28  152 1    
    59   28  153 1    
    60   29   30 am   BACKBONE|DICT|INTERRES
    61   29  154 1    
    62   30   31 2    
    63   30   32 1    
    64   32   33 1    
    65   32   34 1    
    66   32  155 1    
    67   33  156 1    
    68   33  157 1    
    69   33  158 1    
    70   34   35 am   BACKBONE|DICT|INTERRES
    71   34  159 1    
    72   35   36 2    
    73   35   37 1    
    74   37   38 1    
    75   37   39 1    
    76   37  160 1    
    77   38  161 1    
    78   38  162 1    
    79   38  163 1    
    80   39   40 am   BACKBONE|DICT|INTERRES
    81   39  164 1    
    82   40   41 2    
    83   40   42 1    
    84   42   43 1    
    85   42   44 1    
    86   42  165 1    
    87   43  166 1    
    88   43  167 1    
    89   43  168 1    
    90   44   45 am   BACKBONE|DICT|INTERRES
    91   44  169 1    
    92   45   46 2    
    93   45   47 1    
    94   47   48 1    
    95   47   49 1    
    96   47  170 1    
    97   48  171 1    
    98   48  172 1    
    99   48  173 1    
   100   49   50 am   BACKBONE|DICT|INTERRES
   101   49  174 1    
   102   50   51 2    
   103   50   52 1    
   104   52   53 1    
   105   52   54 1    
   106   52  175 1    
   107   53  176 1    
   108   53  177 1    
   109   53  178 1    
   110   54   55 am   BACKBONE|DICT|INTERRES
   111   54  179 1    
   112   55   56 2    
   113   55   57 1    
   114   57   58 1    
   115   57   59 1    
   116   57  180 1    
   117   58  181 1    
   118   58  182 1    
   119   58  183 1    
   120   59   60 am   BACKBONE|DICT|INTERRES
   121   59  184 1    
   122   60   61 2    
   123   60   62 1    
   124   62   63 1    
   125   62   64 1    
   126   62  185 1    
   127   63  186 1    
   128   63  187 1    
   129   63  188 1    
   130   64   65 am   BACKBONE|DICT|INTERRES
   131   64  189 1    
   132   65   66 2    
   133   67   68 2    
   134   67   69 am   BACKBONE|DICT|INTERRES
   135   69   70 1    
   136   69  190 1    
   137   70   71 1    
   138   70   72 1    
   139   70  191 1    
   140   71  192 1    
   141   71  193 1    
   142   71  194 1    
   143   72   73 2    
   144   72   74 am   BACKBONE|DICT|INTERRES
   145   74   75 1    
   146   74  195 1    
   147   75   76 1    
   148   75   77 1    
   149   75  196 1    
   150   76  197 1    
   151   76  198 1    
   152   76  199 1    
   153   77   78 2    
   154   77   79 am   BACKBONE|DICT|INTERRES
   155   79   80 1    
   156   79  200 1    
   157   80   81 1    
   158   80   82 1    
   159   80  201 1    
   160   81  202 1    
   161   81  203 1    
   162   81  204 1    
   163   82   83 2    
   164   82   84 am   BACKBONE|DICT|INTERRES
   165   84   85 1    
   166   84  205 1    
   167   85   86 1    
   168   85   87 1    
   169   85  206 1    
   170   86  207 1    
   171   86  208 1    
   172   86  209 1    
   173   87   88 2    
   174   87   89 am   BACKBONE|DICT|INTERRES
   175   89   90 1    
   176   89  210 1    
   177   90   91 1    
   178   90   92 1    
   179   90  211 1    
   180   91  212 1    
   181   91  213 1    
   182   91  214 1    
   183   92   93 2    
   184   92   94 am   BACKBONE|DICT|INTERRES
   185   94   95 1    
   186   94  215 1    
   187   95   96 1    
   188   95   97 1    
   189   95  216 1    
   190   96  217 1    
   191   96  218 1    
   192   96  219 1    
   193   97   98 2    
   194   97   99 am   BACKBONE|DICT|INTERRES
   195   99  100 1    
   196   99  220 1    
   197  100  101 1    
   198  100  102 1    
   199  100  221 1    
   200  101  222 1    
   201  101  223 1    
   202  101  224 1    
   203  102  103 2    
   204  102  104 am   BACKBONE|DICT|INTERRES
   205  104  105 1    
   206  104  225 1    
   207  105  106 1    
   208  105  107 1    
   209  105  226 1    
   210  106  227 1    
   211  106  228 1    
   212  106  229 1    
   213  107  108 2    
   214  107  109 am   BACKBONE|DICT|INTERRES
   215  109  110 1    
   216  109  230 1    
   217  110  111 1    
   218  110  112 1    
   219  110  231 1    
   220  111  232 1    
   221  111  233 1    
   222  111  234 1    
   223  112  113 2    
   224  112  114 am   BACKBONE|DICT|INTERRES
   225  114  115 1    
   226  114  235 1    
   227  115  116 1    
   228  115  117 1    
   229  115  236 1    
   230  116  237 1    
   231  116  238 1    
   232  116  239 1    
   233  117  118 2    
   234  117  119 am   BACKBONE|DICT|INTERRES
   235  119  120 1    
   236  119  240 1    
   237  120  121 1    
   238  120  124 1    
   239  120  241 1    
   240  121  122 am   BACKBONE|DICT|INTERRES
   241  121  123 2    
   242  122  242 1    
   243  122  243 1    
   244  124  125 1    
   245  124  244 1    
   246  124  245 1    
   247  125  126 1    
   248  126  246 1    
   249  126  247 1    
@<TRIPOS>SUBSTRUCTURE
     1 UNK         1 GROUP             0       ****    0 ROOT    
