@<TRIPOS>MOLECULE
3R540
247   249    1
SMALL
USER_CHARGES


@<TRIPOS>ATOM
      1 CA          0.0344  -15.8367  -48.0395 C.3       0 UNK        -0.1800 
      2 C           0.4565  -14.4185  -48.3870 C.2       0 UNK         0.5000 
      3 O          -0.0543  -13.4644  -47.8034 O.2       0 UNK        -0.5000 
      4 N           1.3950  -14.2681  -49.3302 N.am      1 UNK        -0.5000 
      5 CA          1.8641  -12.9727  -49.8437 C.3       1 UNK         0.1400 
      6 C6          2.8059  -13.1345  -51.0661 C.3       23 UNK        -0.0398 
      7 S7          4.3528  -14.0495  -50.7085 S.3       23 UNK        -0.2404 
      8 C8          4.2676  -15.4525  -51.8657 C.3       23 UNK        -0.0205 
      9 C9          3.1090  -16.3869  -51.5552 C.ar      23 UNK        -0.0193 
     10 C10         2.0221  -16.4727  -52.4301 C.ar      23 UNK        -0.1150 
     11 C11         0.9504  -17.3236  -52.1498 C.ar      23 UNK        -0.0193 
     12 C12         0.9773  -18.0943  -50.9852 C.ar      23 UNK        -0.1150 
     13 C13         2.0551  -18.0169  -50.0997 C.ar      23 UNK        -0.0193 
     14 C14         3.1239  -17.1665  -50.3942 C.ar      23 UNK        -0.1150 
     15 C15         2.0201  -18.7941  -48.7933 C.3       23 UNK        -0.0205 
     16 S16         2.2156  -20.5925  -49.0148 S.3       23 UNK        -0.2404 
     17 C17         1.5931  -21.1096  -47.3824 C.3       23 UNK        -0.0398 
     18 CA          2.0571  -22.5073  -46.8950 C.3       11 UNK         0.1400 
     19 N           2.1897  -22.5241  -45.4409 N.am      11 UNK        -0.5000 
     20 C           3.2293  -22.0525  -44.7460 C.2       10 UNK         0.5000 
     21 O           4.2780  -21.6703  -45.2682 O.2       10 UNK        -0.5000 
     22 CA          3.0319  -21.9546  -43.2211 C.3       10 UNK         0.1400 
     23 CB          4.1341  -21.1339  -42.5273 C.3       10 UNK        -0.1800 
     24 N           1.7392  -21.3282  -42.9464 N.am      10 UNK        -0.5000 
     25 C           0.7053  -21.9051  -42.3206 C.2       9 UNK         0.5000 
     26 O           0.7507  -23.0355  -41.8341 O.2       9 UNK        -0.5000 
     27 CA         -0.6120  -21.1024  -42.2269 C.3       9 UNK         0.1400 
     28 CB         -0.7581  -20.4802  -40.8297 C.3       9 UNK        -0.1800 
     29 N          -0.7538  -20.0419  -43.2273 N.am      9 UNK        -0.5000 
     30 C          -0.7834  -20.2204  -44.5554 C.2       8 UNK         0.5000 
     31 O          -0.7423  -21.3243  -45.0967 O.2       8 UNK        -0.5000 
     32 CA         -0.8004  -18.9481  -45.4257 C.3       8 UNK         0.1400 
     33 CB         -2.2427  -18.5335  -45.7439 C.3       8 UNK        -0.1800 
     34 N          -0.0802  -17.8174  -44.8319 N.am      8 UNK        -0.5000 
     35 C           1.2154  -17.8156  -44.4806 C.2       7 UNK         0.5000 
     36 O           1.9584  -18.7890  -44.5986 O.2       7 UNK        -0.5000 
     37 CA          1.7620  -16.5262  -43.8498 C.3       7 UNK         0.1400 
     38 CB          2.1056  -15.4818  -44.9208 C.3       7 UNK        -0.1800 
     39 N           0.8082  -15.9624  -42.8973 N.am      7 UNK        -0.5000 
     40 C           0.7102  -16.3493  -41.6181 C.2       6 UNK         0.5000 
     41 O           1.4751  -17.1538  -41.0858 O.2       6 UNK        -0.5000 
     42 CA         -0.4492  -15.7565  -40.7958 C.3       6 UNK         0.1400 
     43 CB          0.0054  -14.4953  -40.0468 C.3       6 UNK        -0.1800 
     44 N          -1.6245  -15.4417  -41.6098 N.am      6 UNK        -0.5000 
     45 C          -2.4205  -16.3648  -42.1690 C.2       5 UNK         0.5000 
     46 O          -2.2460  -17.5779  -42.0509 O.2       5 UNK        -0.5000 
     47 CA         -3.5848  -15.8494  -43.0383 C.3       5 UNK         0.1400 
     48 CB         -4.8351  -15.6217  -42.1760 C.3       5 UNK        -0.1800 
     49 N          -3.2867  -14.6234  -43.7838 N.am      5 UNK        -0.5000 
     50 C          -2.2716  -14.4589  -44.6433 C.2       4 UNK         0.5000 
     51 O          -1.4340  -15.3315  -44.8776 O.2       4 UNK        -0.5000 
     52 CA         -2.1317  -13.0860  -45.3332 C.3       4 UNK         0.1400 
     53 CB         -3.2123  -12.0548  -44.9338 C.3       4 UNK        -0.1800 
     54 N          -0.7878  -12.5269  -45.1423 N.am      4 UNK        -0.5000 
     55 C          -0.2026  -12.2606  -43.9649 C.2       3 UNK         0.5000 
     56 O          -0.7562  -12.4566  -42.8810 O.2       3 UNK        -0.5000 
     57 CA          1.2281  -11.6896  -43.9827 C.3       3 UNK         0.1400 
     58 CB          2.0284  -12.1163  -42.7307 C.3       3 UNK        -0.1800 
     59 N           1.9792  -12.0224  -45.2007 N.am      3 UNK        -0.5000 
     60 C           3.0612  -11.3408  -45.6061 C.2       2 UNK         0.5000 
     61 O           3.4302  -10.2838  -45.0915 O.2       2 UNK        -0.5000 
     62 CA          3.9079  -11.9411  -46.7427 C.3       2 UNK         0.1400 
     63 CB          4.9743  -12.8913  -46.1756 C.3       2 UNK        -0.1800 
     64 N           3.1300  -12.6519  -47.7541 N.am      2 UNK        -0.5000 
     65 C           2.4939  -12.0526  -48.7699 C.2       1 UNK         0.5000 
     66 O           2.4062  -10.8299  -48.8944 O.2       1 UNK        -0.5000 
     67 C           1.1026  -23.6440  -47.3219 C.2       11 UNK         0.5000 
     68 O           0.7644  -24.5101  -46.5109 O.2       11 UNK        -0.5000 
     69 N           0.6737  -23.6235  -48.5894 N.am      12 UNK        -0.5000 
     70 CA         -0.1601  -24.6418  -49.2386 C.3       12 UNK         0.1400 
     71 CB          0.0030  -24.4942  -50.7628 C.3       12 UNK        -0.1800 
     72 C          -1.6561  -24.6391  -48.8405 C.2       12 UNK         0.5000 
     73 O          -2.4405  -25.3198  -49.4999 O.2       12 UNK        -0.5000 
     74 N          -2.0432  -23.8983  -47.7895 N.am      13 UNK        -0.5000 
     75 CA         -3.4300  -23.6764  -47.3488 C.3       13 UNK         0.1400 
     76 CB         -3.4372  -22.6504  -46.2064 C.3       13 UNK        -0.1800 
     77 C          -4.2123  -24.9374  -46.9245 C.2       13 UNK         0.5000 
     78 O          -5.4348  -24.8706  -46.7892 O.2       13 UNK        -0.5000 
     79 N          -3.5125  -26.0635  -46.7312 N.am      14 UNK        -0.5000 
     80 CA         -4.1006  -27.3911  -46.5407 C.3       14 UNK         0.1400 
     81 CB         -2.9940  -28.3635  -46.1041 C.3       14 UNK        -0.1800 
     82 C          -4.8224  -27.9226  -47.7993 C.2       14 UNK         0.5000 
     83 O          -5.6819  -28.7964  -47.6759 O.2       14 UNK        -0.5000 
     84 N          -4.4685  -27.3880  -48.9743 N.am      15 UNK        -0.5000 
     85 CA         -5.1011  -27.6439  -50.2626 C.3       15 UNK         0.1400 
     86 CB         -4.0190  -28.1470  -51.2347 C.3       15 UNK        -0.1800 
     87 C          -5.7408  -26.3471  -50.7905 C.2       15 UNK         0.5000 
     88 O          -5.5340  -25.2695  -50.2292 O.2       15 UNK        -0.5000 
     89 N          -6.4884  -26.4681  -51.8942 N.am      16 UNK        -0.5000 
     90 CA         -7.0755  -25.3401  -52.6263 C.3       16 UNK         0.1400 
     91 CB         -8.2624  -25.8560  -53.4552 C.3       16 UNK        -0.1800 
     92 C          -6.0617  -24.6065  -53.5321 C.2       16 UNK         0.5000 
     93 O          -6.3978  -23.5557  -54.0819 O.2       16 UNK        -0.5000 
     94 N          -4.8549  -25.1727  -53.6804 N.am      17 UNK        -0.5000 
     95 CA         -3.7490  -24.6927  -54.5097 C.3       17 UNK         0.1400 
     96 CB         -2.5308  -25.5984  -54.2726 C.3       17 UNK        -0.1800 
     97 C          -3.3740  -23.2219  -54.2502 C.2       17 UNK         0.5000 
     98 O          -3.3024  -22.8016  -53.0931 O.2       17 UNK        -0.5000 
     99 N          -3.1433  -22.4778  -55.3414 N.am      18 UNK        -0.5000 
    100 CA        -2.7843  -21.0551  -55.3766 C.3       18 UNK         0.1400 
    101 CB        -1.3497  -20.8504  -54.8441 C.3       18 UNK        -0.1800 
    102 C         -3.8200  -20.1560  -54.6680 C.2       18 UNK         0.5000 
    103 O         -3.4369  -19.2487  -53.9310 O.2       18 UNK        -0.5000 
    104 N         -5.1128  -20.4516  -54.8787 N.am      19 UNK        -0.5000 
    105 CA        -6.2749  -19.8217  -54.2364 C.3       19 UNK         0.1400 
    106 CB        -6.4101  -18.3440  -54.6626 C.3       19 UNK        -0.1800 
    107 C         -6.2537  -20.0116  -52.7053 C.2       19 UNK         0.5000 
    108 O         -6.3644  -19.0414  -51.9519 O.2       19 UNK        -0.5000 
    109 N         -6.0619  -21.2725  -52.2901 N.am      20 UNK        -0.5000 
    110 CA        -5.8719  -21.7413  -50.9128 C.3       20 UNK         0.1400 
    111 CB        -7.1984  -21.6738  -50.1303 C.3       20 UNK        -0.1800 
    112 C         -4.7062  -21.0200  -50.2062 C.2       20 UNK         0.5000 
    113 O         -4.8600  -20.5406  -49.0819 O.2       20 UNK        -0.5000 
    114 N         -3.5733  -20.9392  -50.9176 N.am      21 UNK        -0.5000 
    115 CA        -2.3649  -20.1874  -50.5852 C.3       21 UNK         0.1400 
    116 CB        -1.6360  -20.8183  -49.3880 C.3       21 UNK        -0.1800 
    117 C         -2.6289  -18.6804  -50.3983 C.2       21 UNK         0.5000 
    118 O         -2.3253  -18.1240  -49.3418 O.2       21 UNK        -0.5000 
    119 N         -3.1499  -18.0478  -51.4567 N.am      22 UNK        -0.5000 
    120 CA        -3.3833  -16.6011  -51.5677 C.3       22 UNK         0.1400 
    121 C         -4.4257  -16.0652  -50.5393 C.2       22 UNK         0.5000 
    122 N         -5.5127  -16.7893  -50.2998 N.am      22 UNK        -0.7600 
    123 O         -4.2744  -14.9867  -49.9711 O.2       22 UNK        -0.5000 
    124 C124       -2.0475  -15.7978  -51.6160 C.3       23 UNK        -0.0398 
    125 S125       -1.2121  -15.9133  -53.2377 S.3       23 UNK        -0.2404 
    126 C126       -0.2153  -17.4366  -53.1221 C.3       23 UNK        -0.0205 
    127 H127       -0.9298  -15.8364  -47.5317 H         1 UNK         0.0600 
    128 H128        0.7664  -16.3071  -47.3857 H         1 UNK         0.0600 
    129 H129       -0.0671  -16.4429  -48.9366 H         1 UNK         0.0600 
    130 H130        1.7974  -15.0834  -49.7729 H         1 UNK         0.3000 
    131 H131        0.9736  -12.4495  -50.1987 H         1 UNK         0.0600 
    132 H132        2.2665  -13.6291  -51.8742 H         1 UNK         0.0800 
    133 H133        3.0773  -12.1552  -51.4644 H         1 UNK         0.0800 
    134 H134        4.2025  -15.0729  -52.8867 H         1 UNK         0.0800 
    135 H135        5.2014  -16.0134  -51.8082 H         1 UNK         0.0800 
    136 H136        2.0058  -15.8774  -53.3325 H         1 UNK         0.1150 
    137 H137        0.1573  -18.7550  -50.7580 H         1 UNK         0.1150 
    138 H138        3.9600  -17.0933  -49.7125 H         1 UNK         0.1150 
    139 H139        2.7888  -18.4336  -48.1076 H         1 UNK         0.0800 
    140 H140        1.0634  -18.5982  -48.3083 H         1 UNK         0.0800 
    141 H141        0.5065  -21.0401  -47.3809 H         1 UNK         0.0800 
    142 H142        1.9302  -20.3515  -46.6756 H         1 UNK         0.0800 
    143 H143        3.0324  -22.7389  -47.3278 H         1 UNK         0.0600 
    144 H144        1.3693  -22.8540  -44.9483 H         1 UNK         0.3000 
    145 H145        3.0657  -22.9729  -42.8291 H         1 UNK         0.0600 
    146 H146        3.9685  -21.0852  -41.4510 H         1 UNK         0.0600 
    147 H147        4.1704  -20.1115  -42.9065 H         1 UNK         0.0600 
    148 H148        5.1160  -21.5816  -42.6847 H         1 UNK         0.0600 
    149 H149        1.6069  -20.4150  -43.3695 H         1 UNK         0.3000 
    150 H150       -1.4317  -21.8078  -42.3770 H         1 UNK         0.0600 
    151 H151       -0.6720  -21.2381  -40.0500 H         1 UNK         0.0600 
    152 H152       -1.7309  -20.0028  -40.7103 H         1 UNK         0.0600 
    153 H153        0.0094  -19.7274  -40.6445 H         1 UNK         0.0600 
    154 H154       -0.8517  -19.0986  -42.8716 H         1 UNK         0.3000 
    155 H155       -0.3084  -19.1752  -46.3701 H         1 UNK         0.0600 
    156 H156       -2.7527  -19.3080  -46.3172 H         1 UNK         0.0600 
    157 H157       -2.2740  -17.6220  -46.3412 H         1 UNK         0.0600 
    158 H158       -2.8188  -18.3664  -44.8352 H         1 UNK         0.0600 
    159 H159       -0.6078  -16.9520  -44.7368 H         1 UNK         0.3000 
    160 H160        2.6885  -16.7817  -43.3308 H         1 UNK         0.0600 
    161 H161        1.2110  -15.0649  -45.3822 H         1 UNK         0.0600 
    162 H162        2.7211  -15.9134  -45.7112 H         1 UNK         0.0600 
    163 H163        2.6722  -14.6621  -44.4829 H         1 UNK         0.0600 
    164 H164        0.0947  -15.3517  -43.2736 H         1 UNK         0.3000 
    165 H165       -0.7410  -16.5033  -40.0541 H         1 UNK         0.0600 
    166 H166       -0.7911  -14.1028  -39.4145 H         1 UNK         0.0600 
    167 H167        0.8572  -14.7111  -39.4005 H         1 UNK         0.0600 
    168 H168        0.3081  -13.7057  -40.7340 H         1 UNK         0.0600 
    169 H169       -1.8041  -14.4634  -41.7947 H         1 UNK         0.3000 
    170 H170       -3.8192  -16.6232  -43.7696 H         1 UNK         0.0600 
    171 H171       -4.6814  -14.8252  -41.4468 H         1 UNK         0.0600 
    172 H172       -5.6956  -15.3547  -42.7898 H         1 UNK         0.0600 
    173 H173       -5.0993  -16.5252  -41.6246 H         1 UNK         0.0600 
    174 H174       -3.9080  -13.8433  -43.6285 H         1 UNK         0.3000 
    175 H175       -2.2459  -13.2770  -46.4004 H         1 UNK         0.0600 
    176 H176       -3.1901  -11.8208  -43.8689 H         1 UNK         0.0600 
    177 H177       -3.0728  -11.1200  -45.4770 H         1 UNK         0.0600 
    178 H178       -4.2123  -12.4156  -45.1775 H         1 UNK         0.0600 
    179 H179       -0.2665  -12.4007  -46.0019 H         1 UNK         0.3000 
    180 H180        1.1016  -10.6057  -43.9472 H         1 UNK         0.0600 
    181 H181        3.0292  -11.6854  -42.7214 H         1 UNK         0.0600 
    182 H182        2.1307  -13.1998  -42.6694 H         1 UNK         0.0600 
    183 H183        1.5367  -11.7820  -41.8166 H         1 UNK         0.0600 
    184 H184        1.7134  -12.8634  -45.6919 H         1 UNK         0.3000 
    185 H185        4.4325  -11.1144  -47.2272 H         1 UNK         0.0600 
    186 H186        5.6482  -13.2375  -46.9597 H         1 UNK         0.0600 
    187 H187        5.5845  -12.3902  -45.4229 H         1 UNK         0.0600 
    188 H188        4.5299  -13.7685  -45.7061 H         1 UNK         0.0600 
    189 H189        3.1647  -13.6602  -47.7410 H         1 UNK         0.3000 
    190 H190        0.9886  -22.8691  -49.1843 H         1 UNK         0.3000 
    191 H191        0.2308  -25.6216  -48.9570 H         1 UNK         0.0600 
    192 H192        1.0523  -24.5377  -51.0551 H         1 UNK         0.0600 
    193 H193       -0.4081  -23.5505  -51.1236 H         1 UNK         0.0600 
    194 H194       -0.5089  -25.2969  -51.2952 H         1 UNK         0.0600 
    195 H195       -1.3291  -23.4158  -47.2632 H         1 UNK         0.3000 
    196 H196       -3.9697  -23.2467  -48.1949 H         1 UNK         0.0600 
    197 H197       -2.9968  -21.7062  -46.5196 H         1 UNK         0.0600 
    198 H198       -2.8826  -23.0122  -45.3399 H         1 UNK         0.0600 
    199 H199       -4.4542  -22.4318  -45.8783 H         1 UNK         0.0600 
    200 H200       -2.5111  -26.0226  -46.8504 H         1 UNK         0.3000 
    201 H201       -4.8388  -27.3263  -45.7388 H         1 UNK         0.0600 
    202 H202       -2.5198  -28.0332  -45.1797 H         1 UNK         0.0600 
    203 H203       -2.2186  -28.4578  -46.8656 H         1 UNK         0.0600 
    204 H204       -3.3988  -29.3599  -45.9225 H         1 UNK         0.0600 
    205 H205       -3.7990  -26.6225  -48.9834 H         1 UNK         0.3000 
    206 H206       -5.8836  -28.3996  -50.1708 H         1 UNK         0.0600 
    207 H207       -3.2426  -27.3971  -51.3947 H         1 UNK         0.0600 
    208 H208       -3.5368  -29.0465  -50.8514 H         1 UNK         0.0600 
    209 H209       -4.4411  -28.3995  -52.2078 H         1 UNK         0.0600 
    210 H210       -6.6285  -27.3842  -52.2966 H         1 UNK         0.3000 
    211 H211       -7.4559  -24.6103  -51.9083 H         1 UNK         0.0600 
    212 H212       -7.9460  -26.5869  -54.2004 H         1 UNK         0.0600 
    213 H213       -8.7553  -25.0396  -53.9849 H         1 UNK         0.0600 
    214 H214       -9.0125  -26.3266  -52.8193 H         1 UNK         0.0600 
    215 H215       -4.6772  -26.0163  -53.1588 H         1 UNK         0.3000 
    216 H216       -4.0611  -24.7967  -55.5506 H         1 UNK         0.0600 
    217 H217       -1.6852  -25.2882  -54.8879 H         1 UNK         0.0600 
    218 H218       -2.7520  -26.6356  -54.5249 H         1 UNK         0.0600 
    219 H219       -2.2072  -25.5675  -53.2310 H         1 UNK         0.0600 
    220 H220       -3.2347  -22.9188  -56.2462 H         1 UNK         0.3000 
    221 H221       -2.7919  -20.7573  -56.4260 H         1 UNK         0.0600 
    222 H222       -1.2735  -21.0802  -53.7811 H         1 UNK         0.0600 
    223 H223       -0.6388  -21.4840  -55.3743 H         1 UNK         0.0600 
    224 H224       -1.0259  -19.8184  -54.9814 H         1 UNK         0.0600 
    225 H225       -5.3216  -21.2443  -55.4697 H         1 UNK         0.3000 
    226 H226       -7.1564  -20.3517  -54.6003 H         1 UNK         0.0600 
    227 H227       -6.4349  -18.2477  -55.7479 H         1 UNK         0.0600 
    228 H228       -7.3343  -17.9123  -54.2770 H         1 UNK         0.0600 
    229 H229       -5.5873  -17.7330  -54.2904 H         1 UNK         0.0600 
    230 H230       -5.9829  -21.9909  -53.0040 H         1 UNK         0.3000 
    231 H231       -5.5791  -22.7881  -50.9845 H         1 UNK         0.0600 
    232 H232       -7.0879  -22.1182  -49.1404 H         1 UNK         0.0600 
    233 H233       -7.9871  -22.2222  -50.6452 H         1 UNK         0.0600 
    234 H234       -7.5360  -20.6459  -49.9945 H         1 UNK         0.0600 
    235 H235       -3.5497  -21.4258  -51.8112 H         1 UNK         0.3000 
    236 H236       -1.7061  -20.2782  -51.4496 H         1 UNK         0.0600 
    237 H237       -2.2479  -20.8113  -48.4879 H         1 UNK         0.0600 
    238 H238       -1.3538  -21.8448  -49.6061 H         1 UNK         0.0600 
    239 H239       -0.7247  -20.2686  -49.1636 H         1 UNK         0.0600 
    240 H240       -3.3561  -18.5808  -52.3008 H         1 UNK         0.3000 
    241 H241       -3.8769  -16.4584  -52.5297 H         1 UNK         0.0600 
    242 H242       -5.6815  -17.6585  -50.8010 H         1 UNK         0.3800 
    243 H243       -6.1956  -16.4551  -49.6400 H         1 UNK         0.3800 
    244 H244       -1.3667  -16.0992  -50.8217 H         1 UNK         0.0800 
    245 H245       -2.2299  -14.7344  -51.4566 H         1 UNK         0.0800 
    246 H246        0.1837  -17.6575  -54.1129 H         1 UNK         0.0800 
    247 H247       -0.8578  -18.2793  -52.8706 H         1 UNK         0.0800 
@<TRIPOS>BOND
     1    1    2 1    
     2    1  127 1    
     3    1  128 1    
     4    1  129 1    
     5    2    3 2    
     6    2    4 am   BACKBONE|DICT|INTERRES
     7    4    5 1    
     8    4  130 1    
     9    5    6 1    
    10    5   65 1    
    11    5  131 1    
    12    6    7 1    
    13    6  132 1    
    14    6  133 1    
    15    7    8 1    
    16    8    9 1    
    17    8  134 1    
    18    8  135 1    
    19    9   10 ar   
    20    9   14 ar   
    21   10   11 ar   
    22   10  136 1    
    23   11   12 ar   
    24   11  126 1    
    25   12   13 ar   
    26   12  137 1    
    27   13   14 ar   
    28   13   15 1    
    29   14  138 1    
    30   15   16 1    
    31   15  139 1    
    32   15  140 1    
    33   16   17 1    
    34   17   18 1    
    35   17  141 1    
    36   17  142 1    
    37   18   19 1    
    38   18   67 1    
    39   18  143 1    
    40   19   20 am   BACKBONE|DICT|INTERRES
    41   19  144 1    
    42   20   21 2    
    43   20   22 1    
    44   22   23 1    
    45   22   24 1    
    46   22  145 1    
    47   23  146 1    
    48   23  147 1    
    49   23  148 1    
    50   24   25 am   BACKBONE|DICT|INTERRES
    51   24  149 1    
    52   25   26 2    
    53   25   27 1    
    54   27   28 1    
    55   27   29 1    
    56   27  150 1    
    57   28  151 1    
    58   28  152 1    
    59   28  153 1    
    60   29   30 am   BACKBONE|DICT|INTERRES
    61   29  154 1    
    62   30   31 2    
    63   30   32 1    
    64   32   33 1    
    65   32   34 1    
    66   32  155 1    
    67   33  156 1    
    68   33  157 1    
    69   33  158 1    
    70   34   35 am   BACKBONE|DICT|INTERRES
    71   34  159 1    
    72   35   36 2    
    73   35   37 1    
    74   37   38 1    
    75   37   39 1    
    76   37  160 1    
    77   38  161 1    
    78   38  162 1    
    79   38  163 1    
    80   39   40 am   BACKBONE|DICT|INTERRES
    81   39  164 1    
    82   40   41 2    
    83   40   42 1    
    84   42   43 1    
    85   42   44 1    
    86   42  165 1    
    87   43  166 1    
    88   43  167 1    
    89   43  168 1    
    90   44   45 am   BACKBONE|DICT|INTERRES
    91   44  169 1    
    92   45   46 2    
    93   45   47 1    
    94   47   48 1    
    95   47   49 1    
    96   47  170 1    
    97   48  171 1    
    98   48  172 1    
    99   48  173 1    
   100   49   50 am   BACKBONE|DICT|INTERRES
   101   49  174 1    
   102   50   51 2    
   103   50   52 1    
   104   52   53 1    
   105   52   54 1    
   106   52  175 1    
   107   53  176 1    
   108   53  177 1    
   109   53  178 1    
   110   54   55 am   BACKBONE|DICT|INTERRES
   111   54  179 1    
   112   55   56 2    
   113   55   57 1    
   114   57   58 1    
   115   57   59 1    
   116   57  180 1    
   117   58  181 1    
   118   58  182 1    
   119   58  183 1    
   120   59   60 am   BACKBONE|DICT|INTERRES
   121   59  184 1    
   122   60   61 2    
   123   60   62 1    
   124   62   63 1    
   125   62   64 1    
   126   62  185 1    
   127   63  186 1    
   128   63  187 1    
   129   63  188 1    
   130   64   65 am   BACKBONE|DICT|INTERRES
   131   64  189 1    
   132   65   66 2    
   133   67   68 2    
   134   67   69 am   BACKBONE|DICT|INTERRES
   135   69   70 1    
   136   69  190 1    
   137   70   71 1    
   138   70   72 1    
   139   70  191 1    
   140   71  192 1    
   141   71  193 1    
   142   71  194 1    
   143   72   73 2    
   144   72   74 am   BACKBONE|DICT|INTERRES
   145   74   75 1    
   146   74  195 1    
   147   75   76 1    
   148   75   77 1    
   149   75  196 1    
   150   76  197 1    
   151   76  198 1    
   152   76  199 1    
   153   77   78 2    
   154   77   79 am   BACKBONE|DICT|INTERRES
   155   79   80 1    
   156   79  200 1    
   157   80   81 1    
   158   80   82 1    
   159   80  201 1    
   160   81  202 1    
   161   81  203 1    
   162   81  204 1    
   163   82   83 2    
   164   82   84 am   BACKBONE|DICT|INTERRES
   165   84   85 1    
   166   84  205 1    
   167   85   86 1    
   168   85   87 1    
   169   85  206 1    
   170   86  207 1    
   171   86  208 1    
   172   86  209 1    
   173   87   88 2    
   174   87   89 am   BACKBONE|DICT|INTERRES
   175   89   90 1    
   176   89  210 1    
   177   90   91 1    
   178   90   92 1    
   179   90  211 1    
   180   91  212 1    
   181   91  213 1    
   182   91  214 1    
   183   92   93 2    
   184   92   94 am   BACKBONE|DICT|INTERRES
   185   94   95 1    
   186   94  215 1    
   187   95   96 1    
   188   95   97 1    
   189   95  216 1    
   190   96  217 1    
   191   96  218 1    
   192   96  219 1    
   193   97   98 2    
   194   97   99 am   BACKBONE|DICT|INTERRES
   195   99  100 1    
   196   99  220 1    
   197  100  101 1    
   198  100  102 1    
   199  100  221 1    
   200  101  222 1    
   201  101  223 1    
   202  101  224 1    
   203  102  103 2    
   204  102  104 am   BACKBONE|DICT|INTERRES
   205  104  105 1    
   206  104  225 1    
   207  105  106 1    
   208  105  107 1    
   209  105  226 1    
   210  106  227 1    
   211  106  228 1    
   212  106  229 1    
   213  107  108 2    
   214  107  109 am   BACKBONE|DICT|INTERRES
   215  109  110 1    
   216  109  230 1    
   217  110  111 1    
   218  110  112 1    
   219  110  231 1    
   220  111  232 1    
   221  111  233 1    
   222  111  234 1    
   223  112  113 2    
   224  112  114 am   BACKBONE|DICT|INTERRES
   225  114  115 1    
   226  114  235 1    
   227  115  116 1    
   228  115  117 1    
   229  115  236 1    
   230  116  237 1    
   231  116  238 1    
   232  116  239 1    
   233  117  118 2    
   234  117  119 am   BACKBONE|DICT|INTERRES
   235  119  120 1    
   236  119  240 1    
   237  120  121 1    
   238  120  124 1    
   239  120  241 1    
   240  121  122 am   BACKBONE|DICT|INTERRES
   241  121  123 2    
   242  122  242 1    
   243  122  243 1    
   244  124  125 1    
   245  124  244 1    
   246  124  245 1    
   247  125  126 1    
   248  126  246 1    
   249  126  247 1    
@<TRIPOS>SUBSTRUCTURE
     1 UNK         1 GROUP             0       ****    0 ROOT    
