@<TRIPOS>MOLECULE
3R540
247   249    1
SMALL
USER_CHARGES


@<TRIPOS>ATOM
      1 CA          2.8600  -10.3434  -47.5408 C.3       0 UNK        -0.1800 
      2 C           2.2105  -11.6840  -47.2298 C.2       0 UNK         0.5000 
      3 O           2.8938  -12.6116  -46.7969 O.2       0 UNK        -0.5000 
      4 N           0.8891  -11.7824  -47.4293 N.am      1 UNK        -0.5000 
      5 CA          0.0829  -13.0005  -47.2485 C.3       1 UNK         0.1400 
      6 C6         -1.3343  -12.8546  -47.8655 C.3       23 UNK        -0.0398 
      7 S7         -1.3166  -12.4155  -49.6434 S.3       23 UNK        -0.2404 
      8 C8         -2.5012  -13.6102  -50.3671 C.3       23 UNK        -0.0205 
      9 C9         -1.8827  -14.9305  -50.8300 C.ar      23 UNK        -0.0193 
     10 C10        -2.3670  -15.5568  -51.9835 C.ar      23 UNK        -0.1150 
     11 C11        -1.8229  -16.7686  -52.4240 C.ar      23 UNK        -0.0193 
     12 C12        -0.7986  -17.3688  -51.6856 C.ar      23 UNK        -0.1150 
     13 C13        -0.3114  -16.7687  -50.5210 C.ar      23 UNK        -0.0193 
     14 C14        -0.8525  -15.5450  -50.1143 C.ar      23 UNK        -0.1150 
     15 C15         0.8198  -17.4480  -49.7491 C.3       23 UNK        -0.0205 
     16 S16         0.9310  -17.0300  -47.9695 S.3       23 UNK        -0.2404 
     17 C17        -0.7121  -17.5146  -47.3269 C.3       23 UNK        -0.0398 
     18 CA         -0.9190  -19.0419  -47.3140 C.3       11 UNK         0.1400 
     19 N           0.0021  -19.7327  -46.4132 N.am      11 UNK        -0.5000 
     20 C           0.2829  -21.0377  -46.4929 C.2       10 UNK         0.5000 
     21 O          -0.2112  -21.7862  -47.3357 O.2       10 UNK        -0.5000 
     22 CA          1.2431  -21.6091  -45.4353 C.3       10 UNK         0.1400 
     23 CB          2.7018  -21.2803  -45.7864 C.3       10 UNK        -0.1800 
     24 N           0.9399  -21.1348  -44.0843 N.am      10 UNK        -0.5000 
     25 C          -0.1979  -21.4037  -43.4281 C.2       9 UNK         0.5000 
     26 O          -1.1020  -22.1031  -43.8879 O.2       9 UNK        -0.5000 
     27 CA         -0.3716  -20.7540  -42.0423 C.3       9 UNK         0.1400 
     28 CB          0.4335  -21.5131  -40.9769 C.3       9 UNK        -0.1800 
     29 N           0.0029  -19.3391  -42.0255 N.am      9 UNK        -0.5000 
     30 C          -0.6195  -18.3822  -42.7295 C.2       8 UNK         0.5000 
     31 O          -1.5997  -18.5869  -43.4421 O.2       8 UNK        -0.5000 
     32 CA         -0.0165  -16.9680  -42.6741 C.3       8 UNK         0.1400 
     33 CB         -0.4078  -16.2571  -41.3693 C.3       8 UNK        -0.1800 
     34 N           1.4385  -16.9717  -42.8184 N.am      8 UNK        -0.5000 
     35 C           2.1019  -17.4667  -43.8732 C.2       7 UNK         0.5000 
     36 O           1.5565  -17.9630  -44.8551 O.2       7 UNK        -0.5000 
     37 CA          3.6352  -17.4773  -43.7820 C.3       7 UNK         0.1400 
     38 CB          4.2180  -16.0833  -44.0649 C.3       7 UNK        -0.1800 
     39 N           4.0906  -17.9625  -42.4792 N.am      7 UNK        -0.5000 
     40 C           3.9247  -19.2202  -42.0424 C.2       6 UNK         0.5000 
     41 O           3.4118  -20.1175  -42.7114 O.2       6 UNK        -0.5000 
     42 CA          4.3695  -19.5107  -40.5979 C.3       6 UNK         0.1400 
     43 CB          5.8804  -19.7808  -40.5384 C.3       6 UNK        -0.1800 
     44 N           4.0337  -18.4198  -39.6817 N.am      6 UNK        -0.5000 
     45 C           2.7833  -18.0773  -39.3403 C.2       5 UNK         0.5000 
     46 O           1.7794  -18.6718  -39.7330 O.2       5 UNK        -0.5000 
     47 CA          2.6319  -16.8262  -38.4530 C.3       5 UNK         0.1400 
     48 CB          2.8018  -17.1894  -36.9704 C.3       5 UNK        -0.1800 
     49 N           3.5678  -15.7515  -38.8045 N.am      5 UNK        -0.5000 
     50 C           3.5881  -15.1341  -39.9922 C.2       4 UNK         0.5000 
     51 O           2.8227  -15.4169  -40.9185 O.2       4 UNK        -0.5000 
     52 CA          4.6578  -14.0544  -40.2036 C.3       4 UNK         0.1400 
     53 CB          6.0501  -14.6826  -40.3926 C.3       4 UNK        -0.1800 
     54 N           4.2877  -13.3120  -41.3998 N.am      4 UNK        -0.5000 
     55 C           4.6255  -12.0597  -41.7148 C.2       3 UNK         0.5000 
     56 O           5.3811  -11.3626  -41.0367 O.2       3 UNK        -0.5000 
     57 CA          4.0091  -11.4866  -43.0095 C.3       3 UNK         0.1400 
     58 CB          5.0306  -11.5533  -44.1553 C.3       3 UNK        -0.1800 
     59 N           2.7749  -12.1599  -43.4370 N.am      3 UNK        -0.5000 
     60 C           1.6117  -12.1335  -42.7678 C.2       2 UNK         0.5000 
     61 O           1.4461  -11.5107  -41.7183 O.2       2 UNK        -0.5000 
     62 CA          0.4473  -12.9162  -43.3982 C.3       2 UNK         0.1400 
     63 CB         -0.9144  -12.6471  -42.7293 C.3       2 UNK        -0.1800 
     64 N           0.3736  -12.6162  -44.8246 N.am      2 UNK        -0.5000 
     65 C          -0.0180  -13.4708  -45.7770 C.2       1 UNK         0.5000 
     66 O          -0.4504  -14.5965  -45.5347 O.2       1 UNK        -0.5000 
     67 C          -2.3907  -19.4167  -47.0551 C.2       11 UNK         0.5000 
     68 O          -3.1613  -19.4656  -48.0117 O.2       11 UNK        -0.5000 
     69 N          -2.7617  -19.7315  -45.8051 N.am      12 UNK        -0.5000 
     70 CA         -4.0733  -20.2890  -45.4641 C.3       12 UNK         0.1400 
     71 CB         -4.2616  -20.3243  -43.9405 C.3       12 UNK        -0.1800 
     72 C          -4.2830  -21.6856  -46.0756 C.2       12 UNK         0.5000 
     73 O          -5.3597  -21.9582  -46.6063 O.2       12 UNK        -0.5000 
     74 N          -3.2366  -22.5243  -46.0446 N.am      13 UNK        -0.5000 
     75 CA         -3.2114  -23.8230  -46.7183 C.3       13 UNK         0.1400 
     76 CB         -1.9742  -24.6198  -46.2791 C.3       13 UNK        -0.1800 
     77 C          -3.2794  -23.6880  -48.2517 C.2       13 UNK         0.5000 
     78 O          -4.0086  -24.4467  -48.8901 O.2       13 UNK        -0.5000 
     79 N          -2.5686  -22.6981  -48.8132 N.am      14 UNK        -0.5000 
     80 CA         -2.6218  -22.3533  -50.2358 C.3       14 UNK         0.1400 
     81 CB         -1.5439  -21.3133  -50.5786 C.3       14 UNK        -0.1800 
     82 C          -4.0143  -21.8639  -50.6746 C.2       14 UNK         0.5000 
     83 O          -4.5068  -22.2980  -51.7130 O.2       14 UNK        -0.5000 
     84 N          -4.6501  -21.0147  -49.8567 N.am      15 UNK        -0.5000 
     85 CA         -6.0147  -20.5303  -50.0653 C.3       15 UNK         0.1400 
     86 CB         -6.3277  -19.4172  -49.0547 C.3       15 UNK        -0.1800 
     87 C          -7.0668  -21.6532  -49.9907 C.2       15 UNK         0.5000 
     88 O          -8.0129  -21.6429  -50.7781 O.2       15 UNK        -0.5000 
     89 N          -6.8693  -22.6144  -49.0762 N.am      16 UNK        -0.5000 
     90 CA         -7.6956  -23.8160  -48.9420 C.3       16 UNK         0.1400 
     91 CB         -7.3671  -24.5253  -47.6196 C.3       16 UNK        -0.1800 
     92 C          -7.5447  -24.7780  -50.1366 C.2       16 UNK         0.5000 
     93 O          -8.5425  -25.3398  -50.5902 O.2       16 UNK        -0.5000 
     94 N          -6.3116  -24.9297  -50.6420 N.am      17 UNK        -0.5000 
     95 CA         -5.9941  -25.6795  -51.8616 C.3       17 UNK         0.1400 
     96 CB         -4.4756  -25.9008  -51.9346 C.3       17 UNK        -0.1800 
     97 C          -6.5027  -24.9885  -53.1439 C.2       17 UNK         0.5000 
     98 O          -6.7585  -25.6674  -54.1395 O.2       17 UNK        -0.5000 
     99 N          -6.6450  -23.6576  -53.0873 N.am      18 UNK        -0.5000 
    100 CA        -7.0976  -22.7540  -54.1416 C.3       18 UNK         0.1400 
    101 CB        -8.5797  -23.0156  -54.4916 C.3       18 UNK        -0.1800 
    102 C         -6.1342  -22.7845  -55.3425 C.2       18 UNK         0.5000 
    103 O         -4.9245  -22.6689  -55.1403 O.2       18 UNK        -0.5000 
    104 N         -6.6644  -22.9515  -56.5615 N.am      19 UNK        -0.5000 
    105 CA        -5.9321  -22.9396  -57.8333 C.3       19 UNK         0.1400 
    106 CB        -6.9428  -23.0758  -58.9826 C.3       19 UNK        -0.1800 
    107 C         -4.8186  -24.0007  -57.9666 C.2       19 UNK         0.5000 
    108 O         -3.9506  -23.8540  -58.8274 O.2       19 UNK        -0.5000 
    109 N         -4.8441  -25.0362  -57.1155 N.am      20 UNK        -0.5000 
    110 CA        -3.7926  -26.0480  -57.0080 C.3       20 UNK         0.1400 
    111 CB        -4.3228  -27.2357  -56.1910 C.3       20 UNK        -0.1800 
    112 C         -2.4833  -25.5090  -56.3926 C.2       20 UNK         0.5000 
    113 O         -1.4311  -26.1076  -56.6207 O.2       20 UNK        -0.5000 
    114 N         -2.5627  -24.4063  -55.6346 N.am      21 UNK        -0.5000 
    115 CA        -1.4219  -23.7295  -55.0186 C.3       21 UNK         0.1400 
    116 CB        -1.5835  -23.7501  -53.4928 C.3       21 UNK        -0.1800 
    117 C         -1.3085  -22.2905  -55.5424 C.2       21 UNK         0.5000 
    118 O         -0.2523  -21.9067  -56.0473 O.2       21 UNK        -0.5000 
    119 N         -2.4063  -21.5310  -55.4562 N.am      22 UNK        -0.5000 
    120 CA        -2.5580  -20.1707  -55.9909 C.3       22 UNK         0.1400 
    121 C         -2.8203  -20.1847  -57.5261 C.2       22 UNK         0.5000 
    122 N         -1.9260  -20.7665  -58.3135 N.am      22 UNK        -0.7600 
    123 O         -3.8282  -19.6790  -58.0130 O.2       22 UNK        -0.5000 
    124 C124       -3.6234  -19.3623  -55.2004 C.3       23 UNK        -0.0398 
    125 S125       -3.1230  -19.0061  -53.4797 S.3       23 UNK        -0.2404 
    126 C126       -2.3015  -17.3979  -53.7255 C.3       23 UNK        -0.0205 
    127 H127        3.7401  -10.4887  -48.1672 H         1 UNK         0.0600 
    128 H128        2.1769   -9.6760  -48.0668 H         1 UNK         0.0600 
    129 H129        3.1725   -9.8538  -46.6187 H         1 UNK         0.0600 
    130 H130        0.3863  -10.9850  -47.7929 H         1 UNK         0.3000 
    131 H131        0.6053  -13.7986  -47.7779 H         1 UNK         0.0600 
    132 H132       -1.9006  -12.0863  -47.3361 H         1 UNK         0.0800 
    133 H133       -1.8960  -13.7817  -47.7367 H         1 UNK         0.0800 
    134 H134       -3.3027  -13.8184  -49.6574 H         1 UNK         0.0800 
    135 H135       -2.9744  -13.1171  -51.2177 H         1 UNK         0.0800 
    136 H136       -3.1611  -15.0909  -52.5500 H         1 UNK         0.1150 
    137 H137       -0.3762  -18.3037  -52.0270 H         1 UNK         0.1150 
    138 H138       -0.4718  -15.0701  -49.2280 H         1 UNK         0.1150 
    139 H139        0.7444  -18.5310  -49.8524 H         1 UNK         0.0800 
    140 H140        1.7628  -17.1673  -50.2194 H         1 UNK         0.0800 
    141 H141       -1.4837  -17.0226  -47.9196 H         1 UNK         0.0800 
    142 H142       -0.8128  -17.1182  -46.3153 H         1 UNK         0.0800 
    143 H143       -0.7036  -19.4012  -48.3199 H         1 UNK         0.0600 
    144 H144        0.4911  -19.1541  -45.7315 H         1 UNK         0.3000 
    145 H145        1.1306  -22.6952  -45.4400 H         1 UNK         0.0600 
    146 H146        3.3910  -21.7517  -45.0857 H         1 UNK         0.0600 
    147 H147        2.9541  -21.6406  -46.7844 H         1 UNK         0.0600 
    148 H148        2.8894  -20.2064  -45.7673 H         1 UNK         0.0600 
    149 H149        1.6502  -20.5693  -43.6305 H         1 UNK         0.3000 
    150 H150       -1.4287  -20.8203  -41.7772 H         1 UNK         0.0600 
    151 H151        0.1631  -22.5696  -40.9614 H         1 UNK         0.0600 
    152 H152        0.2423  -21.1133  -39.9809 H         1 UNK         0.0600 
    153 H153        1.5064  -21.4501  -41.1608 H         1 UNK         0.0600 
    154 H154        0.7805  -19.0795  -41.4267 H         1 UNK         0.3000 
    155 H155       -0.4267  -16.3985  -43.5099 H         1 UNK         0.0600 
    156 H156       -0.0531  -16.7987  -40.4927 H         1 UNK         0.0600 
    157 H157       -1.4916  -16.1698  -41.2850 H         1 UNK         0.0600 
    158 H158        0.0048  -15.2500  -41.3236 H         1 UNK         0.0600 
    159 H159        1.9706  -16.5595  -42.0556 H         1 UNK         0.3000 
    160 H160        4.0115  -18.1608  -44.5462 H         1 UNK         0.0600 
    161 H161        5.3072  -16.0935  -44.0246 H         1 UNK         0.0600 
    162 H162        3.8627  -15.3402  -43.3535 H         1 UNK         0.0600 
    163 H163        3.9324  -15.7401  -45.0603 H         1 UNK         0.0600 
    164 H164        4.4779  -17.2790  -41.8476 H         1 UNK         0.3000 
    165 H165        3.8480  -20.4101  -40.2631 H         1 UNK         0.0600 
    166 H166        6.1909  -20.0615  -39.5319 H         1 UNK         0.0600 
    167 H167        6.1559  -20.6008  -41.2029 H         1 UNK         0.0600 
    168 H168        6.4601  -18.9066  -40.8375 H         1 UNK         0.0600 
    169 H169        4.8005  -17.8781  -39.3117 H         1 UNK         0.3000 
    170 H170        1.6187  -16.4445  -38.5948 H         1 UNK         0.0600 
    171 H171        2.1042  -17.9759  -36.6791 H         1 UNK         0.0600 
    172 H172        3.8092  -17.5476  -36.7548 H         1 UNK         0.0600 
    173 H173        2.6061  -16.3299  -36.3290 H         1 UNK         0.0600 
    174 H174        4.2261  -15.4728  -38.0910 H         1 UNK         0.3000 
    175 H175        4.6573  -13.3861  -39.3401 H         1 UNK         0.0600 
    176 H176        6.0735  -15.3586  -41.2483 H         1 UNK         0.0600 
    177 H177        6.8091  -13.9169  -40.5536 H         1 UNK         0.0600 
    178 H178        6.3499  -15.2524  -39.5125 H         1 UNK         0.0600 
    179 H179        3.6067  -13.7923  -41.9732 H         1 UNK         0.3000 
    180 H180        3.7731  -10.4373  -42.8208 H         1 UNK         0.0600 
    181 H181        5.2725  -12.5841  -44.4178 H         1 UNK         0.0600 
    182 H182        5.9620  -11.0562  -43.8810 H         1 UNK         0.0600 
    183 H183        4.6540  -11.0597  -45.0505 H         1 UNK         0.0600 
    184 H184        2.8234  -12.6715  -44.3088 H         1 UNK         0.3000 
    185 H185        0.6925  -13.9720  -43.2673 H         1 UNK         0.0600 
    186 H186       -0.8810  -12.8727  -41.6629 H         1 UNK         0.0600 
    187 H187       -1.2142  -11.6043  -42.8380 H         1 UNK         0.0600 
    188 H188       -1.6967  -13.2687  -43.1651 H         1 UNK         0.0600 
    189 H189        0.7180  -11.7090  -45.1068 H         1 UNK         0.3000 
    190 H190       -2.1108  -19.5932  -45.0376 H         1 UNK         0.3000 
    191 H191       -4.8369  -19.6284  -45.8798 H         1 UNK         0.0600 
    192 H192       -3.4945  -20.9240  -43.4510 H         1 UNK         0.0600 
    193 H193       -5.2301  -20.7507  -43.6766 H         1 UNK         0.0600 
    194 H194       -4.2242  -19.3209  -43.5167 H         1 UNK         0.0600 
    195 H195       -2.3950  -22.2432  -45.5533 H         1 UNK         0.3000 
    196 H196       -4.0951  -24.3786  -46.3978 H         1 UNK         0.0600 
    197 H197       -1.0467  -24.1256  -46.5658 H         1 UNK         0.0600 
    198 H198       -1.9700  -25.6113  -46.7331 H         1 UNK         0.0600 
    199 H199       -1.9579  -24.7562  -45.1976 H         1 UNK         0.0600 
    200 H200       -1.9326  -22.1637  -48.2298 H         1 UNK         0.3000 
    201 H201       -2.3979  -23.2658  -50.7900 H         1 UNK         0.0600 
    202 H202       -1.7611  -20.3437  -50.1329 H         1 UNK         0.0600 
    203 H203       -1.4859  -21.1606  -51.6569 H         1 UNK         0.0600 
    204 H204       -0.5582  -21.6316  -50.2393 H         1 UNK         0.0600 
    205 H205       -4.1515  -20.6415  -49.0524 H         1 UNK         0.3000 
    206 H206       -6.0616  -20.0996  -51.0679 H         1 UNK         0.0600 
    207 H207       -7.3324  -19.0214  -49.2079 H         1 UNK         0.0600 
    208 H208       -6.2690  -19.7776  -48.0276 H         1 UNK         0.0600 
    209 H209       -5.6307  -18.5853  -49.1575 H         1 UNK         0.0600 
    210 H210       -6.1027  -22.5114  -48.4191 H         1 UNK         0.3000 
    211 H211       -8.7401  -23.4998  -48.9022 H         1 UNK         0.0600 
    212 H212       -6.3305  -24.8599  -47.5863 H         1 UNK         0.0600 
    213 H213       -7.9996  -25.4028  -47.4805 H         1 UNK         0.0600 
    214 H214       -7.5326  -23.8661  -46.7673 H         1 UNK         0.0600 
    215 H215       -5.5313  -24.4907  -50.1626 H         1 UNK         0.3000 
    216 H216       -6.4789  -26.6557  -51.7983 H         1 UNK         0.0600 
    217 H217       -4.2033  -26.4813  -52.8162 H         1 UNK         0.0600 
    218 H218       -4.1140  -26.4448  -51.0619 H         1 UNK         0.0600 
    219 H219       -3.9363  -24.9555  -51.9847 H         1 UNK         0.0600 
    220 H220       -6.2640  -23.1949  -52.2697 H         1 UNK         0.3000 
    221 H221       -7.0279  -21.7482  -53.7249 H         1 UNK         0.0600 
    222 H222       -8.7313  -23.9945  -54.9477 H         1 UNK         0.0600 
    223 H223       -9.1994  -22.9721  -53.5955 H         1 UNK         0.0600 
    224 H224       -8.9634  -22.2610  -55.1791 H         1 UNK         0.0600 
    225 H225       -7.6650  -23.0681  -56.6288 H         1 UNK         0.3000 
    226 H226       -5.4497  -21.9643  -57.9185 H         1 UNK         0.0600 
    227 H227       -7.6749  -22.2682  -58.9633 H         1 UNK         0.0600 
    228 H228       -6.4433  -23.0343  -59.9515 H         1 UNK         0.0600 
    229 H229       -7.4827  -24.0222  -58.9317 H         1 UNK         0.0600 
    230 H230       -5.5899  -25.0825  -56.4342 H         1 UNK         0.3000 
    231 H231       -3.5597  -26.4052  -58.0133 H         1 UNK         0.0600 
    232 H232       -5.2192  -27.6592  -56.6443 H         1 UNK         0.0600 
    233 H233       -4.5693  -26.9426  -55.1709 H         1 UNK         0.0600 
    234 H234       -3.5805  -28.0328  -56.1326 H         1 UNK         0.0600 
    235 H235       -3.4649  -23.9537  -55.5254 H         1 UNK         0.3000 
    236 H236       -0.4880  -24.2392  -55.2640 H         1 UNK         0.0600 
    237 H237       -0.7597  -23.2294  -53.0034 H         1 UNK         0.0600 
    238 H238       -2.5115  -23.2667  -53.1890 H         1 UNK         0.0600 
    239 H239       -1.5976  -24.7714  -53.1123 H         1 UNK         0.0600 
    240 H240       -3.2624  -21.9431  -55.0928 H         1 UNK         0.3000 
    241 H241       -1.6095  -19.6451  -55.8659 H         1 UNK         0.0600 
    242 H242       -2.0772  -20.7989  -59.3093 H         1 UNK         0.3800 
    243 H243       -1.1055  -21.1976  -57.9075 H         1 UNK         0.3800 
    244 H244       -3.8379  -18.4147  -55.6971 H         1 UNK         0.0800 
    245 H245       -4.5695  -19.9049  -55.1792 H         1 UNK         0.0800 
    246 H246       -1.4455  -17.5304  -54.3886 H         1 UNK         0.0800 
    247 H247       -2.9870  -16.7224  -54.2396 H         1 UNK         0.0800 
@<TRIPOS>BOND
     1    1    2 1    
     2    1  127 1    
     3    1  128 1    
     4    1  129 1    
     5    2    3 2    
     6    2    4 am   BACKBONE|DICT|INTERRES
     7    4    5 1    
     8    4  130 1    
     9    5    6 1    
    10    5   65 1    
    11    5  131 1    
    12    6    7 1    
    13    6  132 1    
    14    6  133 1    
    15    7    8 1    
    16    8    9 1    
    17    8  134 1    
    18    8  135 1    
    19    9   10 ar   
    20    9   14 ar   
    21   10   11 ar   
    22   10  136 1    
    23   11   12 ar   
    24   11  126 1    
    25   12   13 ar   
    26   12  137 1    
    27   13   14 ar   
    28   13   15 1    
    29   14  138 1    
    30   15   16 1    
    31   15  139 1    
    32   15  140 1    
    33   16   17 1    
    34   17   18 1    
    35   17  141 1    
    36   17  142 1    
    37   18   19 1    
    38   18   67 1    
    39   18  143 1    
    40   19   20 am   BACKBONE|DICT|INTERRES
    41   19  144 1    
    42   20   21 2    
    43   20   22 1    
    44   22   23 1    
    45   22   24 1    
    46   22  145 1    
    47   23  146 1    
    48   23  147 1    
    49   23  148 1    
    50   24   25 am   BACKBONE|DICT|INTERRES
    51   24  149 1    
    52   25   26 2    
    53   25   27 1    
    54   27   28 1    
    55   27   29 1    
    56   27  150 1    
    57   28  151 1    
    58   28  152 1    
    59   28  153 1    
    60   29   30 am   BACKBONE|DICT|INTERRES
    61   29  154 1    
    62   30   31 2    
    63   30   32 1    
    64   32   33 1    
    65   32   34 1    
    66   32  155 1    
    67   33  156 1    
    68   33  157 1    
    69   33  158 1    
    70   34   35 am   BACKBONE|DICT|INTERRES
    71   34  159 1    
    72   35   36 2    
    73   35   37 1    
    74   37   38 1    
    75   37   39 1    
    76   37  160 1    
    77   38  161 1    
    78   38  162 1    
    79   38  163 1    
    80   39   40 am   BACKBONE|DICT|INTERRES
    81   39  164 1    
    82   40   41 2    
    83   40   42 1    
    84   42   43 1    
    85   42   44 1    
    86   42  165 1    
    87   43  166 1    
    88   43  167 1    
    89   43  168 1    
    90   44   45 am   BACKBONE|DICT|INTERRES
    91   44  169 1    
    92   45   46 2    
    93   45   47 1    
    94   47   48 1    
    95   47   49 1    
    96   47  170 1    
    97   48  171 1    
    98   48  172 1    
    99   48  173 1    
   100   49   50 am   BACKBONE|DICT|INTERRES
   101   49  174 1    
   102   50   51 2    
   103   50   52 1    
   104   52   53 1    
   105   52   54 1    
   106   52  175 1    
   107   53  176 1    
   108   53  177 1    
   109   53  178 1    
   110   54   55 am   BACKBONE|DICT|INTERRES
   111   54  179 1    
   112   55   56 2    
   113   55   57 1    
   114   57   58 1    
   115   57   59 1    
   116   57  180 1    
   117   58  181 1    
   118   58  182 1    
   119   58  183 1    
   120   59   60 am   BACKBONE|DICT|INTERRES
   121   59  184 1    
   122   60   61 2    
   123   60   62 1    
   124   62   63 1    
   125   62   64 1    
   126   62  185 1    
   127   63  186 1    
   128   63  187 1    
   129   63  188 1    
   130   64   65 am   BACKBONE|DICT|INTERRES
   131   64  189 1    
   132   65   66 2    
   133   67   68 2    
   134   67   69 am   BACKBONE|DICT|INTERRES
   135   69   70 1    
   136   69  190 1    
   137   70   71 1    
   138   70   72 1    
   139   70  191 1    
   140   71  192 1    
   141   71  193 1    
   142   71  194 1    
   143   72   73 2    
   144   72   74 am   BACKBONE|DICT|INTERRES
   145   74   75 1    
   146   74  195 1    
   147   75   76 1    
   148   75   77 1    
   149   75  196 1    
   150   76  197 1    
   151   76  198 1    
   152   76  199 1    
   153   77   78 2    
   154   77   79 am   BACKBONE|DICT|INTERRES
   155   79   80 1    
   156   79  200 1    
   157   80   81 1    
   158   80   82 1    
   159   80  201 1    
   160   81  202 1    
   161   81  203 1    
   162   81  204 1    
   163   82   83 2    
   164   82   84 am   BACKBONE|DICT|INTERRES
   165   84   85 1    
   166   84  205 1    
   167   85   86 1    
   168   85   87 1    
   169   85  206 1    
   170   86  207 1    
   171   86  208 1    
   172   86  209 1    
   173   87   88 2    
   174   87   89 am   BACKBONE|DICT|INTERRES
   175   89   90 1    
   176   89  210 1    
   177   90   91 1    
   178   90   92 1    
   179   90  211 1    
   180   91  212 1    
   181   91  213 1    
   182   91  214 1    
   183   92   93 2    
   184   92   94 am   BACKBONE|DICT|INTERRES
   185   94   95 1    
   186   94  215 1    
   187   95   96 1    
   188   95   97 1    
   189   95  216 1    
   190   96  217 1    
   191   96  218 1    
   192   96  219 1    
   193   97   98 2    
   194   97   99 am   BACKBONE|DICT|INTERRES
   195   99  100 1    
   196   99  220 1    
   197  100  101 1    
   198  100  102 1    
   199  100  221 1    
   200  101  222 1    
   201  101  223 1    
   202  101  224 1    
   203  102  103 2    
   204  102  104 am   BACKBONE|DICT|INTERRES
   205  104  105 1    
   206  104  225 1    
   207  105  106 1    
   208  105  107 1    
   209  105  226 1    
   210  106  227 1    
   211  106  228 1    
   212  106  229 1    
   213  107  108 2    
   214  107  109 am   BACKBONE|DICT|INTERRES
   215  109  110 1    
   216  109  230 1    
   217  110  111 1    
   218  110  112 1    
   219  110  231 1    
   220  111  232 1    
   221  111  233 1    
   222  111  234 1    
   223  112  113 2    
   224  112  114 am   BACKBONE|DICT|INTERRES
   225  114  115 1    
   226  114  235 1    
   227  115  116 1    
   228  115  117 1    
   229  115  236 1    
   230  116  237 1    
   231  116  238 1    
   232  116  239 1    
   233  117  118 2    
   234  117  119 am   BACKBONE|DICT|INTERRES
   235  119  120 1    
   236  119  240 1    
   237  120  121 1    
   238  120  124 1    
   239  120  241 1    
   240  121  122 am   BACKBONE|DICT|INTERRES
   241  121  123 2    
   242  122  242 1    
   243  122  243 1    
   244  124  125 1    
   245  124  244 1    
   246  124  245 1    
   247  125  126 1    
   248  126  246 1    
   249  126  247 1    
@<TRIPOS>SUBSTRUCTURE
     1 UNK         1 GROUP             0       ****    0 ROOT    
