@<TRIPOS>MOLECULE
3R540
247   249    1
SMALL
USER_CHARGES


@<TRIPOS>ATOM
      1 CA         -3.3351  -11.2005  -46.7350 C.3       0 UNK        -0.1800 
      2 C          -1.8705  -11.6086  -46.8113 C.2       0 UNK         0.5000 
      3 O          -1.2957  -11.9843  -45.7911 O.2       0 UNK        -0.5000 
      4 N          -1.2855  -11.5444  -48.0168 N.am      1 UNK        -0.5000 
      5 CA          0.1155  -11.8368  -48.3516 C.3       1 UNK         0.1400 
      6 C6          0.5907  -13.2218  -47.8361 C.3       23 UNK        -0.0398 
      7 S7          2.0574  -13.8713  -48.7066 S.3       23 UNK        -0.2404 
      8 C8          2.2460  -15.4859  -47.8842 C.3       23 UNK        -0.0205 
      9 C9          1.8059  -16.6663  -48.7418 C.ar      23 UNK        -0.0193 
     10 C10         0.5669  -16.6787  -49.3955 C.ar      23 UNK        -0.1150 
     11 C11         0.1582  -17.8020  -50.1217 C.ar      23 UNK        -0.0193 
     12 C12         1.0048  -18.9082  -50.2118 C.ar      23 UNK        -0.1150 
     13 C13         2.2335  -18.9170  -49.5477 C.ar      23 UNK        -0.0193 
     14 C14         2.6314  -17.7918  -48.8233 C.ar      23 UNK        -0.1150 
     15 C15         3.1068  -20.1620  -49.5695 C.3       23 UNK        -0.0205 
     16 S16         2.8331  -21.1933  -48.0915 S.3       23 UNK        -0.2404 
     17 C17         1.0608  -21.5817  -48.2725 C.3       23 UNK        -0.0398 
     18 CA          0.5951  -22.7189  -47.3397 C.3       11 UNK         0.1400 
     19 N           0.5811  -22.3273  -45.9272 N.am      11 UNK        -0.5000 
     20 C           0.3569  -23.1721  -44.9106 C.2       10 UNK         0.5000 
     21 O           0.1787  -24.3824  -45.0533 O.2       10 UNK        -0.5000 
     22 CA          0.2627  -22.5584  -43.5024 C.3       10 UNK         0.1400 
     23 CB          1.6551  -22.2119  -42.9544 C.3       10 UNK        -0.1800 
     24 N          -0.5986  -21.3760  -43.4625 N.am      10 UNK        -0.5000 
     25 C          -1.9119  -21.3890  -43.7348 C.2       9 UNK         0.5000 
     26 O          -2.5443  -22.4096  -44.0069 O.2       9 UNK        -0.5000 
     27 CA         -2.6370  -20.0312  -43.7463 C.3       9 UNK         0.1400 
     28 CB         -2.9907  -19.5899  -42.3184 C.3       9 UNK        -0.1800 
     29 N          -1.8718  -18.9770  -44.4121 N.am      9 UNK        -0.5000 
     30 C          -1.4851  -19.0084  -45.6954 C.2       8 UNK         0.5000 
     31 O          -1.7472  -19.9303  -46.4644 O.2       8 UNK        -0.5000 
     32 CA         -0.6006  -17.8487  -46.1824 C.3       8 UNK         0.1400 
     33 CB         -1.4282  -16.5744  -46.4084 C.3       8 UNK        -0.1800 
     34 N           0.5000  -17.5663  -45.2615 N.am      8 UNK        -0.5000 
     35 C           1.4591  -18.4463  -44.9380 C.2       7 UNK         0.5000 
     36 O           1.5420  -19.5803  -45.4072 O.2       7 UNK        -0.5000 
     37 CA          2.4506  -18.0053  -43.8498 C.3       7 UNK         0.1400 
     38 CB          3.5508  -17.1037  -44.4331 C.3       7 UNK        -0.1800 
     39 N           1.7674  -17.3201  -42.7519 N.am      7 UNK        -0.5000 
     40 C           0.9288  -17.9247  -41.8959 C.2       6 UNK         0.5000 
     41 O           0.6917  -19.1326  -41.9082 O.2       6 UNK        -0.5000 
     42 CA          0.1981  -17.0197  -40.8867 C.3       6 UNK         0.1400 
     43 CB          1.0797  -16.7579  -39.6566 C.3       6 UNK        -0.1800 
     44 N          -0.2077  -15.7415  -41.4725 N.am      6 UNK        -0.5000 
     45 C          -1.1153  -15.6050  -42.4505 C.2       5 UNK         0.5000 
     46 O          -1.7605  -16.5436  -42.9132 O.2       5 UNK        -0.5000 
     47 CA         -1.2996  -14.1938  -43.0409 C.3       5 UNK         0.1400 
     48 CB         -2.4627  -13.4651  -42.3528 C.3       5 UNK        -0.1800 
     49 N          -0.0877  -13.3774  -42.9419 N.am      5 UNK        -0.5000 
     50 C           1.0415  -13.6240  -43.6162 C.2       4 UNK         0.5000 
     51 O           1.1797  -14.5574  -44.4131 O.2       4 UNK        -0.5000 
     52 CA          2.2375  -12.7295  -43.2756 C.3       4 UNK         0.1400 
     53 CB          2.9716  -13.2863  -42.0390 C.3       4 UNK        -0.1800 
     54 N           3.1369  -12.6833  -44.4219 N.am      4 UNK        -0.5000 
     55 C           4.1382  -11.8114  -44.5882 C.2       3 UNK         0.5000 
     56 O           4.4203  -10.9292  -43.7762 O.2       3 UNK        -0.5000 
     57 CA          4.9515  -11.9344  -45.8885 C.3       3 UNK         0.1400 
     58 CB          5.3109  -13.3928  -46.2247 C.3       3 UNK        -0.1800 
     59 N           4.2195  -11.3397  -47.0041 N.am      3 UNK        -0.5000 
     60 C           4.1334  -10.0231  -47.2466 C.2       2 UNK         0.5000 
     61 O           4.7289   -9.1645  -46.5950 O.2       2 UNK        -0.5000 
     62 CA          3.2362   -9.5862  -48.4214 C.3       2 UNK         0.1400 
     63 CB          4.0730   -9.3993  -49.6964 C.3       2 UNK        -0.1800 
     64 N           2.1570  -10.5367  -48.6956 N.am      2 UNK        -0.5000 
     65 C           1.0702  -10.6963  -47.9292 C.2       1 UNK         0.5000 
     66 O           0.8312   -9.9964  -46.9428 O.2       1 UNK        -0.5000 
     67 C          -0.7742  -23.2534  -47.8003 C.2       11 UNK         0.5000 
     68 O          -0.8172  -24.2972  -48.4496 O.2       11 UNK        -0.5000 
     69 N          -1.8639  -22.5605  -47.4383 N.am      12 UNK        -0.5000 
     70 CA         -3.2379  -22.9570  -47.7473 C.3       12 UNK         0.1400 
     71 CB         -4.2196  -21.8709  -47.2841 C.3       12 UNK        -0.1800 
     72 C          -3.6125  -24.3197  -47.1422 C.2       12 UNK         0.5000 
     73 O          -4.2195  -25.1350  -47.8350 O.2       12 UNK        -0.5000 
     74 N          -3.2118  -24.5619  -45.8870 N.am      13 UNK        -0.5000 
     75 CA         -3.3919  -25.8403  -45.2008 C.3       13 UNK         0.1400 
     76 CB         -3.0291  -25.6843  -43.7162 C.3       13 UNK        -0.1800 
     77 C          -2.5817  -26.9800  -45.8458 C.2       13 UNK         0.5000 
     78 O          -3.1170  -28.0739  -46.0276 O.2       13 UNK        -0.5000 
     79 N          -1.3169  -26.7021  -46.1910 N.am      14 UNK        -0.5000 
     80 CA         -0.3967  -27.6608  -46.8029 C.3       14 UNK         0.1400 
     81 CB          1.0322  -27.0976  -46.7570 C.3       14 UNK        -0.1800 
     82 C          -0.7823  -28.0409  -48.2440 C.2       14 UNK         0.5000 
     83 O          -0.7597  -29.2238  -48.5863 O.2       14 UNK        -0.5000 
     84 N          -1.1195  -27.0362  -49.0624 N.am      15 UNK        -0.5000 
     85 CA         -1.4155  -27.1926  -50.4882 C.3       15 UNK         0.1400 
     86 CB         -0.9866  -25.9132  -51.2226 C.3       15 UNK        -0.1800 
     87 C          -2.8930  -27.5168  -50.7826 C.2       15 UNK         0.5000 
     88 O          -3.2234  -27.7652  -51.9422 O.2       15 UNK        -0.5000 
     89 N          -3.7490  -27.4967  -49.7503 N.am      16 UNK        -0.5000 
     90 CA         -5.2013  -27.7011  -49.7953 C.3       16 UNK         0.1400 
     91 CB         -5.5522  -29.1325  -50.2542 C.3       16 UNK        -0.1800 
     92 C          -5.9148  -26.5999  -50.6081 C.2       16 UNK         0.5000 
     93 O          -6.6752  -26.8923  -51.5329 O.2       16 UNK        -0.5000 
     94 N          -5.6387  -25.3461  -50.2235 N.am      17 UNK        -0.5000 
     95 CA         -6.1948  -24.0952  -50.7497 C.3       17 UNK         0.1400 
     96 CB         -7.6902  -23.9774  -50.3898 C.3       17 UNK        -0.1800 
     97 C          -5.9126  -23.8733  -52.2512 C.2       17 UNK         0.5000 
     98 O          -6.7947  -23.4316  -52.9910 O.2       17 UNK        -0.5000 
     99 N          -4.6824  -24.1897  -52.6749 N.am      18 UNK        -0.5000 
    100 CA        -4.1875  -23.9505  -54.0305 C.3       18 UNK         0.1400 
    101 CB        -2.9328  -24.8063  -54.2577 C.3       18 UNK        -0.1800 
    102 C         -3.8626  -22.4629  -54.2685 C.2       18 UNK         0.5000 
    103 O         -3.5333  -21.7501  -53.3177 O.2       18 UNK        -0.5000 
    104 N         -3.9097  -22.0592  -55.5473 N.am      19 UNK        -0.5000 
    105 CA        -3.6713  -20.7175  -56.0997 C.3       19 UNK         0.1400 
    106 CB        -2.2817  -20.1781  -55.7028 C.3       19 UNK        -0.1800 
    107 C         -4.7775  -19.7041  -55.7484 C.2       19 UNK         0.5000 
    108 O         -5.4638  -19.8410  -54.7360 O.2       19 UNK        -0.5000 
    109 N         -4.9215  -18.6673  -56.5835 N.am      20 UNK        -0.5000 
    110 CA        -5.9421  -17.6207  -56.4385 C.3       20 UNK         0.1400 
    111 CB        -5.9018  -16.7096  -57.6751 C.3       20 UNK        -0.1800 
    112 C         -5.8125  -16.7836  -55.1485 C.2       20 UNK         0.5000 
    113 O         -6.8101  -16.2387  -54.6746 O.2       20 UNK        -0.5000 
    114 N         -4.5911  -16.7018  -54.6065 N.am      21 UNK        -0.5000 
    115 CA        -4.2693  -15.9727  -53.3823 C.3       21 UNK         0.1400 
    116 CB        -2.7829  -15.5831  -53.4268 C.3       21 UNK        -0.1800 
    117 C         -4.5808  -16.7540  -52.0896 C.2       21 UNK         0.5000 
    118 O         -4.6838  -16.1212  -51.0380 O.2       21 UNK        -0.5000 
    119 N         -4.6970  -18.0879  -52.1686 N.am      22 UNK        -0.5000 
    120 CA        -4.8203  -18.9818  -51.0013 C.3       22 UNK         0.1400 
    121 C         -5.9488  -20.0460  -51.1085 C.2       22 UNK         0.5000 
    122 N         -6.5567  -20.2909  -52.2595 N.am      22 UNK        -0.7600 
    123 O         -6.3048  -20.6540  -50.1034 O.2       22 UNK        -0.5000 
    124 C124       -3.4554  -19.6331  -50.6445 C.3       23 UNK        -0.0398 
    125 S125       -2.4223  -18.5587  -49.5939 S.3       23 UNK        -0.2404 
    126 C126       -1.2182  -17.8550  -50.7628 C.3       23 UNK        -0.0205 
    127 H127       -3.7283  -10.9093  -47.7093 H         1 UNK         0.0600 
    128 H128       -3.9355  -12.0294  -46.3599 H         1 UNK         0.0600 
    129 H129       -3.4536  -10.3575  -46.0544 H         1 UNK         0.0600 
    130 H130       -1.8361  -11.2042  -48.7927 H         1 UNK         0.3000 
    131 H131        0.1264  -11.8709  -49.4424 H         1 UNK         0.0600 
    132 H132       -0.2137  -13.9437  -47.9680 H         1 UNK         0.0800 
    133 H133        0.7993  -13.1908  -46.7658 H         1 UNK         0.0800 
    134 H134        3.2966  -15.6006  -47.6175 H         1 UNK         0.0800 
    135 H135        1.6933  -15.5033  -46.9450 H         1 UNK         0.0800 
    136 H136       -0.0958  -15.8302  -49.3150 H         1 UNK         0.1150 
    137 H137        0.6833  -19.7824  -50.7602 H         1 UNK         0.1150 
    138 H138        3.5749  -17.8093  -48.2960 H         1 UNK         0.1150 
    139 H139        2.9131  -20.7510  -50.4673 H         1 UNK         0.0800 
    140 H140        4.1582  -19.8746  -49.6132 H         1 UNK         0.0800 
    141 H141        0.8908  -21.8500  -49.3171 H         1 UNK         0.0800 
    142 H142        0.4780  -20.6783  -48.0827 H         1 UNK         0.0800 
    143 H143        1.3028  -23.5448  -47.4385 H         1 UNK         0.0600 
    144 H144        0.7535  -21.3451  -45.7282 H         1 UNK         0.3000 
    145 H145       -0.1789  -23.3101  -42.8448 H         1 UNK         0.0600 
    146 H146        1.5954  -21.8547  -41.9262 H         1 UNK         0.0600 
    147 H147        2.3045  -23.0881  -42.9577 H         1 UNK         0.0600 
    148 H148        2.1437  -21.4391  -43.5478 H         1 UNK         0.0600 
    149 H149       -0.1566  -20.4976  -43.2134 H         1 UNK         0.3000 
    150 H150       -3.5683  -20.1593  -44.3013 H         1 UNK         0.0600 
    151 H151       -3.5783  -20.3536  -41.8074 H         1 UNK         0.0600 
    152 H152       -3.5819  -18.6741  -42.3243 H         1 UNK         0.0600 
    153 H153       -2.0974  -19.4069  -41.7208 H         1 UNK         0.0600 
    154 H154       -1.6502  -18.1560  -43.8542 H         1 UNK         0.3000 
    155 H155       -0.1612  -18.1504  -47.1342 H         1 UNK         0.0600 
    156 H156       -0.7930  -15.7375  -46.6906 H         1 UNK         0.0600 
    157 H157       -1.9838  -16.2832  -45.5183 H         1 UNK         0.0600 
    158 H158       -2.1533  -16.7199  -47.2091 H         1 UNK         0.0600 
    159 H159        0.5164  -16.6509  -44.8297 H         1 UNK         0.3000 
    160 H160        2.9271  -18.9019  -43.4475 H         1 UNK         0.0600 
    161 H161        3.1466  -16.1883  -44.8632 H         1 UNK         0.0600 
    162 H162        4.0944  -17.6208  -45.2248 H         1 UNK         0.0600 
    163 H163        4.2766  -16.8227  -43.6700 H         1 UNK         0.0600 
    164 H164        1.8688  -16.3173  -42.7094 H         1 UNK         0.3000 
    165 H165       -0.7019  -17.5439  -40.5585 H         1 UNK         0.0600 
    166 H166        1.9862  -16.2101  -39.9177 H         1 UNK         0.0600 
    167 H167        0.5436  -16.1808  -38.9030 H         1 UNK         0.0600 
    168 H168        1.3853  -17.6953  -39.1897 H         1 UNK         0.0600 
    169 H169        0.2647  -14.9153  -41.1385 H         1 UNK         0.3000 
    170 H170       -1.5456  -14.3064  -44.0988 H         1 UNK         0.0600 
    171 H171       -3.3846  -14.0434  -42.4292 H         1 UNK         0.0600 
    172 H172       -2.2653  -13.2984  -41.2932 H         1 UNK         0.0600 
    173 H173       -2.6489  -12.4970  -42.8186 H         1 UNK         0.0600 
    174 H174       -0.1248  -12.5911  -42.3095 H         1 UNK         0.3000 
    175 H175        1.8735  -11.7207  -43.0700 H         1 UNK         0.0600 
    176 H176        3.7962  -12.6408  -41.7375 H         1 UNK         0.0600 
    177 H177        2.3007  -13.3642  -41.1828 H         1 UNK         0.0600 
    178 H178        3.3798  -14.2798  -42.2293 H         1 UNK         0.0600 
    179 H179        2.9366  -13.3753  -45.1317 H         1 UNK         0.3000 
    180 H180        5.8877  -11.3898  -45.7471 H         1 UNK         0.0600 
    181 H181        4.4293  -13.9942  -46.4384 H         1 UNK         0.0600 
    182 H182        5.8381  -13.8657  -45.3950 H         1 UNK         0.0600 
    183 H183        5.9649  -13.4435  -47.0953 H         1 UNK         0.0600 
    184 H184        3.6896  -11.9690  -47.5889 H         1 UNK         0.3000 
    185 H185        2.7930   -8.6227  -48.1604 H         1 UNK         0.0600 
    186 H186        3.4617   -9.0273  -50.5188 H         1 UNK         0.0600 
    187 H187        4.8736   -8.6761  -49.5353 H         1 UNK         0.0600 
    188 H188        4.5349  -10.3343  -50.0162 H         1 UNK         0.0600 
    189 H189        2.2887  -11.1462  -49.4908 H         1 UNK         0.3000 
    190 H190       -1.7504  -21.6785  -46.9402 H         1 UNK         0.3000 
    191 H191       -3.3164  -23.0427  -48.8330 H         1 UNK         0.0600 
    192 H192       -3.9960  -20.9093  -47.7454 H         1 UNK         0.0600 
    193 H193       -5.2440  -22.1291  -47.5559 H         1 UNK         0.0600 
    194 H194       -4.1886  -21.7351  -46.2029 H         1 UNK         0.0600 
    195 H195       -2.7556  -23.8212  -45.3619 H         1 UNK         0.3000 
    196 H196       -4.4488  -26.1078  -45.2637 H         1 UNK         0.0600 
    197 H197       -3.1602  -26.6248  -43.1798 H         1 UNK         0.0600 
    198 H198       -3.6646  -24.9423  -43.2325 H         1 UNK         0.0600 
    199 H199       -1.9927  -25.3712  -43.5849 H         1 UNK         0.0600 
    200 H200       -0.9394  -25.7843  -45.9751 H         1 UNK         0.3000 
    201 H201       -0.4161  -28.5736  -46.2038 H         1 UNK         0.0600 
    202 H202        1.3506  -26.9162  -45.7303 H         1 UNK         0.0600 
    203 H203        1.1116  -26.1560  -47.3016 H         1 UNK         0.0600 
    204 H204        1.7435  -27.7958  -47.1998 H         1 UNK         0.0600 
    205 H205       -1.0872  -26.0792  -48.7133 H         1 UNK         0.3000 
    206 H206       -0.8190  -28.0165  -50.8855 H         1 UNK         0.0600 
    207 H207        0.0405  -25.6408  -50.9787 H         1 UNK         0.0600 
    208 H208       -1.0319  -26.0574  -52.3018 H         1 UNK         0.0600 
    209 H209       -1.6270  -25.0671  -50.9700 H         1 UNK         0.0600 
    210 H210       -3.3764  -27.2381  -48.8464 H         1 UNK         0.3000 
    211 H211       -5.5525  -27.5971  -48.7674 H         1 UNK         0.0600 
    212 H212       -5.2785  -29.3090  -51.2946 H         1 UNK         0.0600 
    213 H213       -6.6235  -29.3158  -50.1652 H         1 UNK         0.0600 
    214 H214       -5.0435  -29.8774  -49.6424 H         1 UNK         0.0600 
    215 H215       -5.0216  -25.2440  -49.4184 H         1 UNK         0.3000 
    216 H216       -5.6708  -23.2945  -50.2266 H         1 UNK         0.0600 
    217 H217       -7.8481  -24.1045  -49.3188 H         1 UNK         0.0600 
    218 H218       -8.2924  -24.7226  -50.9103 H         1 UNK         0.0600 
    219 H219       -8.0794  -22.9945  -50.6577 H         1 UNK         0.0600 
    220 H220       -4.0152  -24.5390  -52.0047 H         1 UNK         0.3000 
    221 H221       -4.9569  -24.2642  -54.7394 H         1 UNK         0.0600 
    222 H222       -2.1064  -24.4724  -53.6301 H         1 UNK         0.0600 
    223 H223       -3.1223  -25.8580  -54.0414 H         1 UNK         0.0600 
    224 H224       -2.5992  -24.7433  -55.2941 H         1 UNK         0.0600 
    225 H225       -4.1996  -22.7418  -56.2334 H         1 UNK         0.3000 
    226 H226       -3.6829  -20.8429  -57.1835 H         1 UNK         0.0600 
    227 H227       -1.4995  -20.9062  -55.9176 H         1 UNK         0.0600 
    228 H228       -2.0410  -19.2720  -56.2596 H         1 UNK         0.0600 
    229 H229       -2.2252  -19.9278  -54.6429 H         1 UNK         0.0600 
    230 H230       -4.3216  -18.5998  -57.3933 H         1 UNK         0.3000 
    231 H231       -6.9176  -18.1107  -56.4082 H         1 UNK         0.0600 
    232 H232       -6.6672  -15.9346  -57.6152 H         1 UNK         0.0600 
    233 H233       -6.0861  -17.2749  -58.5888 H         1 UNK         0.0600 
    234 H234       -4.9371  -16.2109  -57.7758 H         1 UNK         0.0600 
    235 H235       -3.8300  -17.1755  -55.0695 H         1 UNK         0.3000 
    236 H236       -4.8564  -15.0520  -53.3556 H         1 UNK         0.0600 
    237 H237       -2.5660  -14.9563  -54.2920 H         1 UNK         0.0600 
    238 H238       -2.4990  -15.0162  -52.5391 H         1 UNK         0.0600 
    239 H239       -2.1378  -16.4610  -53.4787 H         1 UNK         0.0600 
    240 H240       -4.6617  -18.5385  -53.0731 H         1 UNK         0.3000 
    241 H241       -5.1377  -18.3890  -50.1413 H         1 UNK         0.0600 
    242 H242       -6.1975  -19.9332  -53.1426 H         1 UNK         0.3800 
    243 H243       -7.2701  -21.0011  -52.2862 H         1 UNK         0.3800 
    244 H244       -2.9140  -19.9223  -51.5451 H         1 UNK         0.0800 
    245 H245       -3.5903  -20.5592  -50.0839 H         1 UNK         0.0800 
    246 H246       -1.1767  -18.4409  -51.6817 H         1 UNK         0.0800 
    247 H247       -1.5419  -16.8533  -51.0458 H         1 UNK         0.0800 
@<TRIPOS>BOND
     1    1    2 1    
     2    1  127 1    
     3    1  128 1    
     4    1  129 1    
     5    2    3 2    
     6    2    4 am   BACKBONE|DICT|INTERRES
     7    4    5 1    
     8    4  130 1    
     9    5    6 1    
    10    5   65 1    
    11    5  131 1    
    12    6    7 1    
    13    6  132 1    
    14    6  133 1    
    15    7    8 1    
    16    8    9 1    
    17    8  134 1    
    18    8  135 1    
    19    9   10 ar   
    20    9   14 ar   
    21   10   11 ar   
    22   10  136 1    
    23   11   12 ar   
    24   11  126 1    
    25   12   13 ar   
    26   12  137 1    
    27   13   14 ar   
    28   13   15 1    
    29   14  138 1    
    30   15   16 1    
    31   15  139 1    
    32   15  140 1    
    33   16   17 1    
    34   17   18 1    
    35   17  141 1    
    36   17  142 1    
    37   18   19 1    
    38   18   67 1    
    39   18  143 1    
    40   19   20 am   BACKBONE|DICT|INTERRES
    41   19  144 1    
    42   20   21 2    
    43   20   22 1    
    44   22   23 1    
    45   22   24 1    
    46   22  145 1    
    47   23  146 1    
    48   23  147 1    
    49   23  148 1    
    50   24   25 am   BACKBONE|DICT|INTERRES
    51   24  149 1    
    52   25   26 2    
    53   25   27 1    
    54   27   28 1    
    55   27   29 1    
    56   27  150 1    
    57   28  151 1    
    58   28  152 1    
    59   28  153 1    
    60   29   30 am   BACKBONE|DICT|INTERRES
    61   29  154 1    
    62   30   31 2    
    63   30   32 1    
    64   32   33 1    
    65   32   34 1    
    66   32  155 1    
    67   33  156 1    
    68   33  157 1    
    69   33  158 1    
    70   34   35 am   BACKBONE|DICT|INTERRES
    71   34  159 1    
    72   35   36 2    
    73   35   37 1    
    74   37   38 1    
    75   37   39 1    
    76   37  160 1    
    77   38  161 1    
    78   38  162 1    
    79   38  163 1    
    80   39   40 am   BACKBONE|DICT|INTERRES
    81   39  164 1    
    82   40   41 2    
    83   40   42 1    
    84   42   43 1    
    85   42   44 1    
    86   42  165 1    
    87   43  166 1    
    88   43  167 1    
    89   43  168 1    
    90   44   45 am   BACKBONE|DICT|INTERRES
    91   44  169 1    
    92   45   46 2    
    93   45   47 1    
    94   47   48 1    
    95   47   49 1    
    96   47  170 1    
    97   48  171 1    
    98   48  172 1    
    99   48  173 1    
   100   49   50 am   BACKBONE|DICT|INTERRES
   101   49  174 1    
   102   50   51 2    
   103   50   52 1    
   104   52   53 1    
   105   52   54 1    
   106   52  175 1    
   107   53  176 1    
   108   53  177 1    
   109   53  178 1    
   110   54   55 am   BACKBONE|DICT|INTERRES
   111   54  179 1    
   112   55   56 2    
   113   55   57 1    
   114   57   58 1    
   115   57   59 1    
   116   57  180 1    
   117   58  181 1    
   118   58  182 1    
   119   58  183 1    
   120   59   60 am   BACKBONE|DICT|INTERRES
   121   59  184 1    
   122   60   61 2    
   123   60   62 1    
   124   62   63 1    
   125   62   64 1    
   126   62  185 1    
   127   63  186 1    
   128   63  187 1    
   129   63  188 1    
   130   64   65 am   BACKBONE|DICT|INTERRES
   131   64  189 1    
   132   65   66 2    
   133   67   68 2    
   134   67   69 am   BACKBONE|DICT|INTERRES
   135   69   70 1    
   136   69  190 1    
   137   70   71 1    
   138   70   72 1    
   139   70  191 1    
   140   71  192 1    
   141   71  193 1    
   142   71  194 1    
   143   72   73 2    
   144   72   74 am   BACKBONE|DICT|INTERRES
   145   74   75 1    
   146   74  195 1    
   147   75   76 1    
   148   75   77 1    
   149   75  196 1    
   150   76  197 1    
   151   76  198 1    
   152   76  199 1    
   153   77   78 2    
   154   77   79 am   BACKBONE|DICT|INTERRES
   155   79   80 1    
   156   79  200 1    
   157   80   81 1    
   158   80   82 1    
   159   80  201 1    
   160   81  202 1    
   161   81  203 1    
   162   81  204 1    
   163   82   83 2    
   164   82   84 am   BACKBONE|DICT|INTERRES
   165   84   85 1    
   166   84  205 1    
   167   85   86 1    
   168   85   87 1    
   169   85  206 1    
   170   86  207 1    
   171   86  208 1    
   172   86  209 1    
   173   87   88 2    
   174   87   89 am   BACKBONE|DICT|INTERRES
   175   89   90 1    
   176   89  210 1    
   177   90   91 1    
   178   90   92 1    
   179   90  211 1    
   180   91  212 1    
   181   91  213 1    
   182   91  214 1    
   183   92   93 2    
   184   92   94 am   BACKBONE|DICT|INTERRES
   185   94   95 1    
   186   94  215 1    
   187   95   96 1    
   188   95   97 1    
   189   95  216 1    
   190   96  217 1    
   191   96  218 1    
   192   96  219 1    
   193   97   98 2    
   194   97   99 am   BACKBONE|DICT|INTERRES
   195   99  100 1    
   196   99  220 1    
   197  100  101 1    
   198  100  102 1    
   199  100  221 1    
   200  101  222 1    
   201  101  223 1    
   202  101  224 1    
   203  102  103 2    
   204  102  104 am   BACKBONE|DICT|INTERRES
   205  104  105 1    
   206  104  225 1    
   207  105  106 1    
   208  105  107 1    
   209  105  226 1    
   210  106  227 1    
   211  106  228 1    
   212  106  229 1    
   213  107  108 2    
   214  107  109 am   BACKBONE|DICT|INTERRES
   215  109  110 1    
   216  109  230 1    
   217  110  111 1    
   218  110  112 1    
   219  110  231 1    
   220  111  232 1    
   221  111  233 1    
   222  111  234 1    
   223  112  113 2    
   224  112  114 am   BACKBONE|DICT|INTERRES
   225  114  115 1    
   226  114  235 1    
   227  115  116 1    
   228  115  117 1    
   229  115  236 1    
   230  116  237 1    
   231  116  238 1    
   232  116  239 1    
   233  117  118 2    
   234  117  119 am   BACKBONE|DICT|INTERRES
   235  119  120 1    
   236  119  240 1    
   237  120  121 1    
   238  120  124 1    
   239  120  241 1    
   240  121  122 am   BACKBONE|DICT|INTERRES
   241  121  123 2    
   242  122  242 1    
   243  122  243 1    
   244  124  125 1    
   245  124  244 1    
   246  124  245 1    
   247  125  126 1    
   248  126  246 1    
   249  126  247 1    
@<TRIPOS>SUBSTRUCTURE
     1 UNK         1 GROUP             0       ****    0 ROOT    
