@<TRIPOS>MOLECULE
3R540
247   249    1
SMALL
USER_CHARGES


@<TRIPOS>ATOM
      1 CA         -3.1542  -14.7648  -46.3797 C.3       0 UNK        -0.1800 
      2 C          -2.0140  -13.9819  -47.0162 C.2       0 UNK         0.5000 
      3 O          -2.2476  -12.9065  -47.5656 O.2       0 UNK        -0.5000 
      4 N          -0.7880  -14.5193  -46.9424 N.am      1 UNK        -0.5000 
      5 CA          0.4386  -13.9616  -47.5330 C.3       1 UNK         0.1400 
      6 C6          1.6517  -14.9165  -47.3889 C.3       23 UNK        -0.0398 
      7 S7          1.2888  -16.6229  -47.9189 S.3       23 UNK        -0.2404 
      8 C8          1.9745  -16.6519  -49.6005 C.3       23 UNK        -0.0205 
      9 C9          1.6571  -17.9664  -50.2991 C.ar      23 UNK        -0.0193 
     10 C10         0.8148  -17.9946  -51.4160 C.ar      23 UNK        -0.1150 
     11 C11         0.5439  -19.2013  -52.0685 C.ar      23 UNK        -0.0193 
     12 C12         1.1090  -20.3857  -51.5866 C.ar      23 UNK        -0.1150 
     13 C13         1.9446  -20.3726  -50.4676 C.ar      23 UNK        -0.0193 
     14 C14         2.2220  -19.1579  -49.8344 C.ar      23 UNK        -0.1150 
     15 C15         2.5711  -21.6657  -49.9640 C.3       23 UNK        -0.0205 
     16 S16         1.3757  -22.7384  -49.1036 S.3       23 UNK        -0.2404 
     17 C17         1.0043  -21.7563  -47.6100 C.3       23 UNK        -0.0398 
     18 CA         -0.4878  -21.7956  -47.2043 C.3       11 UNK         0.1400 
     19 N          -0.6866  -21.2579  -45.8569 N.am      11 UNK        -0.5000 
     20 C          -1.8022  -21.4123  -45.1283 C.2       10 UNK         0.5000 
     21 O          -2.7772  -22.0571  -45.5099 O.2       10 UNK        -0.5000 
     22 CA         -1.8610  -20.6999  -43.7609 C.3       10 UNK         0.1400 
     23 CB         -1.3458  -21.6274  -42.6507 C.3       10 UNK        -0.1800 
     24 N          -1.1084  -19.4462  -43.7223 N.am      10 UNK        -0.5000 
     25 C          -1.3379  -18.3857  -44.5080 C.2       9 UNK         0.5000 
     26 O          -2.2730  -18.3151  -45.3057 O.2       9 UNK        -0.5000 
     27 CA         -0.3139  -17.2368  -44.4468 C.3       9 UNK         0.1400 
     28 CB         -0.8206  -16.1080  -43.5409 C.3       9 UNK        -0.1800 
     29 N           1.0413  -17.6263  -44.0361 N.am      9 UNK        -0.5000 
     30 C           1.7983  -18.5565  -44.6440 C.2       8 UNK         0.5000 
     31 O           1.3928  -19.2530  -45.5752 O.2       8 UNK        -0.5000 
     32 CA          3.2198  -18.7809  -44.0936 C.3       8 UNK         0.1400 
     33 CB          4.1692  -19.4228  -45.1281 C.3       8 UNK        -0.1800 
     34 N           3.8043  -17.5762  -43.4987 N.am      8 UNK        -0.5000 
     35 C           4.1693  -16.4442  -44.1226 C.2       7 UNK         0.5000 
     36 O           4.0922  -16.2781  -45.3392 O.2       7 UNK        -0.5000 
     37 CA          4.6984  -15.2902  -43.2455 C.3       7 UNK         0.1400 
     38 CB          3.9011  -13.9996  -43.4978 C.3       7 UNK        -0.1800 
     39 N           4.6459  -15.6073  -41.8169 N.am      7 UNK        -0.5000 
     40 C           5.6334  -16.1916  -41.1226 C.2       6 UNK         0.5000 
     41 O           6.7388  -16.4521  -41.5978 O.2       6 UNK        -0.5000 
     42 CA          5.3324  -16.5787  -39.6591 C.3       6 UNK         0.1400 
     43 CB          5.8893  -15.5157  -38.6999 C.3       6 UNK        -0.1800 
     44 N           3.9061  -16.7646  -39.3806 N.am      6 UNK        -0.5000 
     45 C           3.1259  -17.7195  -39.9085 C.2       5 UNK         0.5000 
     46 O           3.5386  -18.5976  -40.6653 O.2       5 UNK        -0.5000 
     47 CA          1.6181  -17.6264  -39.5999 C.3       5 UNK         0.1400 
     48 CB          1.2665  -18.4564  -38.3570 C.3       5 UNK        -0.1800 
     49 N           1.1628  -16.2449  -39.4096 N.am      5 UNK        -0.5000 
     50 C           1.1930  -15.3035  -40.3619 C.2       4 UNK         0.5000 
     51 O           1.5767  -15.5167  -41.5149 O.2       4 UNK        -0.5000 
     52 CA          0.8342  -13.8745  -39.9229 C.3       4 UNK         0.1400 
     53 CB          2.1188  -13.0812  -39.6369 C.3       4 UNK        -0.1800 
     54 N           0.0610  -13.1606  -40.9345 N.am      4 UNK        -0.5000 
     55 C          -1.2161  -13.3979  -41.2481 C.2       3 UNK         0.5000 
     56 O          -1.8959  -14.2666  -40.7005 O.2       3 UNK        -0.5000 
     57 CA         -1.8596  -12.5263  -42.3497 C.3       3 UNK         0.1400 
     58 CB         -2.5248  -11.2788  -41.7385 C.3       3 UNK        -0.1800 
     59 N          -0.9855  -12.1587  -43.4769 N.am      3 UNK        -0.5000 
     60 C           0.1159  -11.3896  -43.4908 C.2       2 UNK         0.5000 
     61 O           0.5994  -10.8689  -42.4850 O.2       2 UNK        -0.5000 
     62 CA          0.8108  -11.2210  -44.8553 C.3       2 UNK         0.1400 
     63 CB          2.2853  -10.7866  -44.7317 C.3       2 UNK        -0.1800 
     64 N           0.6924  -12.4610  -45.6223 N.am      2 UNK        -0.5000 
     65 C           0.7814  -12.5731  -46.9534 C.2       1 UNK         0.5000 
     66 O           1.0759  -11.6457  -47.7084 O.2       1 UNK        -0.5000 
     67 C          -1.3977  -21.0832  -48.2260 C.2       11 UNK         0.5000 
     68 O          -2.0337  -21.7544  -49.0404 O.2       11 UNK        -0.5000 
     69 N          -1.4969  -19.7492  -48.1255 N.am      12 UNK        -0.5000 
     70 CA         -2.4048  -18.9455  -48.9426 C.3       12 UNK         0.1400 
     71 CB         -2.0494  -17.4574  -48.8443 C.3       12 UNK        -0.1800 
     72 C          -3.8801  -19.1780  -48.5820 C.2       12 UNK         0.5000 
     73 O          -4.7080  -19.2799  -49.4857 O.2       12 UNK        -0.5000 
     74 N          -4.1805  -19.3066  -47.2813 N.am      13 UNK        -0.5000 
     75 CA         -5.5176  -19.6192  -46.7670 C.3       13 UNK         0.1400 
     76 CB         -5.5133  -19.5280  -45.2345 C.3       13 UNK        -0.1800 
     77 C          -6.0340  -20.9961  -47.2314 C.2       13 UNK         0.5000 
     78 O          -7.2180  -21.1300  -47.5410 O.2       13 UNK        -0.5000 
     79 N          -5.1270  -21.9787  -47.3144 N.am      14 UNK        -0.5000 
     80 CA         -5.3765  -23.3095  -47.8701 C.3       14 UNK         0.1400 
     81 CB         -4.3345  -24.2840  -47.2971 C.3       14 UNK        -0.1800 
     82 C          -5.3443  -23.3468  -49.4119 C.2       14 UNK         0.5000 
     83 O          -5.6259  -24.3995  -49.9842 O.2       14 UNK        -0.5000 
     84 N          -4.9632  -22.2349  -50.0583 N.am      15 UNK        -0.5000 
     85 CA         -4.7751  -22.0606  -51.5018 C.3       15 UNK         0.1400 
     86 CB         -6.1350  -22.0766  -52.2256 C.3       15 UNK        -0.1800 
     87 C          -3.7567  -23.0607  -52.0885 C.2       15 UNK         0.5000 
     88 O          -4.0266  -23.7003  -53.1069 O.2       15 UNK        -0.5000 
     89 N          -2.6204  -23.2090  -51.3906 N.am      16 UNK        -0.5000 
     90 CA         -1.5407  -24.1671  -51.6491 C.3       16 UNK         0.1400 
     91 CB         -0.8427  -23.8570  -52.9900 C.3       16 UNK        -0.1800 
     92 C          -2.0226  -25.6307  -51.5482 C.2       16 UNK         0.5000 
     93 O          -1.6253  -26.4676  -52.3578 O.2       16 UNK        -0.5000 
     94 N          -2.9059  -25.8985  -50.5736 N.am      17 UNK        -0.5000 
     95 CA         -3.6513  -27.1489  -50.3746 C.3       17 UNK         0.1400 
     96 CB         -2.7072  -28.3129  -50.0071 C.3       17 UNK        -0.1800 
     97 C          -4.5743  -27.4571  -51.5737 C.2       17 UNK         0.5000 
     98 O          -4.5849  -28.5763  -52.0888 O.2       17 UNK        -0.5000 
     99 N          -5.3100  -26.4220  -52.0031 N.am      18 UNK        -0.5000 
    100 CA        -6.2369  -26.3627  -53.1383 C.3       18 UNK         0.1400 
    101 CB        -7.4404  -27.2991  -52.9053 C.3       18 UNK        -0.1800 
    102 C         -5.5863  -26.5736  -54.5246 C.2       18 UNK         0.5000 
    103 O         -6.3068  -26.7944  -55.5000 O.2       18 UNK        -0.5000 
    104 N         -4.2515  -26.4938  -54.6091 N.am      19 UNK        -0.5000 
    105 CA        -3.4942  -26.6328  -55.8541 C.3       19 UNK         0.1400 
    106 CB        -2.0865  -27.1563  -55.5325 C.3       19 UNK        -0.1800 
    107 C         -3.4024  -25.3165  -56.6486 C.2       19 UNK         0.5000 
    108 O         -3.1015  -25.3604  -57.8427 O.2       19 UNK        -0.5000 
    109 N         -3.6398  -24.1797  -55.9849 N.am      20 UNK        -0.5000 
    110 CA        -3.5604  -22.8355  -56.5468 C.3       20 UNK         0.1400 
    111 CB        -2.2955  -22.1542  -55.9895 C.3       20 UNK        -0.1800 
    112 C         -4.8430  -22.0473  -56.2236 C.2       20 UNK         0.5000 
    113 O         -5.8428  -22.6268  -55.7931 O.2       20 UNK        -0.5000 
    114 N         -4.7913  -20.7320  -56.4522 N.am      21 UNK        -0.5000 
    115 CA        -5.8449  -19.7662  -56.1539 C.3       21 UNK         0.1400 
    116 CB        -6.6948  -19.5183  -57.4141 C.3       21 UNK        -0.1800 
    117 C         -5.1707  -18.4982  -55.6063 C.2       21 UNK         0.5000 
    118 O         -5.2418  -17.4334  -56.2223 O.2       21 UNK        -0.5000 
    119 N         -4.4539  -18.6763  -54.4906 N.am      22 UNK        -0.5000 
    120 CA        -3.6249  -17.6694  -53.8090 C.3       22 UNK         0.1400 
    121 C         -4.4077  -16.3977  -53.3752 C.2       22 UNK         0.5000 
    122 N         -3.7960  -15.2244  -53.4653 N.am      22 UNK        -0.7600 
    123 O         -5.5449  -16.4709  -52.9149 O.2       22 UNK        -0.5000 
    124 C124       -2.8912  -18.2785  -52.5858 C.3       23 UNK        -0.0398 
    125 S125       -2.0024  -19.8260  -52.9725 S.3       23 UNK        -0.2404 
    126 C126       -0.3206  -19.2321  -53.3195 C.3       23 UNK        -0.0205 
    127 H127       -2.8288  -15.7375  -46.0139 H         1 UNK         0.0600 
    128 H128       -3.9471  -14.9308  -47.1091 H         1 UNK         0.0600 
    129 H129       -3.5718  -14.2073  -45.5414 H         1 UNK         0.0600 
    130 H130       -0.6766  -15.4306  -46.5275 H         1 UNK         0.3000 
    131 H131        0.2439  -13.8296  -48.5995 H         1 UNK         0.0600 
    132 H132        2.5093  -14.5388  -47.9484 H         1 UNK         0.0800 
    133 H133        1.9731  -14.9705  -46.3474 H         1 UNK         0.0800 
    134 H134        3.0560  -16.5176  -49.5542 H         1 UNK         0.0800 
    135 H135        1.5753  -15.8085  -50.1659 H         1 UNK         0.0800 
    136 H136        0.3821  -17.0761  -51.7862 H         1 UNK         0.1150 
    137 H137        0.9037  -21.3208  -52.0866 H         1 UNK         0.1150 
    138 H138        2.8734  -19.1352  -48.9716 H         1 UNK         0.1150 
    139 H139        2.9867  -22.2136  -50.8108 H         1 UNK         0.0800 
    140 H140        3.4095  -21.4559  -49.2978 H         1 UNK         0.0800 
    141 H141        1.6162  -22.1588  -46.8017 H         1 UNK         0.0800 
    142 H142        1.3332  -20.7261  -47.7426 H         1 UNK         0.0800 
    143 H143       -0.7945  -22.8437  -47.1765 H         1 UNK         0.0600 
    144 H144        0.0497  -20.6493  -45.5113 H         1 UNK         0.3000 
    145 H145       -2.9056  -20.4655  -43.5512 H         1 UNK         0.0600 
    146 H146       -1.4575  -21.1680  -41.6683 H         1 UNK         0.0600 
    147 H147       -1.9041  -22.5645  -42.6350 H         1 UNK         0.0600 
    148 H148       -0.2925  -21.8749  -42.7891 H         1 UNK         0.0600 
    149 H149       -0.3106  -19.4154  -43.1058 H         1 UNK         0.3000 
    150 H150       -0.2354  -16.8457  -45.4596 H         1 UNK         0.0600 
    151 H151       -0.8616  -16.4239  -42.4979 H         1 UNK         0.0600 
    152 H152       -1.8250  -15.7895  -43.8206 H         1 UNK         0.0600 
    153 H153       -0.1731  -15.2336  -43.6022 H         1 UNK         0.0600 
    154 H154        1.4456  -17.0965  -43.2741 H         1 UNK         0.3000 
    155 H155        3.1092  -19.4924  -43.2745 H         1 UNK         0.0600 
    156 H156        3.8112  -20.4088  -45.4266 H         1 UNK         0.0600 
    157 H157        5.1709  -19.5526  -44.7186 H         1 UNK         0.0600 
    158 H158        4.2498  -18.8218  -46.0343 H         1 UNK         0.0600 
    159 H159        3.9109  -17.6163  -42.4921 H         1 UNK         0.3000 
    160 H160        5.7330  -15.1067  -43.5422 H         1 UNK         0.0600 
    161 H161        2.8363  -14.1316  -43.3071 H         1 UNK         0.0600 
    162 H162        4.0065  -13.6743  -44.5335 H         1 UNK         0.0600 
    163 H163        4.2574  -13.1864  -42.8653 H         1 UNK         0.0600 
    164 H164        3.7488  -15.4630  -41.3710 H         1 UNK         0.3000 
    165 H165        5.8404  -17.5243  -39.4586 H         1 UNK         0.0600 
    166 H166        5.7525  -15.8115  -37.6596 H         1 UNK         0.0600 
    167 H167        6.9590  -15.3697  -38.8563 H         1 UNK         0.0600 
    168 H168        5.4020  -14.5502  -38.8427 H         1 UNK         0.0600 
    169 H169        3.4772  -16.0880  -38.7671 H         1 UNK         0.3000 
    170 H170        1.0804  -18.0434  -40.4542 H         1 UNK         0.0600 
    171 H171        1.5749  -19.4954  -38.4815 H         1 UNK         0.0600 
    172 H172        1.7589  -18.0725  -37.4626 H         1 UNK         0.0600 
    173 H173        0.1916  -18.4578  -38.1750 H         1 UNK         0.0600 
    174 H174        0.8436  -15.9993  -38.4833 H         1 UNK         0.3000 
    175 H175        0.2406  -13.9206  -39.0075 H         1 UNK         0.0600 
    176 H176        2.7427  -12.9914  -40.5275 H         1 UNK         0.0600 
    177 H177        1.8899  -12.0741  -39.2879 H         1 UNK         0.0600 
    178 H178        2.7170  -13.5638  -38.8631 H         1 UNK         0.0600 
    179 H179        0.5274  -12.4030  -41.4248 H         1 UNK         0.3000 
    180 H180       -2.6537  -13.1332  -42.7880 H         1 UNK         0.0600 
    181 H181       -1.7969  -10.6190  -41.2655 H         1 UNK         0.0600 
    182 H182       -3.2518  -11.5597  -40.9754 H         1 UNK         0.0600 
    183 H183       -3.0563  -10.7038  -42.4967 H         1 UNK         0.0600 
    184 H184       -1.2999  -12.5050  -44.3713 H         1 UNK         0.3000 
    185 H185        0.2654  -10.4360  -45.3831 H         1 UNK         0.0600 
    186 H186        2.8658  -11.5019  -44.1519 H         1 UNK         0.0600 
    187 H187        2.7584  -10.6825  -45.7079 H         1 UNK         0.0600 
    188 H188        2.3662   -9.8204  -44.2325 H         1 UNK         0.0600 
    189 H189        0.4664  -13.2847  -45.0843 H         1 UNK         0.3000 
    190 H190       -0.9652  -19.2672  -47.4151 H         1 UNK         0.3000 
    191 H191       -2.2689  -19.2527  -49.9803 H         1 UNK         0.0600 
    192 H192       -1.9557  -17.1349  -47.8086 H         1 UNK         0.0600 
    193 H193       -1.1099  -17.2511  -49.3524 H         1 UNK         0.0600 
    194 H194       -2.8085  -16.8345  -49.3193 H         1 UNK         0.0600 
    195 H195       -3.4497  -19.1490  -46.5928 H         1 UNK         0.3000 
    196 H196       -6.2028  -18.8604  -47.1505 H         1 UNK         0.0600 
    197 H197       -5.1552  -18.5557  -44.8953 H         1 UNK         0.0600 
    198 H198       -4.8795  -20.2946  -44.7904 H         1 UNK         0.0600 
    199 H199       -6.5187  -19.6638  -44.8344 H         1 UNK         0.0600 
    200 H200       -4.1885  -21.8073  -46.9683 H         1 UNK         0.3000 
    201 H201       -6.3668  -23.6450  -47.5557 H         1 UNK         0.0600 
    202 H202       -4.5148  -25.3033  -47.6400 H         1 UNK         0.0600 
    203 H203       -4.3698  -24.3011  -46.2077 H         1 UNK         0.0600 
    204 H204       -3.3214  -24.0085  -47.5936 H         1 UNK         0.0600 
    205 H205       -4.7493  -21.4170  -49.5015 H         1 UNK         0.3000 
    206 H206       -4.3448  -21.0683  -51.6341 H         1 UNK         0.0600 
    207 H207       -6.8204  -21.3497  -51.7898 H         1 UNK         0.0600 
    208 H208       -6.6101  -23.0565  -52.1778 H         1 UNK         0.0600 
    209 H209       -6.0180  -21.8186  -53.2773 H         1 UNK         0.0600 
    210 H210       -2.4926  -22.6343  -50.5578 H         1 UNK         0.3000 
    211 H211       -0.8101  -24.0241  -50.8524 H         1 UNK         0.0600 
    212 H212       -0.5884  -22.8010  -53.0706 H         1 UNK         0.0600 
    213 H213        0.0823  -24.4259  -53.0877 H         1 UNK         0.0600 
    214 H214       -1.4726  -24.1123  -53.8420 H         1 UNK         0.0600 
    215 H215       -3.1988  -25.1259  -49.9937 H         1 UNK         0.3000 
    216 H216       -4.3097  -26.9821  -49.5211 H         1 UNK         0.0600 
    217 H217       -2.0531  -28.5870  -50.8350 H         1 UNK         0.0600 
    218 H218       -2.0795  -28.0562  -49.1539 H         1 UNK         0.0600 
    219 H219       -3.2765  -29.2024  -49.7354 H         1 UNK         0.0600 
    220 H220       -5.2471  -25.5608  -51.4659 H         1 UNK         0.3000 
    221 H221       -6.6166  -25.3404  -53.1496 H         1 UNK         0.0600 
    222 H222       -7.1504  -28.3492  -52.9481 H         1 UNK         0.0600 
    223 H223       -7.8994  -27.1161  -51.9337 H         1 UNK         0.0600 
    224 H224       -8.2121  -27.1430  -53.6599 H         1 UNK         0.0600 
    225 H225       -3.7234  -26.2891  -53.7712 H         1 UNK         0.3000 
    226 H226       -3.9869  -27.3713  -56.4899 H         1 UNK         0.0600 
    227 H227       -2.1272  -28.0636  -54.9292 H         1 UNK         0.0600 
    228 H228       -1.5430  -27.3964  -56.4471 H         1 UNK         0.0600 
    229 H229       -1.4972  -26.4168  -54.9901 H         1 UNK         0.0600 
    230 H230       -3.9278  -24.2205  -55.0104 H         1 UNK         0.3000 
    231 H231       -3.4850  -22.8790  -57.6349 H         1 UNK         0.0600 
    232 H232       -2.1248  -21.1764  -56.4401 H         1 UNK         0.0600 
    233 H233       -1.4072  -22.7540  -56.1880 H         1 UNK         0.0600 
    234 H234       -2.3654  -22.0161  -54.9108 H         1 UNK         0.0600 
    235 H235       -3.9280  -20.3324  -56.7941 H         1 UNK         0.3000 
    236 H236       -6.4972  -20.1482  -55.3654 H         1 UNK         0.0600 
    237 H237       -7.1800  -20.4361  -57.7467 H         1 UNK         0.0600 
    238 H238       -7.4806  -18.7879  -57.2179 H         1 UNK         0.0600 
    239 H239       -6.0906  -19.1414  -58.2402 H         1 UNK         0.0600 
    240 H240       -4.4323  -19.5969  -54.0797 H         1 UNK         0.3000 
    241 H241       -2.8673  -17.3610  -54.5321 H         1 UNK         0.0600 
    242 H242       -2.8631  -15.1372  -53.8377 H         1 UNK         0.3800 
    243 H243       -4.2886  -14.3944  -53.1735 H         1 UNK         0.3800 
    244 H244       -2.1926  -17.5603  -52.1533 H         1 UNK         0.0800 
    245 H245       -3.6154  -18.5055  -51.8028 H         1 UNK         0.0800 
    246 H246       -0.3592  -18.2505  -53.7940 H         1 UNK         0.0800 
    247 H247        0.1359  -19.9010  -54.0506 H         1 UNK         0.0800 
@<TRIPOS>BOND
     1    1    2 1    
     2    1  127 1    
     3    1  128 1    
     4    1  129 1    
     5    2    3 2    
     6    2    4 am   BACKBONE|DICT|INTERRES
     7    4    5 1    
     8    4  130 1    
     9    5    6 1    
    10    5   65 1    
    11    5  131 1    
    12    6    7 1    
    13    6  132 1    
    14    6  133 1    
    15    7    8 1    
    16    8    9 1    
    17    8  134 1    
    18    8  135 1    
    19    9   10 ar   
    20    9   14 ar   
    21   10   11 ar   
    22   10  136 1    
    23   11   12 ar   
    24   11  126 1    
    25   12   13 ar   
    26   12  137 1    
    27   13   14 ar   
    28   13   15 1    
    29   14  138 1    
    30   15   16 1    
    31   15  139 1    
    32   15  140 1    
    33   16   17 1    
    34   17   18 1    
    35   17  141 1    
    36   17  142 1    
    37   18   19 1    
    38   18   67 1    
    39   18  143 1    
    40   19   20 am   BACKBONE|DICT|INTERRES
    41   19  144 1    
    42   20   21 2    
    43   20   22 1    
    44   22   23 1    
    45   22   24 1    
    46   22  145 1    
    47   23  146 1    
    48   23  147 1    
    49   23  148 1    
    50   24   25 am   BACKBONE|DICT|INTERRES
    51   24  149 1    
    52   25   26 2    
    53   25   27 1    
    54   27   28 1    
    55   27   29 1    
    56   27  150 1    
    57   28  151 1    
    58   28  152 1    
    59   28  153 1    
    60   29   30 am   BACKBONE|DICT|INTERRES
    61   29  154 1    
    62   30   31 2    
    63   30   32 1    
    64   32   33 1    
    65   32   34 1    
    66   32  155 1    
    67   33  156 1    
    68   33  157 1    
    69   33  158 1    
    70   34   35 am   BACKBONE|DICT|INTERRES
    71   34  159 1    
    72   35   36 2    
    73   35   37 1    
    74   37   38 1    
    75   37   39 1    
    76   37  160 1    
    77   38  161 1    
    78   38  162 1    
    79   38  163 1    
    80   39   40 am   BACKBONE|DICT|INTERRES
    81   39  164 1    
    82   40   41 2    
    83   40   42 1    
    84   42   43 1    
    85   42   44 1    
    86   42  165 1    
    87   43  166 1    
    88   43  167 1    
    89   43  168 1    
    90   44   45 am   BACKBONE|DICT|INTERRES
    91   44  169 1    
    92   45   46 2    
    93   45   47 1    
    94   47   48 1    
    95   47   49 1    
    96   47  170 1    
    97   48  171 1    
    98   48  172 1    
    99   48  173 1    
   100   49   50 am   BACKBONE|DICT|INTERRES
   101   49  174 1    
   102   50   51 2    
   103   50   52 1    
   104   52   53 1    
   105   52   54 1    
   106   52  175 1    
   107   53  176 1    
   108   53  177 1    
   109   53  178 1    
   110   54   55 am   BACKBONE|DICT|INTERRES
   111   54  179 1    
   112   55   56 2    
   113   55   57 1    
   114   57   58 1    
   115   57   59 1    
   116   57  180 1    
   117   58  181 1    
   118   58  182 1    
   119   58  183 1    
   120   59   60 am   BACKBONE|DICT|INTERRES
   121   59  184 1    
   122   60   61 2    
   123   60   62 1    
   124   62   63 1    
   125   62   64 1    
   126   62  185 1    
   127   63  186 1    
   128   63  187 1    
   129   63  188 1    
   130   64   65 am   BACKBONE|DICT|INTERRES
   131   64  189 1    
   132   65   66 2    
   133   67   68 2    
   134   67   69 am   BACKBONE|DICT|INTERRES
   135   69   70 1    
   136   69  190 1    
   137   70   71 1    
   138   70   72 1    
   139   70  191 1    
   140   71  192 1    
   141   71  193 1    
   142   71  194 1    
   143   72   73 2    
   144   72   74 am   BACKBONE|DICT|INTERRES
   145   74   75 1    
   146   74  195 1    
   147   75   76 1    
   148   75   77 1    
   149   75  196 1    
   150   76  197 1    
   151   76  198 1    
   152   76  199 1    
   153   77   78 2    
   154   77   79 am   BACKBONE|DICT|INTERRES
   155   79   80 1    
   156   79  200 1    
   157   80   81 1    
   158   80   82 1    
   159   80  201 1    
   160   81  202 1    
   161   81  203 1    
   162   81  204 1    
   163   82   83 2    
   164   82   84 am   BACKBONE|DICT|INTERRES
   165   84   85 1    
   166   84  205 1    
   167   85   86 1    
   168   85   87 1    
   169   85  206 1    
   170   86  207 1    
   171   86  208 1    
   172   86  209 1    
   173   87   88 2    
   174   87   89 am   BACKBONE|DICT|INTERRES
   175   89   90 1    
   176   89  210 1    
   177   90   91 1    
   178   90   92 1    
   179   90  211 1    
   180   91  212 1    
   181   91  213 1    
   182   91  214 1    
   183   92   93 2    
   184   92   94 am   BACKBONE|DICT|INTERRES
   185   94   95 1    
   186   94  215 1    
   187   95   96 1    
   188   95   97 1    
   189   95  216 1    
   190   96  217 1    
   191   96  218 1    
   192   96  219 1    
   193   97   98 2    
   194   97   99 am   BACKBONE|DICT|INTERRES
   195   99  100 1    
   196   99  220 1    
   197  100  101 1    
   198  100  102 1    
   199  100  221 1    
   200  101  222 1    
   201  101  223 1    
   202  101  224 1    
   203  102  103 2    
   204  102  104 am   BACKBONE|DICT|INTERRES
   205  104  105 1    
   206  104  225 1    
   207  105  106 1    
   208  105  107 1    
   209  105  226 1    
   210  106  227 1    
   211  106  228 1    
   212  106  229 1    
   213  107  108 2    
   214  107  109 am   BACKBONE|DICT|INTERRES
   215  109  110 1    
   216  109  230 1    
   217  110  111 1    
   218  110  112 1    
   219  110  231 1    
   220  111  232 1    
   221  111  233 1    
   222  111  234 1    
   223  112  113 2    
   224  112  114 am   BACKBONE|DICT|INTERRES
   225  114  115 1    
   226  114  235 1    
   227  115  116 1    
   228  115  117 1    
   229  115  236 1    
   230  116  237 1    
   231  116  238 1    
   232  116  239 1    
   233  117  118 2    
   234  117  119 am   BACKBONE|DICT|INTERRES
   235  119  120 1    
   236  119  240 1    
   237  120  121 1    
   238  120  124 1    
   239  120  241 1    
   240  121  122 am   BACKBONE|DICT|INTERRES
   241  121  123 2    
   242  122  242 1    
   243  122  243 1    
   244  124  125 1    
   245  124  244 1    
   246  124  245 1    
   247  125  126 1    
   248  126  246 1    
   249  126  247 1    
@<TRIPOS>SUBSTRUCTURE
     1 UNK         1 GROUP             0       ****    0 ROOT    
