@<TRIPOS>MOLECULE
3R540
247   249    1
SMALL
USER_CHARGES


@<TRIPOS>ATOM
      1 CA         -2.3161  -16.7695  -45.5120 C.3       0 UNK        -0.1800 
      2 C          -2.0815  -15.6559  -46.5214 C.2       0 UNK         0.5000 
      3 O          -2.7480  -14.6228  -46.4729 O.2       0 UNK        -0.5000 
      4 N          -1.1216  -15.8565  -47.4340 N.am      1 UNK        -0.5000 
      5 CA         -0.7522  -14.9069  -48.4972 C.3       1 UNK         0.1400 
      6 C6          0.0613  -15.5915  -49.6244 C.3       23 UNK        -0.0398 
      7 S7         -0.9785  -16.7385  -50.5915 S.3       23 UNK        -0.2404 
      8 C8         -0.5160  -18.3538  -49.8971 C.3       23 UNK        -0.0205 
      9 C9          0.7555  -18.9055  -50.5175 C.ar      23 UNK        -0.0193 
     10 C10         0.7455  -19.3303  -51.8480 C.ar      23 UNK        -0.1150 
     11 C11         1.8998  -19.8461  -52.4386 C.ar      23 UNK        -0.0193 
     12 C12         3.0700  -19.9495  -51.6817 C.ar      23 UNK        -0.1150 
     13 C13         3.0926  -19.5353  -50.3459 C.ar      23 UNK        -0.0193 
     14 C14         1.9316  -19.0096  -49.7684 C.ar      23 UNK        -0.1150 
     15 C15         4.3836  -19.6335  -49.5470 C.3       23 UNK        -0.0205 
     16 S16         4.6061  -21.2801  -48.8015 S.3       23 UNK        -0.2404 
     17 C17         3.6292  -21.1174  -47.2706 C.3       23 UNK        -0.0398 
     18 CA          2.8144  -22.3812  -46.9055 C.3       11 UNK         0.1400 
     19 N           2.3948  -22.3501  -45.5017 N.am      11 UNK        -0.5000 
     20 C           1.8497  -23.3739  -44.8294 C.2       10 UNK         0.5000 
     21 O           1.7149  -24.5064  -45.2927 O.2       10 UNK        -0.5000 
     22 CA          1.3414  -23.0717  -43.4067 C.3       10 UNK         0.1400 
     23 CB          2.4819  -23.1844  -42.3841 C.3       10 UNK        -0.1800 
     24 N           0.7158  -21.7516  -43.2999 N.am      10 UNK        -0.5000 
     25 C          -0.4218  -21.3986  -43.9151 C.2       9 UNK         0.5000 
     26 O          -1.0990  -22.1744  -44.5892 O.2       9 UNK        -0.5000 
     27 CA         -0.8459  -19.9214  -43.8058 C.3       9 UNK         0.1400 
     28 CB         -1.5675  -19.6439  -42.4795 C.3       9 UNK        -0.1800 
     29 N           0.2869  -19.0057  -43.9520 N.am      9 UNK        -0.5000 
     30 C           0.9895  -18.8509  -45.0828 C.2       8 UNK         0.5000 
     31 O           0.7020  -19.3957  -46.1473 O.2       8 UNK        -0.5000 
     32 CA          2.2488  -17.9736  -45.0078 C.3       8 UNK         0.1400 
     33 CB          1.9078  -16.5016  -45.2692 C.3       8 UNK        -0.1800 
     34 N           2.9385  -18.1089  -43.7248 N.am      8 UNK        -0.5000 
     35 C           3.6328  -19.1978  -43.3638 C.2       7 UNK         0.5000 
     36 O           3.7703  -20.1850  -44.0840 O.2       7 UNK        -0.5000 
     37 CA          4.2334  -19.2068  -41.9468 C.3       7 UNK         0.1400 
     38 CB          5.5721  -18.4546  -41.9210 C.3       7 UNK        -0.1800 
     39 N           3.3311  -18.6283  -40.9520 N.am      7 UNK        -0.5000 
     40 C           2.1397  -19.1430  -40.6162 C.2       6 UNK         0.5000 
     41 O           1.6970  -20.1950  -41.0749 O.2       6 UNK        -0.5000 
     42 CA          1.2768  -18.3163  -39.6459 C.3       6 UNK         0.1400 
     43 CB          1.5545  -18.7281  -38.1929 C.3       6 UNK        -0.1800 
     44 N           1.4706  -16.8705  -39.7864 N.am      6 UNK        -0.5000 
     45 C           1.1914  -16.1655  -40.8908 C.2       5 UNK         0.5000 
     46 O           0.7587  -16.6660  -41.9320 O.2       5 UNK        -0.5000 
     47 CA          1.4738  -14.6523  -40.8251 C.3       5 UNK         0.1400 
     48 CB          2.3985  -14.2247  -41.9734 C.3       5 UNK        -0.1800 
     49 N           0.2460  -13.8609  -40.8800 N.am      5 UNK        -0.5000 
     50 C          -0.7389  -13.9020  -39.9709 C.2       4 UNK         0.5000 
     51 O          -0.6882  -14.5855  -38.9470 O.2       4 UNK        -0.5000 
     52 CA         -1.9821  -13.0210  -40.2120 C.3       4 UNK         0.1400 
     53 CB         -2.0654  -11.9047  -39.1579 C.3       4 UNK        -0.1800 
     54 N          -2.0516  -12.4075  -41.5394 N.am      4 UNK        -0.5000 
     55 C          -2.3071  -13.0509  -42.6855 C.2       3 UNK         0.5000 
     56 O          -2.4563  -14.2703  -42.7650 O.2       3 UNK        -0.5000 
     57 CA         -2.4366  -12.1899  -43.9579 C.3       3 UNK         0.1400 
     58 CB         -2.5932  -10.6755  -43.6881 C.3       3 UNK        -0.1800 
     59 N          -1.3478  -12.4286  -44.9059 N.am      3 UNK        -0.5000 
     60 C          -0.0325  -12.2463  -44.7142 C.2       2 UNK         0.5000 
     61 O           0.4614  -11.9005  -43.6396 O.2       2 UNK        -0.5000 
     62 CA          0.8665  -12.4963  -45.9427 C.3       2 UNK         0.1400 
     63 CB          2.3503  -12.6981  -45.5897 C.3       2 UNK        -0.1800 
     64 N           0.3744  -13.6525  -46.6922 N.am      2 UNK        -0.5000 
     65 C          -0.0381  -13.6399  -47.9667 C.2       1 UNK         0.5000 
     66 O           0.0878  -12.6670  -48.7111 O.2       1 UNK        -0.5000 
     67 C           1.6149  -22.5994  -47.8545 C.2       11 UNK         0.5000 
     68 O           1.7220  -23.3934  -48.7902 O.2       11 UNK        -0.5000 
     69 N           0.4886  -21.9266  -47.5711 N.am      12 UNK        -0.5000 
     70 CA         -0.7751  -22.0854  -48.2873 C.3       12 UNK         0.1400 
     71 CB         -1.7800  -21.0163  -47.8213 C.3       12 UNK        -0.1800 
     72 C          -1.3716  -23.4927  -48.1074 C.2       12 UNK         0.5000 
     73 O          -1.6745  -24.1572  -49.0989 O.2       12 UNK        -0.5000 
     74 N          -1.5399  -23.9080  -46.8425 N.am      13 UNK        -0.5000 
     75 CA         -2.1897  -25.1304  -46.3505 C.3       13 UNK         0.1400 
     76 CB         -1.4753  -26.4005  -46.8500 C.3       13 UNK        -0.1800 
     77 C          -3.7069  -25.1737  -46.6318 C.2       13 UNK         0.5000 
     78 O          -4.4927  -25.3543  -45.7002 O.2       13 UNK        -0.5000 
     79 N          -4.0902  -24.9719  -47.8970 N.am      14 UNK        -0.5000 
     80 CA         -5.4496  -24.6717  -48.3412 C.3       14 UNK         0.1400 
     81 CB         -5.6195  -25.1992  -49.7779 C.3       14 UNK        -0.1800 
     82 C          -5.7164  -23.1528  -48.2510 C.2       14 UNK         0.5000 
     83 O          -4.8791  -22.4048  -47.7402 O.2       14 UNK        -0.5000 
     84 N          -6.8822  -22.7135  -48.7457 N.am      15 UNK        -0.5000 
     85 CA         -7.2810  -21.3053  -48.8142 C.3       15 UNK         0.1400 
     86 CB         -8.7189  -21.2115  -49.3483 C.3       15 UNK        -0.1800 
     87 C          -6.3185  -20.4837  -49.6930 C.2       15 UNK         0.5000 
     88 O          -6.1906  -20.7800  -50.8837 O.2       15 UNK        -0.5000 
     89 N          -5.6539  -19.4932  -49.0835 N.am      16 UNK        -0.5000 
     90 CA         -4.6413  -18.6233  -49.6856 C.3       16 UNK         0.1400 
     91 CB         -4.2044  -17.5844  -48.6439 C.3       16 UNK        -0.1800 
     92 C          -5.1291  -17.9391  -50.9740 C.2       16 UNK         0.5000 
     93 O          -6.1525  -17.2528  -50.9396 O.2       16 UNK        -0.5000 
     94 N          -4.4169  -18.1794  -52.0845 N.am      17 UNK        -0.5000 
     95 CA         -4.6700  -17.7227  -53.4586 C.3       17 UNK         0.1400 
     96 CB         -4.6502  -16.1855  -53.5512 C.3       17 UNK        -0.1800 
     97 C          -5.9374  -18.3057  -54.1206 C.2       17 UNK         0.5000 
     98 O          -5.9124  -18.5755  -55.3211 O.2       17 UNK        -0.5000 
     99 N          -7.0142  -18.4903  -53.3471 N.am      18 UNK        -0.5000 
    100 CA        -8.3014  -19.0296  -53.7850 C.3       18 UNK         0.1400 
    101 CB        -9.3357  -18.8261  -52.6676 C.3       18 UNK        -0.1800 
    102 C         -8.2255  -20.5119  -54.1912 C.2       18 UNK         0.5000 
    103 O         -8.8216  -20.8956  -55.1985 O.2       18 UNK        -0.5000 
    104 N         -7.4858  -21.3047  -53.4081 N.am      19 UNK        -0.5000 
    105 CA        -7.1936  -22.7122  -53.6713 C.3       19 UNK         0.1400 
    106 CB        -7.7863  -23.5773  -52.5483 C.3       19 UNK        -0.1800 
    107 C         -5.6763  -22.9136  -53.7747 C.2       19 UNK         0.5000 
    108 O         -5.2032  -23.5458  -54.7204 O.2       19 UNK        -0.5000 
    109 N         -4.9306  -22.3332  -52.8261 N.am      20 UNK        -0.5000 
    110 CA        -3.4728  -22.3232  -52.7801 C.3       20 UNK         0.1400 
    111 CB        -3.0262  -22.1365  -51.3232 C.3       20 UNK        -0.1800 
    112 C         -2.9103  -21.2329  -53.7090 C.2       20 UNK         0.5000 
    113 O         -2.3542  -20.2402  -53.2375 O.2       20 UNK        -0.5000 
    114 N         -3.1084  -21.4242  -55.0173 N.am      21 UNK        -0.5000 
    115 CA        -2.5720  -20.5689  -56.0768 C.3       21 UNK         0.1400 
    116 CB        -3.5231  -20.6267  -57.2822 C.3       21 UNK        -0.1800 
    117 C         -1.1484  -20.9855  -56.4976 C.2       21 UNK         0.5000 
    118 O         -0.4324  -20.1741  -57.0847 O.2       21 UNK        -0.5000 
    119 N         -0.7761  -22.2406  -56.2049 N.am      22 UNK        -0.5000 
    120 CA         0.5041  -22.8910  -56.5469 C.3       22 UNK         0.1400 
    121 C          0.7101  -23.1669  -58.0696 C.2       22 UNK         0.5000 
    122 N         -0.3233  -23.1074  -58.9009 N.am      22 UNK        -0.7600 
    123 O          1.8166  -23.4727  -58.5066 O.2       22 UNK        -0.5000 
    124 C124        1.7452  -22.2142  -55.8983 C.3       23 UNK        -0.0398 
    125 S125        1.6168  -22.0515  -54.0834 S.3       23 UNK        -0.2404 
    126 C126        1.8877  -20.2641  -53.8994 C.3       23 UNK        -0.0205 
    127 H127       -1.8913  -17.7121  -45.8561 H         1 UNK         0.0600 
    128 H128       -3.3842  -16.9184  -45.3542 H         1 UNK         0.0600 
    129 H129       -1.8606  -16.5136  -44.5549 H         1 UNK         0.0600 
    130 H130       -0.6149  -16.7287  -47.4311 H         1 UNK         0.3000 
    131 H131       -1.6824  -14.5440  -48.9408 H         1 UNK         0.0600 
    132 H132        0.9346  -16.1094  -49.2249 H         1 UNK         0.0800 
    133 H133        0.4458  -14.8520  -50.3292 H         1 UNK         0.0800 
    134 H134       -1.3271  -19.0585  -50.0824 H         1 UNK         0.0800 
    135 H135       -0.4133  -18.2691  -48.8160 H         1 UNK         0.0800 
    136 H136       -0.1618  -19.2449  -52.4280 H         1 UNK         0.1150 
    137 H137        3.9660  -20.3505  -52.1346 H         1 UNK         0.1150 
    138 H138        1.9414  -18.6821  -48.7386 H         1 UNK         0.1150 
    139 H139        5.2308  -19.4341  -50.2049 H         1 UNK         0.0800 
    140 H140        4.4193  -18.8642  -48.7739 H         1 UNK         0.0800 
    141 H141        2.9793  -20.2450  -47.3237 H         1 UNK         0.0800 
    142 H142        4.3500  -20.9047  -46.4813 H         1 UNK         0.0800 
    143 H143        3.4736  -23.2455  -47.0120 H         1 UNK         0.0600 
    144 H144        2.5475  -21.4781  -45.0065 H         1 UNK         0.3000 
    145 H145        0.5871  -23.8212  -43.1580 H         1 UNK         0.0600 
    146 H146        2.1144  -23.0429  -41.3676 H         1 UNK         0.0600 
    147 H147        2.9498  -24.1687  -42.4274 H         1 UNK         0.0600 
    148 H148        3.2598  -22.4421  -42.5639 H         1 UNK         0.0600 
    149 H149        1.1790  -21.0758  -42.6986 H         1 UNK         0.3000 
    150 H150       -1.5478  -19.7227  -44.6177 H         1 UNK         0.0600 
    151 H151       -1.8880  -18.6036  -42.4156 H         1 UNK         0.0600 
    152 H152       -0.9304  -19.8517  -41.6204 H         1 UNK         0.0600 
    153 H153       -2.4578  -20.2666  -42.3845 H         1 UNK         0.0600 
    154 H154        0.5642  -18.4784  -43.1325 H         1 UNK         0.3000 
    155 H155        2.9306  -18.3007  -45.7955 H         1 UNK         0.0600 
    156 H156        2.8008  -15.8807  -45.2052 H         1 UNK         0.0600 
    157 H157        1.1745  -16.1196  -44.5583 H         1 UNK         0.0600 
    158 H158        1.4989  -16.3752  -46.2714 H         1 UNK         0.0600 
    159 H159        2.8098  -17.3637  -43.0561 H         1 UNK         0.3000 
    160 H160        4.4193  -20.2468  -41.6704 H         1 UNK         0.0600 
    161 H161        5.4475  -17.3982  -42.1628 H         1 UNK         0.0600 
    162 H162        6.2704  -18.8771  -42.6447 H         1 UNK         0.0600 
    163 H163        6.0429  -18.5215  -40.9400 H         1 UNK         0.0600 
    164 H164        3.6180  -17.7619  -40.5215 H         1 UNK         0.3000 
    165 H165        0.2304  -18.5337  -39.8685 H         1 UNK         0.0600 
    166 H166        0.8891  -18.2097  -37.5021 H         1 UNK         0.0600 
    167 H167        1.3955  -19.7983  -38.0535 H         1 UNK         0.0600 
    168 H168        2.5818  -18.5078  -37.9002 H         1 UNK         0.0600 
    169 H169        1.7975  -16.3805  -38.9661 H         1 UNK         0.3000 
    170 H170        1.9777  -14.4241  -39.8837 H         1 UNK         0.0600 
    171 H171        3.3359  -14.7819  -41.9548 H         1 UNK         0.0600 
    172 H172        1.9279  -14.4011  -42.9394 H         1 UNK         0.0600 
    173 H173        2.6457  -13.1647  -41.9111 H         1 UNK         0.0600 
    174 H174        0.1209  -13.2760  -41.6959 H         1 UNK         0.3000 
    175 H175       -2.8556  -13.6654  -40.0933 H         1 UNK         0.0600 
    176 H176       -1.2206  -11.2188  -39.2322 H         1 UNK         0.0600 
    177 H177       -2.9815  -11.3240  -39.2685 H         1 UNK         0.0600 
    178 H178       -2.0658  -12.3164  -38.1477 H         1 UNK         0.0600 
    179 H179       -1.9111  -11.4083  -41.5778 H         1 UNK         0.3000 
    180 H180       -3.3487  -12.5266  -44.4532 H         1 UNK         0.0600 
    181 H181       -2.7840  -10.1358  -44.6158 H         1 UNK         0.0600 
    182 H182       -1.7031  -10.2390  -43.2338 H         1 UNK         0.0600 
    183 H183       -3.4378  -10.4782  -43.0266 H         1 UNK         0.0600 
    184 H184       -1.6472  -12.8103  -45.7947 H         1 UNK         0.3000 
    185 H185        0.7941  -11.5918  -46.5496 H         1 UNK         0.0600 
    186 H186        2.5026  -13.5740  -44.9637 H         1 UNK         0.0600 
    187 H187        2.9521  -12.8244  -46.4897 H         1 UNK         0.0600 
    188 H188        2.7482  -11.8362  -45.0529 H         1 UNK         0.0600 
    189 H189        0.1974  -14.4851  -46.1500 H         1 UNK         0.3000 
    190 H190        0.5007  -21.2445  -46.8201 H         1 UNK         0.3000 
    191 H191       -0.5695  -21.9251  -49.3471 H         1 UNK         0.0600 
    192 H192       -2.6426  -20.9827  -48.4865 H         1 UNK         0.0600 
    193 H193       -1.3385  -20.0243  -47.8043 H         1 UNK         0.0600 
    194 H194       -2.1581  -21.2127  -46.8185 H         1 UNK         0.0600 
    195 H195       -1.2858  -23.2525  -46.1059 H         1 UNK         0.3000 
    196 H196       -2.0725  -25.0994  -45.2661 H         1 UNK         0.0600 
    197 H197       -1.5638  -26.5267  -47.9291 H         1 UNK         0.0600 
    198 H198       -0.4141  -26.3756  -46.6015 H         1 UNK         0.0600 
    199 H199       -1.8989  -27.2907  -46.3837 H         1 UNK         0.0600 
    200 H200       -3.3478  -24.7693  -48.5616 H         1 UNK         0.3000 
    201 H201       -6.1660  -25.1818  -47.6944 H         1 UNK         0.0600 
    202 H202       -5.0220  -24.6341  -50.4936 H         1 UNK         0.0600 
    203 H203       -6.6594  -25.1450  -50.0995 H         1 UNK         0.0600 
    204 H204       -5.3216  -26.2454  -49.8499 H         1 UNK         0.0600 
    205 H205       -7.5226  -23.3784  -49.1523 H         1 UNK         0.3000 
    206 H206       -7.2686  -20.9043  -47.7986 H         1 UNK         0.0600 
    207 H207       -9.4131  -21.7621  -48.7133 H         1 UNK         0.0600 
    208 H208       -9.0567  -20.1748  -49.3730 H         1 UNK         0.0600 
    209 H209       -8.8038  -21.6080  -50.3608 H         1 UNK         0.0600 
    210 H210       -5.8331  -19.3363  -48.1031 H         1 UNK         0.3000 
    211 H211       -3.7734  -19.2371  -49.9224 H         1 UNK         0.0600 
    212 H212       -3.4864  -16.8814  -49.0653 H         1 UNK         0.0600 
    213 H213       -3.7278  -18.0657  -47.7903 H         1 UNK         0.0600 
    214 H214       -5.0495  -17.0014  -48.2756 H         1 UNK         0.0600 
    215 H215       -3.6156  -18.7948  -52.0130 H         1 UNK         0.3000 
    216 H216       -3.8256  -18.0884  -54.0441 H         1 UNK         0.0600 
    217 H217       -5.4862  -15.7321  -53.0182 H         1 UNK         0.0600 
    218 H218       -4.7133  -15.8592  -54.5900 H         1 UNK         0.0600 
    219 H219       -3.7272  -15.7785  -53.1379 H         1 UNK         0.0600 
    220 H220       -6.9418  -18.1938  -52.3782 H         1 UNK         0.3000 
    221 H221       -8.6250  -18.4603  -54.6588 H         1 UNK         0.0600 
    222 H222       -9.4627  -17.7683  -52.4365 H         1 UNK         0.0600 
    223 H223       -9.0401  -19.3352  -51.7500 H         1 UNK         0.0600 
    224 H224      -10.3117  -19.2149  -52.9611 H         1 UNK         0.0600 
    225 H225       -7.0333  -20.8982  -52.5946 H         1 UNK         0.3000 
    226 H226       -7.6329  -23.0309  -54.6187 H         1 UNK         0.0600 
    227 H227       -7.3838  -23.3008  -51.5744 H         1 UNK         0.0600 
    228 H228       -8.8703  -23.4724  -52.5033 H         1 UNK         0.0600 
    229 H229       -7.5659  -24.6333  -52.7094 H         1 UNK         0.0600 
    230 H230       -5.3965  -21.8027  -52.0927 H         1 UNK         0.3000 
    231 H231       -3.0921  -23.2873  -53.1237 H         1 UNK         0.0600 
    232 H232       -3.3692  -21.1889  -50.9149 H         1 UNK         0.0600 
    233 H233       -1.9390  -22.1573  -51.2482 H         1 UNK         0.0600 
    234 H234       -3.4154  -22.9285  -50.6859 H         1 UNK         0.0600 
    235 H235       -3.6549  -22.2294  -55.3023 H         1 UNK         0.3000 
    236 H236       -2.5278  -19.5357  -55.7263 H         1 UNK         0.0600 
    237 H237       -4.5236  -20.2906  -57.0098 H         1 UNK         0.0600 
    238 H238       -3.1728  -19.9808  -58.0883 H         1 UNK         0.0600 
    239 H239       -3.6079  -21.6377  -57.6824 H         1 UNK         0.0600 
    240 H240       -1.4398  -22.8244  -55.7191 H         1 UNK         0.3000 
    241 H241        0.4329  -23.8873  -56.1095 H         1 UNK         0.0600 
    242 H242       -0.1826  -23.2982  -59.8808 H         1 UNK         0.3800 
    243 H243       -1.2424  -22.8733  -58.5629 H         1 UNK         0.3800 
    244 H244        1.9218  -21.2380  -56.3517 H         1 UNK         0.0800 
    245 H245        2.6436  -22.8002  -56.0987 H         1 UNK         0.0800 
    246 H246        1.1079  -19.7249  -54.4404 H         1 UNK         0.0800 
    247 H247        2.8351  -19.9894  -54.3657 H         1 UNK         0.0800 
@<TRIPOS>BOND
     1    1    2 1    
     2    1  127 1    
     3    1  128 1    
     4    1  129 1    
     5    2    3 2    
     6    2    4 am   BACKBONE|DICT|INTERRES
     7    4    5 1    
     8    4  130 1    
     9    5    6 1    
    10    5   65 1    
    11    5  131 1    
    12    6    7 1    
    13    6  132 1    
    14    6  133 1    
    15    7    8 1    
    16    8    9 1    
    17    8  134 1    
    18    8  135 1    
    19    9   10 ar   
    20    9   14 ar   
    21   10   11 ar   
    22   10  136 1    
    23   11   12 ar   
    24   11  126 1    
    25   12   13 ar   
    26   12  137 1    
    27   13   14 ar   
    28   13   15 1    
    29   14  138 1    
    30   15   16 1    
    31   15  139 1    
    32   15  140 1    
    33   16   17 1    
    34   17   18 1    
    35   17  141 1    
    36   17  142 1    
    37   18   19 1    
    38   18   67 1    
    39   18  143 1    
    40   19   20 am   BACKBONE|DICT|INTERRES
    41   19  144 1    
    42   20   21 2    
    43   20   22 1    
    44   22   23 1    
    45   22   24 1    
    46   22  145 1    
    47   23  146 1    
    48   23  147 1    
    49   23  148 1    
    50   24   25 am   BACKBONE|DICT|INTERRES
    51   24  149 1    
    52   25   26 2    
    53   25   27 1    
    54   27   28 1    
    55   27   29 1    
    56   27  150 1    
    57   28  151 1    
    58   28  152 1    
    59   28  153 1    
    60   29   30 am   BACKBONE|DICT|INTERRES
    61   29  154 1    
    62   30   31 2    
    63   30   32 1    
    64   32   33 1    
    65   32   34 1    
    66   32  155 1    
    67   33  156 1    
    68   33  157 1    
    69   33  158 1    
    70   34   35 am   BACKBONE|DICT|INTERRES
    71   34  159 1    
    72   35   36 2    
    73   35   37 1    
    74   37   38 1    
    75   37   39 1    
    76   37  160 1    
    77   38  161 1    
    78   38  162 1    
    79   38  163 1    
    80   39   40 am   BACKBONE|DICT|INTERRES
    81   39  164 1    
    82   40   41 2    
    83   40   42 1    
    84   42   43 1    
    85   42   44 1    
    86   42  165 1    
    87   43  166 1    
    88   43  167 1    
    89   43  168 1    
    90   44   45 am   BACKBONE|DICT|INTERRES
    91   44  169 1    
    92   45   46 2    
    93   45   47 1    
    94   47   48 1    
    95   47   49 1    
    96   47  170 1    
    97   48  171 1    
    98   48  172 1    
    99   48  173 1    
   100   49   50 am   BACKBONE|DICT|INTERRES
   101   49  174 1    
   102   50   51 2    
   103   50   52 1    
   104   52   53 1    
   105   52   54 1    
   106   52  175 1    
   107   53  176 1    
   108   53  177 1    
   109   53  178 1    
   110   54   55 am   BACKBONE|DICT|INTERRES
   111   54  179 1    
   112   55   56 2    
   113   55   57 1    
   114   57   58 1    
   115   57   59 1    
   116   57  180 1    
   117   58  181 1    
   118   58  182 1    
   119   58  183 1    
   120   59   60 am   BACKBONE|DICT|INTERRES
   121   59  184 1    
   122   60   61 2    
   123   60   62 1    
   124   62   63 1    
   125   62   64 1    
   126   62  185 1    
   127   63  186 1    
   128   63  187 1    
   129   63  188 1    
   130   64   65 am   BACKBONE|DICT|INTERRES
   131   64  189 1    
   132   65   66 2    
   133   67   68 2    
   134   67   69 am   BACKBONE|DICT|INTERRES
   135   69   70 1    
   136   69  190 1    
   137   70   71 1    
   138   70   72 1    
   139   70  191 1    
   140   71  192 1    
   141   71  193 1    
   142   71  194 1    
   143   72   73 2    
   144   72   74 am   BACKBONE|DICT|INTERRES
   145   74   75 1    
   146   74  195 1    
   147   75   76 1    
   148   75   77 1    
   149   75  196 1    
   150   76  197 1    
   151   76  198 1    
   152   76  199 1    
   153   77   78 2    
   154   77   79 am   BACKBONE|DICT|INTERRES
   155   79   80 1    
   156   79  200 1    
   157   80   81 1    
   158   80   82 1    
   159   80  201 1    
   160   81  202 1    
   161   81  203 1    
   162   81  204 1    
   163   82   83 2    
   164   82   84 am   BACKBONE|DICT|INTERRES
   165   84   85 1    
   166   84  205 1    
   167   85   86 1    
   168   85   87 1    
   169   85  206 1    
   170   86  207 1    
   171   86  208 1    
   172   86  209 1    
   173   87   88 2    
   174   87   89 am   BACKBONE|DICT|INTERRES
   175   89   90 1    
   176   89  210 1    
   177   90   91 1    
   178   90   92 1    
   179   90  211 1    
   180   91  212 1    
   181   91  213 1    
   182   91  214 1    
   183   92   93 2    
   184   92   94 am   BACKBONE|DICT|INTERRES
   185   94   95 1    
   186   94  215 1    
   187   95   96 1    
   188   95   97 1    
   189   95  216 1    
   190   96  217 1    
   191   96  218 1    
   192   96  219 1    
   193   97   98 2    
   194   97   99 am   BACKBONE|DICT|INTERRES
   195   99  100 1    
   196   99  220 1    
   197  100  101 1    
   198  100  102 1    
   199  100  221 1    
   200  101  222 1    
   201  101  223 1    
   202  101  224 1    
   203  102  103 2    
   204  102  104 am   BACKBONE|DICT|INTERRES
   205  104  105 1    
   206  104  225 1    
   207  105  106 1    
   208  105  107 1    
   209  105  226 1    
   210  106  227 1    
   211  106  228 1    
   212  106  229 1    
   213  107  108 2    
   214  107  109 am   BACKBONE|DICT|INTERRES
   215  109  110 1    
   216  109  230 1    
   217  110  111 1    
   218  110  112 1    
   219  110  231 1    
   220  111  232 1    
   221  111  233 1    
   222  111  234 1    
   223  112  113 2    
   224  112  114 am   BACKBONE|DICT|INTERRES
   225  114  115 1    
   226  114  235 1    
   227  115  116 1    
   228  115  117 1    
   229  115  236 1    
   230  116  237 1    
   231  116  238 1    
   232  116  239 1    
   233  117  118 2    
   234  117  119 am   BACKBONE|DICT|INTERRES
   235  119  120 1    
   236  119  240 1    
   237  120  121 1    
   238  120  124 1    
   239  120  241 1    
   240  121  122 am   BACKBONE|DICT|INTERRES
   241  121  123 2    
   242  122  242 1    
   243  122  243 1    
   244  124  125 1    
   245  124  244 1    
   246  124  245 1    
   247  125  126 1    
   248  126  246 1    
   249  126  247 1    
@<TRIPOS>SUBSTRUCTURE
     1 UNK         1 GROUP             0       ****    0 ROOT    
