@<TRIPOS>MOLECULE
3R540
247   249    1
SMALL
USER_CHARGES


@<TRIPOS>ATOM
      1 CA          6.3860  -14.7956  -43.0664 C.3       0 UNK        -0.1800 
      2 C           5.2946  -15.2428  -44.0255 C.2       0 UNK         0.5000 
      3 O           4.1116  -15.1167  -43.7071 O.2       0 UNK        -0.5000 
      4 N           5.6892  -15.7861  -45.1831 N.am      1 UNK        -0.5000 
      5 CA          4.7947  -16.2177  -46.2647 C.3       1 UNK         0.1400 
      6 C6          5.5208  -17.2265  -47.2075 C.3       23 UNK        -0.0398 
      7 S7          4.9049  -17.4160  -48.9204 S.3       23 UNK        -0.2404 
      8 C8          3.6411  -18.7127  -48.7385 C.3       23 UNK        -0.0205 
      9 C9          2.3465  -18.2772  -49.4031 C.ar      23 UNK        -0.0193 
     10 C10         2.0402  -18.6679  -50.7110 C.ar      23 UNK        -0.1150 
     11 C11         0.8570  -18.2352  -51.3218 C.ar      23 UNK        -0.0193 
     12 C12        -0.0176  -17.4069  -50.6122 C.ar      23 UNK        -0.1150 
     13 C13         0.2708  -17.0292  -49.2996 C.ar      23 UNK        -0.0193 
     14 C14         1.4564  -17.4617  -48.7039 C.ar      23 UNK        -0.1150 
     15 C15        -0.7116  -16.1808  -48.5136 C.3       23 UNK        -0.0205 
     16 S16        -2.0461  -17.2027  -47.8125 S.3       23 UNK        -0.2404 
     17 C17        -1.1445  -18.2337  -46.6032 C.3       23 UNK        -0.0398 
     18 CA         -0.7341  -19.6257  -47.1505 C.3       11 UNK         0.1400 
     19 N           0.2643  -20.2702  -46.2927 N.am      11 UNK        -0.5000 
     20 C           0.8920  -21.4214  -46.5753 C.2       10 UNK         0.5000 
     21 O           0.7598  -22.0396  -47.6291 O.2       10 UNK        -0.5000 
     22 CA          1.7693  -22.0185  -45.4645 C.3       10 UNK         0.1400 
     23 CB          3.1695  -21.3875  -45.4778 C.3       10 UNK        -0.1800 
     24 N           1.1489  -21.8654  -44.1467 N.am      10 UNK        -0.5000 
     25 C           0.0433  -22.5214  -43.7600 C.2       9 UNK         0.5000 
     26 O          -0.5322  -23.3567  -44.4563 O.2       9 UNK        -0.5000 
     27 CA         -0.5473  -22.1495  -42.3871 C.3       9 UNK         0.1400 
     28 CB          0.1603  -22.9233  -41.2650 C.3       9 UNK        -0.1800 
     29 N          -0.4696  -20.7146  -42.1121 N.am      9 UNK        -0.5000 
     30 C          -1.1269  -19.7708  -42.8017 C.2       8 UNK         0.5000 
     31 O          -1.9250  -20.0179  -43.7050 O.2       8 UNK        -0.5000 
     32 CA         -0.7844  -18.3051  -42.4717 C.3       8 UNK         0.1400 
     33 CB         -1.7240  -17.7495  -41.3930 C.3       8 UNK        -0.1800 
     34 N           0.6063  -18.1275  -42.0459 N.am      8 UNK        -0.5000 
     35 C           1.6717  -18.3684  -42.8199 C.2       7 UNK         0.5000 
     36 O           1.5842  -18.7012  -44.0039 O.2       7 UNK        -0.5000 
     37 CA          3.0440  -18.2383  -42.1353 C.3       7 UNK         0.1400 
     38 CB          4.2164  -18.6323  -43.0489 C.3       7 UNK        -0.1800 
     39 N           3.2554  -16.8793  -41.6408 N.am      7 UNK        -0.5000 
     40 C           2.9160  -16.4556  -40.4160 C.2       6 UNK         0.5000 
     41 O           2.3016  -17.1542  -39.6088 O.2       6 UNK        -0.5000 
     42 CA          3.3102  -15.0247  -40.0239 C.3       6 UNK         0.1400 
     43 CB          4.7468  -14.9775  -39.4767 C.3       6 UNK        -0.1800 
     44 N           3.1620  -14.0931  -41.1400 N.am      6 UNK        -0.5000 
     45 C           2.8243  -12.8053  -41.0064 C.2       5 UNK         0.5000 
     46 O           2.6979  -12.2391  -39.9193 O.2       5 UNK        -0.5000 
     47 CA          2.5574  -12.0120  -42.3010 C.3       5 UNK         0.1400 
     48 CB          3.8309  -11.2807  -42.7517 C.3       5 UNK        -0.1800 
     49 N           2.0419  -12.8156  -43.4139 N.am      5 UNK        -0.5000 
     50 C           0.9119  -13.5399  -43.3956 C.2       4 UNK         0.5000 
     51 O           0.1734  -13.6223  -42.4123 O.2       4 UNK        -0.5000 
     52 CA          0.5462  -14.2831  -44.6997 C.3       4 UNK         0.1400 
     53 CB         -0.9128  -14.7873  -44.7031 C.3       4 UNK        -0.1800 
     54 N           0.8322  -13.4937  -45.9040 N.am      4 UNK        -0.5000 
     55 C           0.3399  -12.2809  -46.2110 C.2       3 UNK         0.5000 
     56 O          -0.5173  -11.7037  -45.5401 O.2       3 UNK        -0.5000 
     57 CA          0.9002  -11.5896  -47.4768 C.3       3 UNK         0.1400 
     58 CB          0.8992  -10.0511  -47.3551 C.3       3 UNK        -0.1800 
     59 N           2.2267  -12.0655  -47.8899 N.am      3 UNK        -0.5000 
     60 C           3.3607  -12.0346  -47.1749 C.2       2 UNK         0.5000 
     61 O           3.4513  -11.5871  -46.0311 O.2       2 UNK        -0.5000 
     62 CA          4.5897  -12.6865  -47.8351 C.3       2 UNK         0.1400 
     63 CB          5.7954  -11.7333  -47.8222 C.3       2 UNK        -0.1800 
     64 N           4.9685  -13.9429  -47.1854 N.am      2 UNK        -0.5000 
     65 C           4.1639  -14.9953  -46.9689 C.2       1 UNK         0.5000 
     66 O           2.9673  -15.0153  -47.2603 O.2       1 UNK        -0.5000 
     67 C          -1.9465  -20.5458  -47.3986 C.2       11 UNK         0.5000 
     68 O          -2.3020  -20.7848  -48.5529 O.2       11 UNK        -0.5000 
     69 N          -2.5143  -21.0974  -46.3160 N.am      12 UNK        -0.5000 
     70 CA         -3.6219  -22.0515  -46.3572 C.3       12 UNK         0.1400 
     71 CB         -4.0841  -22.3687  -44.9278 C.3       12 UNK        -0.1800 
     72 C          -3.2796  -23.3429  -47.1211 C.2       12 UNK         0.5000 
     73 O          -4.1053  -23.8110  -47.9046 O.2       12 UNK        -0.5000 
     74 N          -2.0689  -23.8764  -46.9082 N.am      13 UNK        -0.5000 
     75 CA         -1.5522  -25.0533  -47.6052 C.3       13 UNK         0.1400 
     76 CB         -0.2523  -25.5260  -46.9369 C.3       13 UNK        -0.1800 
     77 C          -1.3386  -24.8082  -49.1096 C.2       13 UNK         0.5000 
     78 O          -1.7853  -25.6200  -49.9201 O.2       13 UNK        -0.5000 
     79 N          -0.6856  -23.6899  -49.4575 N.am      14 UNK        -0.5000 
     80 CA         -0.3883  -23.2918  -50.8354 C.3       14 UNK         0.1400 
     81 CB          0.5631  -22.0854  -50.8303 C.3       14 UNK        -0.1800 
     82 C          -1.6512  -22.9854  -51.6588 C.2       14 UNK         0.5000 
     83 O          -1.7295  -23.3821  -52.8220 O.2       14 UNK        -0.5000 
     84 N          -2.6264  -22.3143  -51.0325 N.am      15 UNK        -0.5000 
     85 CA         -3.9121  -21.9716  -51.6375 C.3       15 UNK         0.1400 
     86 CB         -4.4998  -20.7691  -50.8837 C.3       15 UNK        -0.1800 
     87 C          -4.9159  -23.1417  -51.6496 C.2       15 UNK         0.5000 
     88 O          -5.9703  -23.0137  -52.2772 O.2       15 UNK        -0.5000 
     89 N          -4.5995  -24.2309  -50.9330 N.am      16 UNK        -0.5000 
     90 CA         -5.4233  -25.4199  -50.6923 C.3       16 UNK         0.1400 
     91 CB         -5.6124  -26.2263  -51.9926 C.3       16 UNK        -0.1800 
     92 C          -6.7574  -25.0517  -50.0150 C.2       16 UNK         0.5000 
     93 O          -7.8282  -25.3620  -50.5361 O.2       16 UNK        -0.5000 
     94 N          -6.6613  -24.3126  -48.9004 N.am      17 UNK        -0.5000 
     95 CA         -7.7661  -23.7170  -48.1356 C.3       17 UNK         0.1400 
     96 CB         -8.6028  -24.8133  -47.4447 C.3       17 UNK        -0.1800 
     97 C          -8.6251  -22.7444  -48.9772 C.2       17 UNK         0.5000 
     98 O          -9.8303  -22.6259  -48.7531 O.2       17 UNK        -0.5000 
     99 N          -7.9722  -22.0877  -49.9479 N.am      18 UNK        -0.5000 
    100 CA        -8.5195  -21.1892  -50.9692 C.3       18 UNK         0.1400 
    101 CB        -9.2168  -19.9686  -50.3336 C.3       18 UNK        -0.1800 
    102 C         -9.3910  -21.8891  -52.0338 C.2       18 UNK         0.5000 
    103 O        -10.0525  -21.1973  -52.8097 O.2       18 UNK        -0.5000 
    104 N         -9.3666  -23.2300  -52.0927 N.am      19 UNK        -0.5000 
    105 CA       -10.0696  -24.0069  -53.1153 C.3       19 UNK         0.1400 
    106 CB       -10.2714  -25.4504  -52.6306 C.3       19 UNK        -0.1800 
    107 C         -9.3308  -23.9907  -54.4652 C.2       19 UNK         0.5000 
    108 O         -9.9869  -24.0170  -55.5075 O.2       19 UNK        -0.5000 
    109 N         -7.9918  -23.9435  -54.4256 N.am      20 UNK        -0.5000 
    110 CA        -7.1389  -23.8592  -55.6112 C.3       20 UNK         0.1400 
    111 CB        -5.9101  -24.7652  -55.4295 C.3       20 UNK        -0.1800 
    112 C         -6.7035  -22.4100  -55.8743 C.2       20 UNK         0.5000 
    113 O         -6.7426  -21.9705  -57.0243 O.2       20 UNK        -0.5000 
    114 N         -6.3057  -21.7110  -54.7988 N.am      21 UNK        -0.5000 
    115 CA        -5.6851  -20.3816  -54.7541 C.3       21 UNK         0.1400 
    116 CB        -6.5990  -19.3114  -55.3842 C.3       21 UNK        -0.1800 
    117 C         -4.2625  -20.3553  -55.3569 C.2       21 UNK         0.5000 
    118 O         -3.8549  -21.2782  -56.0661 O.2       21 UNK        -0.5000 
    119 N         -3.5134  -19.2945  -55.0414 N.am      22 UNK        -0.5000 
    120 CA        -2.1262  -19.0932  -55.4946 C.3       22 UNK         0.1400 
    121 C         -1.7338  -17.5999  -55.6924 C.2       22 UNK         0.5000 
    122 N         -2.6698  -16.6574  -55.6776 N.am      22 UNK        -0.7600 
    123 O         -0.5642  -17.2854  -55.8941 O.2       22 UNK        -0.5000 
    124 C124       -1.1007  -19.9113  -54.6602 C.3       23 UNK        -0.0398 
    125 S125       -1.0728  -19.4915  -52.8830 S.3       23 UNK        -0.2404 
    126 C126        0.5325  -18.6386  -52.7535 C.3       23 UNK        -0.0205 
    127 H127        7.3042  -14.5437  -43.5971 H         1 UNK         0.0600 
    128 H128        6.6068  -15.5915  -42.3558 H         1 UNK         0.0600 
    129 H129        6.0663  -13.9154  -42.5085 H         1 UNK         0.0600 
    130 H130        6.6786  -15.8837  -45.3622 H         1 UNK         0.3000 
    131 H131        3.9564  -16.7544  -45.8163 H         1 UNK         0.0600 
    132 H132        6.5637  -16.9253  -47.3176 H         1 UNK         0.0800 
    133 H133        5.5604  -18.2073  -46.7316 H         1 UNK         0.0800 
    134 H134        3.4543  -18.9251  -47.6847 H         1 UNK         0.0800 
    135 H135        4.0068  -19.6409  -49.1801 H         1 UNK         0.0800 
    136 H136        2.7286  -19.2990  -51.2549 H         1 UNK         0.1150 
    137 H137       -0.9358  -17.0743  -51.0757 H         1 UNK         0.1150 
    138 H138        1.6845  -17.1721  -47.6885 H         1 UNK         0.1150 
    139 H139       -0.1965  -15.6359  -47.7219 H         1 UNK         0.0800 
    140 H140       -1.1492  -15.4257  -49.1680 H         1 UNK         0.0800 
    141 H141       -1.7719  -18.3352  -45.7177 H         1 UNK         0.0800 
    142 H142       -0.2608  -17.6870  -46.2715 H         1 UNK         0.0800 
    143 H143       -0.2555  -19.4884  -48.1205 H         1 UNK         0.0600 
    144 H144        0.4745  -19.8163  -45.4114 H         1 UNK         0.3000 
    145 H145        1.8817  -23.0867  -45.6616 H         1 UNK         0.0600 
    146 H146        3.7931  -21.7882  -44.6789 H         1 UNK         0.0600 
    147 H147        3.6761  -21.5966  -46.4208 H         1 UNK         0.0600 
    148 H148        3.1297  -20.3042  -45.3693 H         1 UNK         0.0600 
    149 H149        1.5359  -21.1577  -43.5411 H         1 UNK         0.3000 
    150 H150       -1.6008  -22.4370  -42.3890 H         1 UNK         0.0600 
    151 H151        0.1017  -23.9990  -41.4369 H         1 UNK         0.0600 
    152 H152       -0.3013  -22.7247  -40.2976 H         1 UNK         0.0600 
    153 H153        1.2162  -22.6591  -41.1946 H         1 UNK         0.0600 
    154 H154        0.1591  -20.4236  -41.3784 H         1 UNK         0.3000 
    155 H155       -0.9313  -17.7271  -43.3851 H         1 UNK         0.0600 
    156 H156       -1.6022  -18.2725  -40.4437 H         1 UNK         0.0600 
    157 H157       -2.7675  -17.8515  -41.6941 H         1 UNK         0.0600 
    158 H158       -1.5389  -16.6891  -41.2192 H         1 UNK         0.0600 
    159 H159        0.7657  -17.8434  -41.0868 H         1 UNK         0.3000 
    160 H160        3.0516  -18.9353  -41.2945 H         1 UNK         0.0600 
    161 H161        5.1756  -18.4503  -42.5640 H         1 UNK         0.0600 
    162 H162        4.2055  -18.0812  -43.9866 H         1 UNK         0.0600 
    163 H163        4.1764  -19.6938  -43.2905 H         1 UNK         0.0600 
    164 H164        3.6877  -16.2372  -42.2976 H         1 UNK         0.3000 
    165 H165        2.6295  -14.7282  -39.2226 H         1 UNK         0.0600 
    166 H166        5.0022  -13.9792  -39.1212 H         1 UNK         0.0600 
    167 H167        4.8667  -15.6617  -38.6358 H         1 UNK         0.0600 
    168 H168        5.4760  -15.2593  -40.2355 H         1 UNK         0.0600 
    169 H169        3.2557  -14.4664  -42.0792 H         1 UNK         0.3000 
    170 H170        1.8005  -11.2614  -42.0658 H         1 UNK         0.0600 
    171 H171        4.2749  -10.7166  -41.9305 H         1 UNK         0.0600 
    172 H172        4.5847  -11.9769  -43.1206 H         1 UNK         0.0600 
    173 H173        3.6130  -10.5695  -43.5482 H         1 UNK         0.0600 
    174 H174        2.5757  -12.7762  -44.2734 H         1 UNK         0.3000 
    175 H175        1.1989  -15.1568  -44.7436 H         1 UNK         0.0600 
    176 H176       -1.1409  -15.3459  -45.6075 H         1 UNK         0.0600 
    177 H177       -1.0998  -15.4499  -43.8587 H         1 UNK         0.0600 
    178 H178       -1.6265  -13.9664  -44.6308 H         1 UNK         0.0600 
    179 H179        1.5456  -13.8850  -46.5138 H         1 UNK         0.3000 
    180 H180        0.2187  -11.8558  -48.2858 H         1 UNK         0.0600 
    181 H181        1.5068   -9.7123  -46.5153 H         1 UNK         0.0600 
    182 H182       -0.1106   -9.6685  -47.2030 H         1 UNK         0.0600 
    183 H183        1.2870   -9.5833  -48.2600 H         1 UNK         0.0600 
    184 H184        2.2551  -12.5126  -48.7957 H         1 UNK         0.3000 
    185 H185        4.3516  -12.9143  -48.8760 H         1 UNK         0.0600 
    186 H186        5.5480  -10.7852  -48.3015 H         1 UNK         0.0600 
    187 H187        6.1229  -11.5111  -46.8056 H         1 UNK         0.0600 
    188 H188        6.6415  -12.1584  -48.3623 H         1 UNK         0.0600 
    189 H189        5.9226  -14.0033  -46.8641 H         1 UNK         0.3000 
    190 H190       -2.1807  -20.8293  -45.3936 H         1 UNK         0.3000 
    191 H191       -4.4494  -21.5696  -46.8820 H         1 UNK         0.0600 
    192 H192       -3.2889  -22.8281  -44.3401 H         1 UNK         0.0600 
    193 H193       -4.9295  -23.0579  -44.9341 H         1 UNK         0.0600 
    194 H194       -4.4038  -21.4655  -44.4077 H         1 UNK         0.0600 
    195 H195       -1.4657  -23.4632  -46.2038 H         1 UNK         0.3000 
    196 H196       -2.2907  -25.8512  -47.5019 H         1 UNK         0.0600 
    197 H197        0.1436  -26.4120  -47.4346 H         1 UNK         0.0600 
    198 H198       -0.4199  -25.7878  -45.8921 H         1 UNK         0.0600 
    199 H199        0.5205  -24.7579  -46.9688 H         1 UNK         0.0600 
    200 H200       -0.3287  -23.0764  -48.7277 H         1 UNK         0.3000 
    201 H201        0.1265  -24.1252  -51.3177 H         1 UNK         0.0600 
    202 H202        1.4970  -22.3192  -50.3194 H         1 UNK         0.0600 
    203 H203        0.1163  -21.2236  -50.3317 H         1 UNK         0.0600 
    204 H204        0.8163  -21.7818  -51.8466 H         1 UNK         0.0600 
    205 H205       -2.4623  -21.9690  -50.0896 H         1 UNK         0.3000 
    206 H206       -3.7398  -21.6749  -52.6734 H         1 UNK         0.0600 
    207 H207       -3.7987  -19.9338  -50.8716 H         1 UNK         0.0600 
    208 H208       -5.4140  -20.4111  -51.3531 H         1 UNK         0.0600 
    209 H209       -4.7362  -21.0201  -49.8487 H         1 UNK         0.0600 
    210 H210       -3.7171  -24.2163  -50.4387 H         1 UNK         0.3000 
    211 H211       -4.8711  -26.0434  -49.9876 H         1 UNK         0.0600 
    212 H212       -6.0927  -27.1836  -51.7878 H         1 UNK         0.0600 
    213 H213       -4.6560  -26.4359  -52.4715 H         1 UNK         0.0600 
    214 H214       -6.2399  -25.6978  -52.7090 H         1 UNK         0.0600 
    215 H215       -5.7238  -24.1048  -48.5544 H         1 UNK         0.3000 
    216 H216       -7.3032  -23.1132  -47.3539 H         1 UNK         0.0600 
    217 H217       -9.3345  -24.3769  -46.7640 H         1 UNK         0.0600 
    218 H218       -7.9708  -25.4785  -46.8564 H         1 UNK         0.0600 
    219 H219       -9.1498  -25.4209  -48.1663 H         1 UNK         0.0600 
    220 H220       -6.9943  -22.3105  -50.0621 H         1 UNK         0.3000 
    221 H221       -7.6590  -20.8112  -51.5199 H         1 UNK         0.0600 
    222 H222      -10.1513  -20.2424  -49.8439 H         1 UNK         0.0600 
    223 H223       -8.5760  -19.4890  -49.5937 H         1 UNK         0.0600 
    224 H224       -9.4551  -19.2180  -51.0881 H         1 UNK         0.0600 
    225 H225       -8.8012  -23.7535  -51.4330 H         1 UNK         0.3000 
    226 H226      -11.0580  -23.5675  -53.2667 H         1 UNK         0.0600 
    227 H227      -10.7406  -25.4778  -51.6470 H         1 UNK         0.0600 
    228 H228      -10.9165  -26.0012  -53.3161 H         1 UNK         0.0600 
    229 H229       -9.3275  -25.9927  -52.5696 H         1 UNK         0.0600 
    230 H230       -7.5311  -23.8843  -53.5256 H         1 UNK         0.3000 
    231 H231       -7.6795  -24.2129  -56.4918 H         1 UNK         0.0600 
    232 H232       -6.2052  -25.8015  -55.2646 H         1 UNK         0.0600 
    233 H233       -5.2924  -24.4522  -54.5872 H         1 UNK         0.0600 
    234 H234       -5.2792  -24.7444  -56.3189 H         1 UNK         0.0600 
    235 H235       -6.2940  -22.2073  -53.9122 H         1 UNK         0.3000 
    236 H236       -5.5846  -20.1439  -53.6955 H         1 UNK         0.0600 
    237 H237       -6.6625  -19.4132  -56.4677 H         1 UNK         0.0600 
    238 H238       -7.6103  -19.3704  -54.9812 H         1 UNK         0.0600 
    239 H239       -6.2276  -18.3076  -55.1769 H         1 UNK         0.0600 
    240 H240       -3.8745  -18.5879  -54.4173 H         1 UNK         0.3000 
    241 H241       -2.0685  -19.4844  -56.5121 H         1 UNK         0.0600 
    242 H242       -3.6473  -16.8827  -55.5950 H         1 UNK         0.3800 
    243 H243       -2.3948  -15.6974  -55.8172 H         1 UNK         0.3800 
    244 H244       -1.3379  -20.9733  -54.7370 H         1 UNK         0.0800 
    245 H245       -0.0997  -19.8132  -55.0826 H         1 UNK         0.0800 
    246 H246        1.3128  -19.2889  -53.1517 H         1 UNK         0.0800 
    247 H247        0.5200  -17.7445  -53.3777 H         1 UNK         0.0800 
@<TRIPOS>BOND
     1    1    2 1    
     2    1  127 1    
     3    1  128 1    
     4    1  129 1    
     5    2    3 2    
     6    2    4 am   BACKBONE|DICT|INTERRES
     7    4    5 1    
     8    4  130 1    
     9    5    6 1    
    10    5   65 1    
    11    5  131 1    
    12    6    7 1    
    13    6  132 1    
    14    6  133 1    
    15    7    8 1    
    16    8    9 1    
    17    8  134 1    
    18    8  135 1    
    19    9   10 ar   
    20    9   14 ar   
    21   10   11 ar   
    22   10  136 1    
    23   11   12 ar   
    24   11  126 1    
    25   12   13 ar   
    26   12  137 1    
    27   13   14 ar   
    28   13   15 1    
    29   14  138 1    
    30   15   16 1    
    31   15  139 1    
    32   15  140 1    
    33   16   17 1    
    34   17   18 1    
    35   17  141 1    
    36   17  142 1    
    37   18   19 1    
    38   18   67 1    
    39   18  143 1    
    40   19   20 am   BACKBONE|DICT|INTERRES
    41   19  144 1    
    42   20   21 2    
    43   20   22 1    
    44   22   23 1    
    45   22   24 1    
    46   22  145 1    
    47   23  146 1    
    48   23  147 1    
    49   23  148 1    
    50   24   25 am   BACKBONE|DICT|INTERRES
    51   24  149 1    
    52   25   26 2    
    53   25   27 1    
    54   27   28 1    
    55   27   29 1    
    56   27  150 1    
    57   28  151 1    
    58   28  152 1    
    59   28  153 1    
    60   29   30 am   BACKBONE|DICT|INTERRES
    61   29  154 1    
    62   30   31 2    
    63   30   32 1    
    64   32   33 1    
    65   32   34 1    
    66   32  155 1    
    67   33  156 1    
    68   33  157 1    
    69   33  158 1    
    70   34   35 am   BACKBONE|DICT|INTERRES
    71   34  159 1    
    72   35   36 2    
    73   35   37 1    
    74   37   38 1    
    75   37   39 1    
    76   37  160 1    
    77   38  161 1    
    78   38  162 1    
    79   38  163 1    
    80   39   40 am   BACKBONE|DICT|INTERRES
    81   39  164 1    
    82   40   41 2    
    83   40   42 1    
    84   42   43 1    
    85   42   44 1    
    86   42  165 1    
    87   43  166 1    
    88   43  167 1    
    89   43  168 1    
    90   44   45 am   BACKBONE|DICT|INTERRES
    91   44  169 1    
    92   45   46 2    
    93   45   47 1    
    94   47   48 1    
    95   47   49 1    
    96   47  170 1    
    97   48  171 1    
    98   48  172 1    
    99   48  173 1    
   100   49   50 am   BACKBONE|DICT|INTERRES
   101   49  174 1    
   102   50   51 2    
   103   50   52 1    
   104   52   53 1    
   105   52   54 1    
   106   52  175 1    
   107   53  176 1    
   108   53  177 1    
   109   53  178 1    
   110   54   55 am   BACKBONE|DICT|INTERRES
   111   54  179 1    
   112   55   56 2    
   113   55   57 1    
   114   57   58 1    
   115   57   59 1    
   116   57  180 1    
   117   58  181 1    
   118   58  182 1    
   119   58  183 1    
   120   59   60 am   BACKBONE|DICT|INTERRES
   121   59  184 1    
   122   60   61 2    
   123   60   62 1    
   124   62   63 1    
   125   62   64 1    
   126   62  185 1    
   127   63  186 1    
   128   63  187 1    
   129   63  188 1    
   130   64   65 am   BACKBONE|DICT|INTERRES
   131   64  189 1    
   132   65   66 2    
   133   67   68 2    
   134   67   69 am   BACKBONE|DICT|INTERRES
   135   69   70 1    
   136   69  190 1    
   137   70   71 1    
   138   70   72 1    
   139   70  191 1    
   140   71  192 1    
   141   71  193 1    
   142   71  194 1    
   143   72   73 2    
   144   72   74 am   BACKBONE|DICT|INTERRES
   145   74   75 1    
   146   74  195 1    
   147   75   76 1    
   148   75   77 1    
   149   75  196 1    
   150   76  197 1    
   151   76  198 1    
   152   76  199 1    
   153   77   78 2    
   154   77   79 am   BACKBONE|DICT|INTERRES
   155   79   80 1    
   156   79  200 1    
   157   80   81 1    
   158   80   82 1    
   159   80  201 1    
   160   81  202 1    
   161   81  203 1    
   162   81  204 1    
   163   82   83 2    
   164   82   84 am   BACKBONE|DICT|INTERRES
   165   84   85 1    
   166   84  205 1    
   167   85   86 1    
   168   85   87 1    
   169   85  206 1    
   170   86  207 1    
   171   86  208 1    
   172   86  209 1    
   173   87   88 2    
   174   87   89 am   BACKBONE|DICT|INTERRES
   175   89   90 1    
   176   89  210 1    
   177   90   91 1    
   178   90   92 1    
   179   90  211 1    
   180   91  212 1    
   181   91  213 1    
   182   91  214 1    
   183   92   93 2    
   184   92   94 am   BACKBONE|DICT|INTERRES
   185   94   95 1    
   186   94  215 1    
   187   95   96 1    
   188   95   97 1    
   189   95  216 1    
   190   96  217 1    
   191   96  218 1    
   192   96  219 1    
   193   97   98 2    
   194   97   99 am   BACKBONE|DICT|INTERRES
   195   99  100 1    
   196   99  220 1    
   197  100  101 1    
   198  100  102 1    
   199  100  221 1    
   200  101  222 1    
   201  101  223 1    
   202  101  224 1    
   203  102  103 2    
   204  102  104 am   BACKBONE|DICT|INTERRES
   205  104  105 1    
   206  104  225 1    
   207  105  106 1    
   208  105  107 1    
   209  105  226 1    
   210  106  227 1    
   211  106  228 1    
   212  106  229 1    
   213  107  108 2    
   214  107  109 am   BACKBONE|DICT|INTERRES
   215  109  110 1    
   216  109  230 1    
   217  110  111 1    
   218  110  112 1    
   219  110  231 1    
   220  111  232 1    
   221  111  233 1    
   222  111  234 1    
   223  112  113 2    
   224  112  114 am   BACKBONE|DICT|INTERRES
   225  114  115 1    
   226  114  235 1    
   227  115  116 1    
   228  115  117 1    
   229  115  236 1    
   230  116  237 1    
   231  116  238 1    
   232  116  239 1    
   233  117  118 2    
   234  117  119 am   BACKBONE|DICT|INTERRES
   235  119  120 1    
   236  119  240 1    
   237  120  121 1    
   238  120  124 1    
   239  120  241 1    
   240  121  122 am   BACKBONE|DICT|INTERRES
   241  121  123 2    
   242  122  242 1    
   243  122  243 1    
   244  124  125 1    
   245  124  244 1    
   246  124  245 1    
   247  125  126 1    
   248  126  246 1    
   249  126  247 1    
@<TRIPOS>SUBSTRUCTURE
     1 UNK         1 GROUP             0       ****    0 ROOT    
