@<TRIPOS>MOLECULE
3R540
247   249    1
SMALL
USER_CHARGES


@<TRIPOS>ATOM
      1 CA         -0.2896   -9.9677  -47.8781 C.3       0 UNK        -0.1800 
      2 C          -0.8057  -11.3987  -47.8760 C.2       0 UNK         0.5000 
      3 O          -0.8396  -12.0377  -46.8254 O.2       0 UNK        -0.5000 
      4 N          -1.2210  -11.9065  -49.0443 N.am      1 UNK        -0.5000 
      5 CA         -1.7126  -13.2799  -49.2235 C.3       1 UNK         0.1400 
      6 C6         -1.6894  -13.7375  -50.7047 C.3       23 UNK        -0.0398 
      7 S7         -0.0702  -13.5771  -51.5408 S.3       23 UNK        -0.2404 
      8 C8          1.0663  -14.5549  -50.5009 C.3       23 UNK        -0.0205 
      9 C9          0.8024  -16.0535  -50.5675 C.ar      23 UNK        -0.0193 
     10 C10         1.5436  -16.8623  -51.4327 C.ar      23 UNK        -0.1150 
     11 C11         1.3254  -18.2428  -51.4774 C.ar      23 UNK        -0.0193 
     12 C12         0.3640  -18.8183  -50.6400 C.ar      23 UNK        -0.1150 
     13 C13        -0.3879  -18.0184  -49.7756 C.ar      23 UNK        -0.0193 
     14 C14        -0.1621  -16.6423  -49.7465 C.ar      23 UNK        -0.1150 
     15 C15        -1.4929  -18.6136  -48.9176 C.3       23 UNK        -0.0205 
     16 S16        -1.1288  -18.5620  -47.1324 S.3       23 UNK        -0.2404 
     17 C17         0.1277  -19.8691  -46.9473 C.3       23 UNK        -0.0398 
     18 CA         -0.4389  -21.3113  -46.9517 C.3       11 UNK         0.1400 
     19 N           0.6390  -22.2970  -47.0246 N.am      11 UNK        -0.5000 
     20 C           0.4749  -23.5933  -47.3210 C.2       10 UNK         0.5000 
     21 O          -0.6096  -24.1037  -47.6004 O.2       10 UNK        -0.5000 
     22 CA          1.7383  -24.4684  -47.2470 C.3       10 UNK         0.1400 
     23 CB          2.5664  -24.3321  -48.5336 C.3       10 UNK        -0.1800 
     24 N           2.5750  -24.1421  -46.0887 N.am      10 UNK        -0.5000 
     25 C           2.2076  -24.3544  -44.8172 C.2       9 UNK         0.5000 
     26 O           1.1356  -24.8632  -44.4939 O.2       9 UNK        -0.5000 
     27 CA          3.1796  -23.8898  -43.7188 C.3       9 UNK         0.1400 
     28 CB          4.2340  -24.9713  -43.4406 C.3       9 UNK        -0.1800 
     29 N           3.8505  -22.6192  -44.0066 N.am      9 UNK        -0.5000 
     30 C           3.2292  -21.4467  -44.1868 C.2       8 UNK         0.5000 
     31 O           2.0038  -21.3184  -44.2543 O.2       8 UNK        -0.5000 
     32 CA          4.1290  -20.2089  -44.3332 C.3       8 UNK         0.1400 
     33 CB          4.1072  -19.6909  -45.7795 C.3       8 UNK        -0.1800 
     34 N           3.6701  -19.1544  -43.4333 N.am      8 UNK        -0.5000 
     35 C           3.8925  -19.1327  -42.1088 C.2       7 UNK         0.5000 
     36 O           4.6346  -19.9277  -41.5305 O.2       7 UNK        -0.5000 
     37 CA          3.1451  -18.0606  -41.2851 C.3       7 UNK         0.1400 
     38 CB          4.0007  -16.7932  -41.1412 C.3       7 UNK        -0.1800 
     39 N           1.8674  -17.7056  -41.8991 N.am      7 UNK        -0.5000 
     40 C           0.8106  -18.5246  -41.9688 C.2       6 UNK         0.5000 
     41 O           0.6862  -19.5076  -41.2397 O.2       6 UNK        -0.5000 
     42 CA         -0.2605  -18.2298  -43.0474 C.3       6 UNK         0.1400 
     43 CB         -1.6848  -18.3924  -42.4938 C.3       6 UNK        -0.1800 
     44 N          -0.1382  -16.9258  -43.7174 N.am      6 UNK        -0.5000 
     45 C           0.8566  -16.5592  -44.5424 C.2       5 UNK         0.5000 
     46 O           1.8060  -17.2977  -44.8069 O.2       5 UNK        -0.5000 
     47 CA          0.8358  -15.1397  -45.1463 C.3       5 UNK         0.1400 
     48 CB          0.7074  -15.2095  -46.6707 C.3       5 UNK        -0.1800 
     49 N          -0.2279  -14.2761  -44.6374 N.am      5 UNK        -0.5000 
     50 C          -0.2739  -13.7092  -43.4261 C.2       4 UNK         0.5000 
     51 O           0.6210  -13.8171  -42.5872 O.2       4 UNK        -0.5000 
     52 CA         -1.5614  -12.9295  -43.0814 C.3       4 UNK         0.1400 
     53 CB         -1.3715  -11.4225  -43.3090 C.3       4 UNK        -0.1800 
     54 N          -2.7448  -13.3872  -43.8218 N.am      4 UNK        -0.5000 
     55 C          -3.2822  -14.6100  -43.7218 C.2       3 UNK         0.5000 
     56 O          -2.8151  -15.4814  -42.9903 O.2       3 UNK        -0.5000 
     57 CA         -4.5084  -14.9578  -44.5899 C.3       3 UNK         0.1400 
     58 CB         -5.8058  -14.8993  -43.7622 C.3       3 UNK        -0.1800 
     59 N          -4.6452  -14.2064  -45.8452 N.am      3 UNK        -0.5000 
     60 C          -4.9226  -12.9109  -46.0383 C.2       2 UNK         0.5000 
     61 O          -5.0076  -12.0847  -45.1286 O.2       2 UNK        -0.5000 
     62 CA         -5.0892  -12.4722  -47.5088 C.3       2 UNK         0.1400 
     63 CB         -5.7381  -11.0827  -47.6388 C.3       2 UNK        -0.1800 
     64 N          -3.8083  -12.4555  -48.2127 N.am      2 UNK        -0.5000 
     65 C          -3.1022  -13.5281  -48.5957 C.2       1 UNK         0.5000 
     66 O          -3.5003  -14.6855  -48.4540 O.2       1 UNK        -0.5000 
     67 C          -1.3838  -21.6114  -45.7679 C.2       11 UNK         0.5000 
     68 O          -2.6029  -21.5585  -45.9395 O.2       11 UNK        -0.5000 
     69 N          -0.8086  -21.9873  -44.6158 N.am      12 UNK        -0.5000 
     70 CA         -1.5341  -22.4271  -43.4243 C.3       12 UNK         0.1400 
     71 CB         -0.5465  -22.6437  -42.2681 C.3       12 UNK        -0.1800 
     72 C          -2.3601  -23.7022  -43.6688 C.2       12 UNK         0.5000 
     73 O          -3.5563  -23.7124  -43.3778 O.2       12 UNK        -0.5000 
     74 N          -1.7166  -24.7407  -44.2225 N.am      13 UNK        -0.5000 
     75 CA         -2.3174  -26.0463  -44.5091 C.3       13 UNK         0.1400 
     76 CB         -1.2271  -27.0173  -44.9865 C.3       13 UNK        -0.1800 
     77 C          -3.4637  -25.9826  -45.5331 C.2       13 UNK         0.5000 
     78 O          -4.4522  -26.7020  -45.3854 O.2       13 UNK        -0.5000 
     79 N          -3.3230  -25.1054  -46.5344 N.am      14 UNK        -0.5000 
     80 CA         -4.3370  -24.8473  -47.5551 C.3       14 UNK         0.1400 
     81 CB         -3.6424  -24.2664  -48.7933 C.3       14 UNK        -0.1800 
     82 C          -5.4605  -23.9029  -47.0855 C.2       14 UNK         0.5000 
     83 O          -6.4139  -23.7051  -47.8371 O.2       14 UNK        -0.5000 
     84 N          -5.3244  -23.3020  -45.8927 N.am      15 UNK        -0.5000 
     85 CA         -6.2077  -22.2785  -45.3204 C.3       15 UNK         0.1400 
     86 CB         -7.5772  -22.8819  -44.9461 C.3       15 UNK        -0.1800 
     87 C          -6.3141  -21.0374  -46.2332 C.2       15 UNK         0.5000 
     88 O          -7.4123  -20.5642  -46.5280 O.2       15 UNK        -0.5000 
     89 N          -5.1452  -20.5732  -46.6944 N.am      16 UNK        -0.5000 
     90 CA         -4.8910  -19.4557  -47.6068 C.3       16 UNK         0.1400 
     91 CB         -5.5012  -18.1374  -47.0904 C.3       16 UNK        -0.1800 
     92 C          -5.2342  -19.7181  -49.0882 C.2       16 UNK         0.5000 
     93 O          -4.9169  -18.8723  -49.9251 O.2       16 UNK        -0.5000 
     94 N          -5.8190  -20.8796  -49.4204 N.am      17 UNK        -0.5000 
     95 CA         -6.2316  -21.2320  -50.7855 C.3       17 UNK         0.1400 
     96 CB         -7.1507  -22.4611  -50.7440 C.3       17 UNK        -0.1800 
     97 C          -5.0604  -21.4734  -51.7594 C.2       17 UNK         0.5000 
     98 O          -5.2603  -21.3927  -52.9721 O.2       17 UNK        -0.5000 
     99 N          -3.8592  -21.7437  -51.2242 N.am      18 UNK        -0.5000 
    100 CA        -2.6301  -21.9799  -51.9889 C.3       18 UNK         0.1400 
    101 CB        -1.5007  -22.4226  -51.0447 C.3       18 UNK        -0.1800 
    102 C         -2.1759  -20.7780  -52.8367 C.2       18 UNK         0.5000 
    103 O         -1.4972  -20.9871  -53.8412 O.2       18 UNK        -0.5000 
    104 N         -2.5922  -19.5596  -52.4560 N.am      19 UNK        -0.5000 
    105 CA        -2.2950  -18.2923  -53.1356 C.3       19 UNK         0.1400 
    106 CB        -2.9604  -17.1486  -52.3548 C.3       19 UNK        -0.1800 
    107 C         -2.7324  -18.2346  -54.6142 C.2       19 UNK         0.5000 
    108 O         -2.2161  -17.4105  -55.3692 O.2       19 UNK        -0.5000 
    109 N         -3.6717  -19.1074  -55.0023 N.am      20 UNK        -0.5000 
    110 CA        -4.1773  -19.2570  -56.3634 C.3       20 UNK         0.1400 
    111 CB        -5.4561  -20.1079  -56.3145 C.3       20 UNK        -0.1800 
    112 C         -3.1651  -19.8672  -57.3562 C.2       20 UNK         0.5000 
    113 O         -3.3861  -19.7422  -58.5622 O.2       20 UNK        -0.5000 
    114 N         -2.1002  -20.5232  -56.8679 N.am      21 UNK        -0.5000 
    115 CA        -1.1169  -21.2016  -57.7185 C.3       21 UNK         0.1400 
    116 CB        -1.6028  -22.6259  -58.0430 C.3       21 UNK        -0.1800 
    117 C          0.2987  -21.2363  -57.1224 C.2       21 UNK         0.5000 
    118 O          1.2632  -21.0894  -57.8743 O.2       21 UNK        -0.5000 
    119 N          0.4100  -21.4488  -55.8045 N.am      22 UNK        -0.5000 
    120 CA         1.6682  -21.5826  -55.0446 C.3       22 UNK         0.1400 
    121 C          2.5527  -22.8077  -55.4382 C.2       22 UNK         0.5000 
    122 N          2.0091  -23.8335  -56.0822 N.am      22 UNK        -0.7600 
    123 O          3.7406  -22.8523  -55.1289 O.2       22 UNK        -0.5000 
    124 C124        2.4719  -20.2545  -54.9626 C.3       23 UNK        -0.0398 
    125 S125        1.5182  -18.9339  -54.1427 S.3       23 UNK        -0.2404 
    126 C126        2.1254  -19.1073  -52.4364 C.3       23 UNK        -0.0205 
    127 H127       -0.3275   -9.5245  -48.8734 H         1 UNK         0.0600 
    128 H128        0.7439   -9.9429  -47.5329 H         1 UNK         0.0600 
    129 H129       -0.8891   -9.3526  -47.2071 H         1 UNK         0.0600 
    130 H130       -1.1629  -11.3463  -49.8832 H         1 UNK         0.3000 
    131 H131       -1.0397  -13.9232  -48.6615 H         1 UNK         0.0600 
    132 H132       -2.4129  -13.1607  -51.2833 H         1 UNK         0.0800 
    133 H133       -2.0076  -14.7768  -50.7902 H         1 UNK         0.0800 
    134 H134        1.0329  -14.2060  -49.4705 H         1 UNK         0.0800 
    135 H135        2.0844  -14.3528  -50.8369 H         1 UNK         0.0800 
    136 H136        2.2884  -16.4186  -52.0786 H         1 UNK         0.1150 
    137 H137        0.1872  -19.8831  -50.6800 H         1 UNK         0.1150 
    138 H138       -0.7577  -16.0374  -49.0844 H         1 UNK         0.1150 
    139 H139       -2.4023  -18.0368  -49.0901 H         1 UNK         0.0800 
    140 H140       -1.7230  -19.6328  -49.2241 H         1 UNK         0.0800 
    141 H141        0.6752  -19.6788  -46.0234 H         1 UNK         0.0800 
    142 H142        0.8555  -19.7501  -47.7511 H         1 UNK         0.0800 
    143 H143       -1.0319  -21.4311  -47.8594 H         1 UNK         0.0600 
    144 H144        1.5568  -21.9833  -46.7467 H         1 UNK         0.3000 
    145 H145        1.4176  -25.5084  -47.1549 H         1 UNK         0.0600 
    146 H146        3.4218  -25.0078  -48.5246 H         1 UNK         0.0600 
    147 H147        1.9670  -24.5800  -49.4108 H         1 UNK         0.0600 
    148 H148        2.9416  -23.3169  -48.6688 H         1 UNK         0.0600 
    149 H149        3.4741  -23.7209  -46.2702 H         1 UNK         0.3000 
    150 H150        2.5942  -23.7481  -42.8080 H         1 UNK         0.0600 
    151 H151        3.7616  -25.9255  -43.2031 H         1 UNK         0.0600 
    152 H152        4.8614  -24.7015  -42.5908 H         1 UNK         0.0600 
    153 H153        4.8842  -25.1320  -44.3014 H         1 UNK         0.0600 
    154 H154        4.8598  -22.6336  -43.9756 H         1 UNK         0.3000 
    155 H155        5.1577  -20.4717  -44.0775 H         1 UNK         0.0600 
    156 H156        3.1041  -19.3981  -46.0904 H         1 UNK         0.0600 
    157 H157        4.4577  -20.4546  -46.4746 H         1 UNK         0.0600 
    158 H158        4.7560  -18.8226  -45.8951 H         1 UNK         0.0600 
    159 H159        3.0172  -18.4877  -43.8347 H         1 UNK         0.3000 
    160 H160        2.9566  -18.4670  -40.2893 H         1 UNK         0.0600 
    161 H161        4.2155  -16.3398  -42.1098 H         1 UNK         0.0600 
    162 H162        4.9555  -17.0196  -40.6649 H         1 UNK         0.0600 
    163 H163        3.4990  -16.0467  -40.5250 H         1 UNK         0.0600 
    164 H164        1.8792  -16.9153  -42.5268 H         1 UNK         0.3000 
    165 H165       -0.1256  -18.9966  -43.8126 H         1 UNK         0.0600 
    166 H166       -2.4301  -18.2605  -43.2786 H         1 UNK         0.0600 
    167 H167       -1.8354  -19.3872  -42.0734 H         1 UNK         0.0600 
    168 H168       -1.8907  -17.6690  -41.7044 H         1 UNK         0.0600 
    169 H169       -0.8812  -16.2631  -43.5279 H         1 UNK         0.3000 
    170 H170        1.7959  -14.6785  -44.9069 H         1 UNK         0.0600 
    171 H171        1.4535  -15.8737  -47.1094 H         1 UNK         0.0600 
    172 H172       -0.2764  -15.5793  -46.9567 H         1 UNK         0.0600 
    173 H173        0.8464  -14.2249  -47.1153 H         1 UNK         0.0600 
    174 H174       -0.9892  -14.0790  -45.2713 H         1 UNK         0.3000 
    175 H175       -1.7568  -13.0875  -42.0188 H         1 UNK         0.0600 
    176 H176       -1.2062  -11.1903  -44.3608 H         1 UNK         0.0600 
    177 H177       -2.2446  -10.8609  -42.9761 H         1 UNK         0.0600 
    178 H178       -0.5122  -11.0480  -42.7514 H         1 UNK         0.0600 
    179 H179       -3.2208  -12.7091  -44.4060 H         1 UNK         0.3000 
    180 H180       -4.3667  -15.9955  -44.8943 H         1 UNK         0.0600 
    181 H181       -6.6630  -15.2295  -44.3491 H         1 UNK         0.0600 
    182 H182       -6.0132  -13.8921  -43.3997 H         1 UNK         0.0600 
    183 H183       -5.7400  -15.5507  -42.8898 H         1 UNK         0.0600 
    184 H184       -4.4776  -14.7496  -46.6869 H         1 UNK         0.3000 
    185 H185       -5.7478  -13.1940  -47.9968 H         1 UNK         0.0600 
    186 H186       -5.9152  -10.8270  -48.6837 H         1 UNK         0.0600 
    187 H187       -6.7028  -11.0533  -47.1305 H         1 UNK         0.0600 
    188 H188       -5.1132  -10.3015  -47.2041 H         1 UNK         0.0600 
    189 H189       -3.3832  -11.5491  -48.3416 H         1 UNK         0.3000 
    190 H190        0.2052  -21.9669  -44.5473 H         1 UNK         0.3000 
    191 H191       -2.2207  -21.6260  -43.1439 H         1 UNK         0.0600 
    192 H192       -1.0767  -22.8090  -41.3297 H         1 UNK         0.0600 
    193 H193        0.0986  -21.7792  -42.1326 H         1 UNK         0.0600 
    194 H194        0.0986  -23.5056  -42.4352 H         1 UNK         0.0600 
    195 H195       -0.7196  -24.6574  -44.4091 H         1 UNK         0.3000 
    196 H196       -2.7316  -26.4315  -43.5753 H         1 UNK         0.0600 
    197 H197       -0.7374  -26.6560  -45.8919 H         1 UNK         0.0600 
    198 H198       -0.4606  -27.1544  -44.2237 H         1 UNK         0.0600 
    199 H199       -1.6451  -28.0003  -45.2068 H         1 UNK         0.0600 
    200 H200       -2.4557  -24.5857  -46.6143 H         1 UNK         0.3000 
    201 H201       -4.8029  -25.7928  -47.8404 H         1 UNK         0.0600 
    202 H202       -3.1752  -23.3057  -48.5725 H         1 UNK         0.0600 
    203 H203       -4.3497  -24.1167  -49.6094 H         1 UNK         0.0600 
    204 H204       -2.8682  -24.9415  -49.1583 H         1 UNK         0.0600 
    205 H205       -4.5043  -23.5208  -45.3398 H         1 UNK         0.3000 
    206 H206       -5.7313  -21.9425  -44.3982 H         1 UNK         0.0600 
    207 H207       -7.4600  -23.7430  -44.2881 H         1 UNK         0.0600 
    208 H208       -8.1931  -22.1522  -44.4193 H         1 UNK         0.0600 
    209 H209       -8.1349  -23.2053  -45.8254 H         1 UNK         0.0600 
    210 H210       -4.2997  -21.0523  -46.3847 H         1 UNK         0.3000 
    211 H211       -3.8121  -19.3354  -47.5786 H         1 UNK         0.0600 
    212 H212       -5.1305  -17.2868  -47.6642 H         1 UNK         0.0600 
    213 H213       -5.2379  -17.9644  -46.0473 H         1 UNK         0.0600 
    214 H214       -6.5884  -18.1326  -47.1694 H         1 UNK         0.0600 
    215 H215       -6.0610  -21.5359  -48.6889 H         1 UNK         0.3000 
    216 H216       -6.8112  -20.3950  -51.1807 H         1 UNK         0.0600 
    217 H217       -6.6105  -23.3582  -50.4415 H         1 UNK         0.0600 
    218 H218       -7.5802  -22.6581  -51.7270 H         1 UNK         0.0600 
    219 H219       -7.9791  -22.3158  -50.0503 H         1 UNK         0.0600 
    220 H220       -3.7903  -21.7888  -50.2197 H         1 UNK         0.3000 
    221 H221       -2.8269  -22.7981  -52.6847 H         1 UNK         0.0600 
    222 H222       -1.7017  -23.4053  -50.6218 H         1 UNK         0.0600 
    223 H223       -1.3604  -21.7244  -50.2218 H         1 UNK         0.0600 
    224 H224       -0.5500  -22.4987  -51.5748 H         1 UNK         0.0600 
    225 H225       -3.1894  -19.4936  -51.6434 H         1 UNK         0.3000 
    226 H226       -1.2143  -18.1468  -53.1082 H         1 UNK         0.0600 
    227 H227       -4.0467  -17.2478  -52.3462 H         1 UNK         0.0600 
    228 H228       -2.6235  -17.1226  -51.3205 H         1 UNK         0.0600 
    229 H229       -2.7199  -16.1812  -52.7974 H         1 UNK         0.0600 
    230 H230       -4.0411  -19.7496  -54.3133 H         1 UNK         0.3000 
    231 H231       -4.4413  -18.2655  -56.7368 H         1 UNK         0.0600 
    232 H232       -5.2558  -21.1104  -55.9336 H         1 UNK         0.0600 
    233 H233       -5.8959  -20.2148  -57.3070 H         1 UNK         0.0600 
    234 H234       -6.2105  -19.6514  -55.6734 H         1 UNK         0.0600 
    235 H235       -1.9552  -20.5570  -55.8653 H         1 UNK         0.3000 
    236 H236       -1.0260  -20.6545  -58.6596 H         1 UNK         0.0600 
    237 H237       -2.5409  -22.6071  -58.5979 H         1 UNK         0.0600 
    238 H238       -0.8756  -23.1590  -58.6571 H         1 UNK         0.0600 
    239 H239       -1.7622  -23.2108  -57.1364 H         1 UNK         0.0600 
    240 H240       -0.4250  -21.4982  -55.2278 H         1 UNK         0.3000 
    241 H241        1.3519  -21.8181  -54.0279 H         1 UNK         0.0600 
    242 H242        2.5817  -24.6268  -56.3250 H         1 UNK         0.3800 
    243 H243        1.0336  -23.8232  -56.3320 H         1 UNK         0.3800 
    244 H244        2.7564  -19.9145  -55.9588 H         1 UNK         0.0800 
    245 H245        3.4066  -20.3912  -54.4166 H         1 UNK         0.0800 
    246 H246        2.0702  -20.1548  -52.1359 H         1 UNK         0.0800 
    247 H247        3.1786  -18.8259  -52.3935 H         1 UNK         0.0800 
@<TRIPOS>BOND
     1    1    2 1    
     2    1  127 1    
     3    1  128 1    
     4    1  129 1    
     5    2    3 2    
     6    2    4 am   BACKBONE|DICT|INTERRES
     7    4    5 1    
     8    4  130 1    
     9    5    6 1    
    10    5   65 1    
    11    5  131 1    
    12    6    7 1    
    13    6  132 1    
    14    6  133 1    
    15    7    8 1    
    16    8    9 1    
    17    8  134 1    
    18    8  135 1    
    19    9   10 ar   
    20    9   14 ar   
    21   10   11 ar   
    22   10  136 1    
    23   11   12 ar   
    24   11  126 1    
    25   12   13 ar   
    26   12  137 1    
    27   13   14 ar   
    28   13   15 1    
    29   14  138 1    
    30   15   16 1    
    31   15  139 1    
    32   15  140 1    
    33   16   17 1    
    34   17   18 1    
    35   17  141 1    
    36   17  142 1    
    37   18   19 1    
    38   18   67 1    
    39   18  143 1    
    40   19   20 am   BACKBONE|DICT|INTERRES
    41   19  144 1    
    42   20   21 2    
    43   20   22 1    
    44   22   23 1    
    45   22   24 1    
    46   22  145 1    
    47   23  146 1    
    48   23  147 1    
    49   23  148 1    
    50   24   25 am   BACKBONE|DICT|INTERRES
    51   24  149 1    
    52   25   26 2    
    53   25   27 1    
    54   27   28 1    
    55   27   29 1    
    56   27  150 1    
    57   28  151 1    
    58   28  152 1    
    59   28  153 1    
    60   29   30 am   BACKBONE|DICT|INTERRES
    61   29  154 1    
    62   30   31 2    
    63   30   32 1    
    64   32   33 1    
    65   32   34 1    
    66   32  155 1    
    67   33  156 1    
    68   33  157 1    
    69   33  158 1    
    70   34   35 am   BACKBONE|DICT|INTERRES
    71   34  159 1    
    72   35   36 2    
    73   35   37 1    
    74   37   38 1    
    75   37   39 1    
    76   37  160 1    
    77   38  161 1    
    78   38  162 1    
    79   38  163 1    
    80   39   40 am   BACKBONE|DICT|INTERRES
    81   39  164 1    
    82   40   41 2    
    83   40   42 1    
    84   42   43 1    
    85   42   44 1    
    86   42  165 1    
    87   43  166 1    
    88   43  167 1    
    89   43  168 1    
    90   44   45 am   BACKBONE|DICT|INTERRES
    91   44  169 1    
    92   45   46 2    
    93   45   47 1    
    94   47   48 1    
    95   47   49 1    
    96   47  170 1    
    97   48  171 1    
    98   48  172 1    
    99   48  173 1    
   100   49   50 am   BACKBONE|DICT|INTERRES
   101   49  174 1    
   102   50   51 2    
   103   50   52 1    
   104   52   53 1    
   105   52   54 1    
   106   52  175 1    
   107   53  176 1    
   108   53  177 1    
   109   53  178 1    
   110   54   55 am   BACKBONE|DICT|INTERRES
   111   54  179 1    
   112   55   56 2    
   113   55   57 1    
   114   57   58 1    
   115   57   59 1    
   116   57  180 1    
   117   58  181 1    
   118   58  182 1    
   119   58  183 1    
   120   59   60 am   BACKBONE|DICT|INTERRES
   121   59  184 1    
   122   60   61 2    
   123   60   62 1    
   124   62   63 1    
   125   62   64 1    
   126   62  185 1    
   127   63  186 1    
   128   63  187 1    
   129   63  188 1    
   130   64   65 am   BACKBONE|DICT|INTERRES
   131   64  189 1    
   132   65   66 2    
   133   67   68 2    
   134   67   69 am   BACKBONE|DICT|INTERRES
   135   69   70 1    
   136   69  190 1    
   137   70   71 1    
   138   70   72 1    
   139   70  191 1    
   140   71  192 1    
   141   71  193 1    
   142   71  194 1    
   143   72   73 2    
   144   72   74 am   BACKBONE|DICT|INTERRES
   145   74   75 1    
   146   74  195 1    
   147   75   76 1    
   148   75   77 1    
   149   75  196 1    
   150   76  197 1    
   151   76  198 1    
   152   76  199 1    
   153   77   78 2    
   154   77   79 am   BACKBONE|DICT|INTERRES
   155   79   80 1    
   156   79  200 1    
   157   80   81 1    
   158   80   82 1    
   159   80  201 1    
   160   81  202 1    
   161   81  203 1    
   162   81  204 1    
   163   82   83 2    
   164   82   84 am   BACKBONE|DICT|INTERRES
   165   84   85 1    
   166   84  205 1    
   167   85   86 1    
   168   85   87 1    
   169   85  206 1    
   170   86  207 1    
   171   86  208 1    
   172   86  209 1    
   173   87   88 2    
   174   87   89 am   BACKBONE|DICT|INTERRES
   175   89   90 1    
   176   89  210 1    
   177   90   91 1    
   178   90   92 1    
   179   90  211 1    
   180   91  212 1    
   181   91  213 1    
   182   91  214 1    
   183   92   93 2    
   184   92   94 am   BACKBONE|DICT|INTERRES
   185   94   95 1    
   186   94  215 1    
   187   95   96 1    
   188   95   97 1    
   189   95  216 1    
   190   96  217 1    
   191   96  218 1    
   192   96  219 1    
   193   97   98 2    
   194   97   99 am   BACKBONE|DICT|INTERRES
   195   99  100 1    
   196   99  220 1    
   197  100  101 1    
   198  100  102 1    
   199  100  221 1    
   200  101  222 1    
   201  101  223 1    
   202  101  224 1    
   203  102  103 2    
   204  102  104 am   BACKBONE|DICT|INTERRES
   205  104  105 1    
   206  104  225 1    
   207  105  106 1    
   208  105  107 1    
   209  105  226 1    
   210  106  227 1    
   211  106  228 1    
   212  106  229 1    
   213  107  108 2    
   214  107  109 am   BACKBONE|DICT|INTERRES
   215  109  110 1    
   216  109  230 1    
   217  110  111 1    
   218  110  112 1    
   219  110  231 1    
   220  111  232 1    
   221  111  233 1    
   222  111  234 1    
   223  112  113 2    
   224  112  114 am   BACKBONE|DICT|INTERRES
   225  114  115 1    
   226  114  235 1    
   227  115  116 1    
   228  115  117 1    
   229  115  236 1    
   230  116  237 1    
   231  116  238 1    
   232  116  239 1    
   233  117  118 2    
   234  117  119 am   BACKBONE|DICT|INTERRES
   235  119  120 1    
   236  119  240 1    
   237  120  121 1    
   238  120  124 1    
   239  120  241 1    
   240  121  122 am   BACKBONE|DICT|INTERRES
   241  121  123 2    
   242  122  242 1    
   243  122  243 1    
   244  124  125 1    
   245  124  244 1    
   246  124  245 1    
   247  125  126 1    
   248  126  246 1    
   249  126  247 1    
@<TRIPOS>SUBSTRUCTURE
     1 UNK         1 GROUP             0       ****    0 ROOT    
