@<TRIPOS>MOLECULE
3R540
247   249    1
SMALL
USER_CHARGES


@<TRIPOS>ATOM
      1 CA          7.1158  -10.2503  -52.1851 C.3       0 UNK        -0.1800 
      2 C           7.0555  -11.6817  -51.6711 C.2       0 UNK         0.5000 
      3 O           8.0668  -12.2114  -51.2107 O.2       0 UNK        -0.5000 
      4 N           5.8743  -12.3080  -51.7450 N.am      1 UNK        -0.5000 
      5 CA          5.6178  -13.6826  -51.2941 C.3       1 UNK         0.1400 
      6 C6          4.3829  -14.3020  -51.9962 C.3       23 UNK        -0.0398 
      7 S7          2.8485  -13.3205  -51.8366 S.3       23 UNK        -0.2404 
      8 C8          1.6788  -14.3350  -52.7974 C.3       23 UNK        -0.0205 
      9 C9          0.9119  -15.3196  -51.9243 C.ar      23 UNK        -0.0193 
     10 C10        -0.3910  -15.0242  -51.5131 C.ar      23 UNK        -0.1150 
     11 C11        -1.1190  -15.9342  -50.7414 C.ar      23 UNK        -0.0193 
     12 C12        -0.5303  -17.1496  -50.3751 C.ar      23 UNK        -0.1150 
     13 C13         0.7839  -17.4481  -50.7545 C.ar      23 UNK        -0.0193 
     14 C14         1.4903  -16.5332  -51.5423 C.ar      23 UNK        -0.1150 
     15 C15         1.4508  -18.7565  -50.3385 C.3       23 UNK        -0.0205 
     16 S16         1.4500  -19.0146  -48.5291 S.3       23 UNK        -0.2404 
     17 C17         0.0200  -20.1276  -48.3133 C.3       23 UNK        -0.0398 
     18 CA          0.4133  -21.4917  -47.6957 C.3       11 UNK         0.1400 
     19 N           0.8920  -21.3717  -46.3159 N.am      11 UNK        -0.5000 
     20 C           1.4942  -22.3577  -45.6375 C.2       10 UNK         0.5000 
     21 O           1.7267  -23.4697  -46.1119 O.2       10 UNK        -0.5000 
     22 CA          1.8769  -22.0730  -44.1725 C.3       10 UNK         0.1400 
     23 CB          3.1990  -21.2931  -44.1086 C.3       10 UNK        -0.1800 
     24 N           0.8649  -21.3574  -43.3903 N.am      10 UNK        -0.5000 
     25 C          -0.4215  -21.7052  -43.2497 C.2       9 UNK         0.5000 
     26 O          -0.9464  -22.6439  -43.8453 O.2       9 UNK        -0.5000 
     27 CA         -1.2796  -20.8713  -42.2900 C.3       9 UNK         0.1400 
     28 CB         -0.4720  -20.0432  -41.2707 C.3       9 UNK        -0.1800 
     29 N          -2.1183  -19.9801  -43.0810 N.am      9 UNK        -0.5000 
     30 C          -3.4455  -19.8559  -42.9607 C.2       8 UNK         0.5000 
     31 O          -4.1219  -20.5251  -42.1780 O.2       8 UNK        -0.5000 
     32 CA         -4.1457  -18.8028  -43.8426 C.3       8 UNK         0.1400 
     33 CB         -5.0160  -17.8627  -42.9909 C.3       8 UNK        -0.1800 
     34 N          -3.1898  -17.9838  -44.5862 N.am      8 UNK        -0.5000 
     35 C          -2.9983  -18.0237  -45.9105 C.2       7 UNK         0.5000 
     36 O          -3.5940  -18.7833  -46.6757 O.2       7 UNK        -0.5000 
     37 CA         -1.9412  -17.0556  -46.4764 C.3       7 UNK         0.1400 
     38 CB         -2.5907  -15.6943  -46.7634 C.3       7 UNK        -0.1800 
     39 N          -0.7817  -16.8375  -45.6082 N.am      7 UNK        -0.5000 
     40 C          -0.0106  -17.7794  -45.0477 C.2       6 UNK         0.5000 
     41 O          -0.1779  -18.9891  -45.1993 O.2       6 UNK        -0.5000 
     42 CA          1.0960  -17.2968  -44.0951 C.3       6 UNK         0.1400 
     43 CB          2.3778  -16.9959  -44.8829 C.3       6 UNK        -0.1800 
     44 N           0.7324  -16.1273  -43.2906 N.am      6 UNK        -0.5000 
     45 C          -0.3494  -15.9852  -42.5109 C.2       5 UNK         0.5000 
     46 O          -1.2233  -16.8449  -42.3918 O.2       5 UNK        -0.5000 
     47 CA         -0.5120  -14.6449  -41.7632 C.3       5 UNK         0.1400 
     48 CB          0.2557  -14.6522  -40.4276 C.3       5 UNK        -0.1800 
     49 N          -0.1942  -13.4612  -42.5762 N.am      5 UNK        -0.5000 
     50 C           0.9912  -13.0633  -43.0586 C.2       4 UNK         0.5000 
     51 O           2.0647  -13.6140  -42.8061 O.2       4 UNK        -0.5000 
     52 CA          0.9532  -11.8982  -44.0667 C.3       4 UNK         0.1400 
     53 CB          1.8346  -10.7309  -43.5954 C.3       4 UNK        -0.1800 
     54 N           1.3839  -12.3136  -45.4046 N.am      4 UNK        -0.5000 
     55 C           0.8916  -13.3438  -46.1101 C.2       3 UNK         0.5000 
     56 O          -0.0309  -14.0587  -45.7195 O.2       3 UNK        -0.5000 
     57 CA          1.5109  -13.6268  -47.4932 C.3       3 UNK         0.1400 
     58 CB          0.5525  -13.1620  -48.5990 C.3       3 UNK        -0.1800 
     59 N           2.8193  -13.0081  -47.7228 N.am      3 UNK        -0.5000 
     60 C           3.9561  -13.3205  -47.0852 C.2       2 UNK         0.5000 
     61 O           4.0283  -14.1438  -46.1727 O.2       2 UNK        -0.5000 
     62 CA          5.2168  -12.5849  -47.5854 C.3       2 UNK         0.1400 
     63 CB          6.5066  -13.0138  -46.8547 C.3       2 UNK        -0.1800 
     64 N           5.3737  -12.6966  -49.0410 N.am      2 UNK        -0.5000 
     65 C           5.5271  -13.8236  -49.7571 C.2       1 UNK         0.5000 
     66 O           5.5997  -14.9487  -49.2611 O.2       1 UNK        -0.5000 
     67 C          -0.7682  -22.4741  -47.7758 C.2       11 UNK         0.5000 
     68 O          -0.7513  -23.3848  -48.6049 O.2       11 UNK        -0.5000 
     69 N          -1.7589  -22.2833  -46.8938 N.am      12 UNK        -0.5000 
     70 CA         -2.9687  -23.1004  -46.8202 C.3       12 UNK         0.1400 
     71 CB         -3.9647  -22.4594  -45.8433 C.3       12 UNK        -0.1800 
     72 C          -2.6775  -24.5612  -46.4377 C.2       12 UNK         0.5000 
     73 O          -3.2723  -25.4694  -47.0157 O.2       12 UNK        -0.5000 
     74 N          -1.7363  -24.7619  -45.5064 N.am      13 UNK        -0.5000 
     75 CA         -1.2424  -26.0690  -45.0786 C.3       13 UNK         0.1400 
     76 CB         -0.3362  -25.8933  -43.8506 C.3       13 UNK        -0.1800 
     77 C          -0.5003  -26.8229  -46.1965 C.2       13 UNK         0.5000 
     78 O          -0.6742  -28.0355  -46.3217 O.2       13 UNK        -0.5000 
     79 N           0.2957  -26.0971  -46.9954 N.am      14 UNK        -0.5000 
     80 CA          1.0183  -26.6390  -48.1463 C.3       14 UNK         0.1400 
     81 CB          2.0796  -25.6316  -48.6146 C.3       14 UNK        -0.1800 
     82 C           0.0790  -27.0233  -49.3033 C.2       14 UNK         0.5000 
     83 O           0.2579  -28.0850  -49.9017 O.2       14 UNK        -0.5000 
     84 N          -0.9066  -26.1622  -49.5917 N.am      15 UNK        -0.5000 
     85 CA         -1.9094  -26.3829  -50.6351 C.3       15 UNK         0.1400 
     86 CB         -2.6010  -25.0501  -50.9562 C.3       15 UNK        -0.1800 
     87 C          -2.9629  -27.4402  -50.2578 C.2       15 UNK         0.5000 
     88 O          -3.4897  -28.1060  -51.1498 O.2       15 UNK        -0.5000 
     89 N          -3.2716  -27.5414  -48.9558 N.am      16 UNK        -0.5000 
     90 CA         -4.3792  -28.2953  -48.3560 C.3       16 UNK         0.1400 
     91 CB         -4.1961  -29.8143  -48.5545 C.3       16 UNK        -0.1800 
     92 C          -5.7544  -27.7727  -48.8301 C.2       16 UNK         0.5000 
     93 O          -6.6903  -28.5533  -49.0140 O.2       16 UNK        -0.5000 
     94 N          -5.8362  -26.4533  -49.0378 N.am      17 UNK        -0.5000 
     95 CA         -6.9479  -25.7129  -49.6254 C.3       17 UNK         0.1400 
     96 CB         -7.0986  -26.0824  -51.1175 C.3       17 UNK        -0.1800 
     97 C          -6.6644  -24.2098  -49.4578 C.2       17 UNK         0.5000 
     98 O          -5.6289  -23.8389  -48.8979 O.2       17 UNK        -0.5000 
     99 N          -7.5696  -23.3630  -49.9656 N.am      18 UNK        -0.5000 
    100 CA        -7.4042  -21.9105  -50.0519 C.3       18 UNK         0.1400 
    101 CB        -8.7724  -21.2627  -50.3287 C.3       18 UNK        -0.1800 
    102 C         -6.3613  -21.5432  -51.1269 C.2       18 UNK         0.5000 
    103 O         -6.7234  -21.2506  -52.2690 O.2       18 UNK        -0.5000 
    104 N         -5.0817  -21.6171  -50.7403 N.am      19 UNK        -0.5000 
    105 CA        -3.8937  -21.3631  -51.5559 C.3       19 UNK         0.1400 
    106 CB        -2.6678  -21.3875  -50.6378 C.3       19 UNK        -0.1800 
    107 C         -3.9615  -20.0172  -52.2908 C.2       19 UNK         0.5000 
    108 O         -4.1324  -18.9894  -51.6336 O.2       19 UNK        -0.5000 
    109 N         -3.8854  -20.0586  -53.6284 N.am      20 UNK        -0.5000 
    110 CA        -3.9789  -18.9168  -54.5503 C.3       20 UNK         0.1400 
    111 CB        -2.7070  -18.0487  -54.4470 C.3       20 UNK        -0.1800 
    112 C         -5.2826  -18.0914  -54.4130 C.2       20 UNK         0.5000 
    113 O         -5.3118  -16.9253  -54.8089 O.2       20 UNK        -0.5000 
    114 N         -6.3326  -18.7149  -53.8530 N.am      21 UNK        -0.5000 
    115 CA        -7.6189  -18.1317  -53.4625 C.3       21 UNK         0.1400 
    116 CB        -8.4014  -17.6264  -54.6932 C.3       21 UNK        -0.1800 
    117 C         -7.4997  -17.0743  -52.3410 C.2       21 UNK         0.5000 
    118 O         -8.3561  -16.1927  -52.2460 O.2       21 UNK        -0.5000 
    119 N         -6.4616  -17.1830  -51.5014 N.am      22 UNK        -0.5000 
    120 CA        -6.1884  -16.2714  -50.3802 C.3       22 UNK         0.1400 
    121 C         -5.7054  -16.9810  -49.0867 C.2       22 UNK         0.5000 
    122 N         -5.0138  -18.1108  -49.1562 N.am      22 UNK        -0.7600 
    123 O         -5.9786  -16.4973  -47.9921 O.2       22 UNK        -0.5000 
    124 C124       -5.2634  -15.0880  -50.7797 C.3       23 UNK        -0.0398 
    125 S125       -3.7217  -15.5661  -51.6433 S.3       23 UNK        -0.2404 
    126 C126       -2.5248  -15.5837  -50.2756 C.3       23 UNK        -0.0205 
    127 H127        6.1495   -9.9134  -52.5612 H         1 UNK         0.0600 
    128 H128        7.8413  -10.1729  -52.9949 H         1 UNK         0.0600 
    129 H129        7.4230   -9.5768  -51.3851 H         1 UNK         0.0600 
    130 H130        5.0748  -11.8265  -52.1336 H         1 UNK         0.3000 
    131 H131        6.4783  -14.2858  -51.5921 H         1 UNK         0.0600 
    132 H132        4.2054  -15.3120  -51.6260 H         1 UNK         0.0800 
    133 H133        4.5997  -14.4129  -53.0595 H         1 UNK         0.0800 
    134 H134        0.9796  -13.6666  -53.3020 H         1 UNK         0.0800 
    135 H135        2.2036  -14.8696  -53.5905 H         1 UNK         0.0800 
    136 H136       -0.8449  -14.0848  -51.7960 H         1 UNK         0.1150 
    137 H137       -1.0899  -17.8572  -49.7813 H         1 UNK         0.1150 
    138 H138        2.4941  -16.7689  -51.8630 H         1 UNK         0.1150 
    139 H139        0.9754  -19.5893  -50.8574 H         1 UNK         0.0800 
    140 H140        2.4917  -18.7639  -50.6649 H         1 UNK         0.0800 
    141 H141       -0.4544  -20.2761  -49.2820 H         1 UNK         0.0800 
    142 H142       -0.7248  -19.6267  -47.6958 H         1 UNK         0.0800 
    143 H143        1.2229  -21.9134  -48.2957 H         1 UNK         0.0600 
    144 H144        0.6816  -20.4969  -45.8413 H         1 UNK         0.3000 
    145 H145        2.0295  -23.0388  -43.6869 H         1 UNK         0.0600 
    146 H146        3.5484  -21.1894  -43.0813 H         1 UNK         0.0600 
    147 H147        3.9834  -21.8062  -44.6666 H         1 UNK         0.0600 
    148 H148        3.0959  -20.2930  -44.5317 H         1 UNK         0.0600 
    149 H149        1.1958  -20.5638  -42.8637 H         1 UNK         0.3000 
    150 H150       -1.8906  -21.5844  -41.7329 H         1 UNK         0.0600 
    151 H151        0.2049  -20.6753  -40.6945 H         1 UNK         0.0600 
    152 H152       -1.1383  -19.5545  -40.5595 H         1 UNK         0.0600 
    153 H153        0.1182  -19.2616  -41.7472 H         1 UNK         0.0600 
    154 H154       -1.6404  -19.4415  -43.7943 H         1 UNK         0.3000 
    155 H155       -4.7998  -19.3453  -44.5281 H         1 UNK         0.0600 
    156 H156       -5.5277  -17.1291  -43.6142 H         1 UNK         0.0600 
    157 H157       -5.7835  -18.4164  -42.4489 H         1 UNK         0.0600 
    158 H158       -4.4187  -17.3207  -42.2564 H         1 UNK         0.0600 
    159 H159       -2.6086  -17.3686  -44.0280 H         1 UNK         0.3000 
    160 H160       -1.5795  -17.4697  -47.4177 H         1 UNK         0.0600 
    161 H161       -2.8419  -15.1672  -45.8422 H         1 UNK         0.0600 
    162 H162       -3.5115  -15.8028  -47.3342 H         1 UNK         0.0600 
    163 H163       -1.9249  -15.0564  -47.3420 H         1 UNK         0.0600 
    164 H164       -0.5411  -15.8638  -45.4372 H         1 UNK         0.3000 
    165 H165        1.3112  -18.1111  -43.4028 H         1 UNK         0.0600 
    166 H166        2.2352  -16.1662  -45.5754 H         1 UNK         0.0600 
    167 H167        3.2018  -16.7373  -44.2178 H         1 UNK         0.0600 
    168 H168        2.6906  -17.8608  -45.4698 H         1 UNK         0.0600 
    169 H169        1.3807  -15.3457  -43.3109 H         1 UNK         0.3000 
    170 H170       -1.5727  -14.5543  -41.5235 H         1 UNK         0.0600 
    171 H171       -0.0901  -15.4657  -39.7887 H         1 UNK         0.0600 
    172 H172        1.3279  -14.7879  -40.5698 H         1 UNK         0.0600 
    173 H173        0.1039  -13.7219  -39.8804 H         1 UNK         0.0600 
    174 H174       -1.0083  -12.9568  -42.8991 H         1 UNK         0.3000 
    175 H175       -0.0731  -11.5358  -44.1513 H         1 UNK         0.0600 
    176 H176        1.5353  -10.3924  -42.6026 H         1 UNK         0.0600 
    177 H177        2.8861  -11.0165  -43.5418 H         1 UNK         0.0600 
    178 H178        1.7524   -9.8767  -44.2677 H         1 UNK         0.0600 
    179 H179        2.1522  -11.7988  -45.8063 H         1 UNK         0.3000 
    180 H180        1.6327  -14.7086  -47.5801 H         1 UNK         0.0600 
    181 H181       -0.4209  -13.6432  -48.5061 H         1 UNK         0.0600 
    182 H182        0.9403  -13.4139  -49.5840 H         1 UNK         0.0600 
    183 H183        0.3914  -12.0839  -48.5672 H         1 UNK         0.0600 
    184 H184        2.8638  -12.3342  -48.4732 H         1 UNK         0.3000 
    185 H185        5.0595  -11.5268  -47.3714 H         1 UNK         0.0600 
    186 H186        6.4284  -12.8224  -45.7838 H         1 UNK         0.0600 
    187 H187        6.7140  -14.0768  -46.9803 H         1 UNK         0.0600 
    188 H188        7.3699  -12.4586  -47.2215 H         1 UNK         0.0600 
    189 H189        5.3278  -11.8292  -49.5563 H         1 UNK         0.3000 
    190 H190       -1.6622  -21.5536  -46.2030 H         1 UNK         0.3000 
    191 H191       -3.4181  -23.1032  -47.8136 H         1 UNK         0.0600 
    192 H192       -3.5622  -22.4083  -44.8311 H         1 UNK         0.0600 
    193 H193       -4.8908  -23.0343  -45.8020 H         1 UNK         0.0600 
    194 H194       -4.2256  -21.4479  -46.1543 H         1 UNK         0.0600 
    195 H195       -1.3385  -23.9499  -45.0372 H         1 UNK         0.3000 
    196 H196       -2.1038  -26.6722  -44.7846 H         1 UNK         0.0600 
    197 H197        0.0375  -26.8554  -43.4982 H         1 UNK         0.0600 
    198 H198       -0.8779  -25.4318  -43.0247 H         1 UNK         0.0600 
    199 H199        0.5272  -25.2658  -44.0754 H         1 UNK         0.0600 
    200 H200        0.4136  -25.1082  -46.8089 H         1 UNK         0.3000 
    201 H201        1.5364  -27.5451  -47.8249 H         1 UNK         0.0600 
    202 H202        2.8038  -25.4290  -47.8255 H         1 UNK         0.0600 
    203 H203        1.6340  -24.6814  -48.9100 H         1 UNK         0.0600 
    204 H204        2.6328  -26.0165  -49.4721 H         1 UNK         0.0600 
    205 H205       -0.9493  -25.2790  -49.0904 H         1 UNK         0.3000 
    206 H206       -1.3998  -26.7273  -51.5375 H         1 UNK         0.0600 
    207 H207       -1.8802  -24.3090  -51.3014 H         1 UNK         0.0600 
    208 H208       -3.3463  -25.1715  -51.7432 H         1 UNK         0.0600 
    209 H209       -3.1117  -24.6461  -50.0811 H         1 UNK         0.0600 
    210 H210       -2.8234  -26.8903  -48.3190 H         1 UNK         0.3000 
    211 H211       -4.3331  -28.0974  -47.2843 H         1 UNK         0.0600 
    212 H212       -4.3086  -30.1060  -49.5989 H         1 UNK         0.0600 
    213 H213       -4.9347  -30.3734  -47.9792 H         1 UNK         0.0600 
    214 H214       -3.2108  -30.1382  -48.2190 H         1 UNK         0.0600 
    215 H215       -5.0501  -25.8650  -48.7817 H         1 UNK         0.3000 
    216 H216       -7.8640  -25.9548  -49.0839 H         1 UNK         0.0600 
    217 H217       -6.1953  -25.8418  -51.6799 H         1 UNK         0.0600 
    218 H218       -7.9280  -25.5490  -51.5822 H         1 UNK         0.0600 
    219 H219       -7.2975  -27.1455  -51.2511 H         1 UNK         0.0600 
    220 H220       -8.3845  -23.7422  -50.4252 H         1 UNK         0.3000 
    221 H221       -7.0477  -21.5360  -49.0897 H         1 UNK         0.0600 
    222 H222       -9.4756  -21.4689  -49.5218 H         1 UNK         0.0600 
    223 H223       -9.2134  -21.6251  -51.2582 H         1 UNK         0.0600 
    224 H224       -8.6797  -20.1787  -50.4095 H         1 UNK         0.0600 
    225 H225       -4.9085  -21.9505  -49.8011 H         1 UNK         0.3000 
    226 H226       -3.8079  -22.1742  -52.2813 H         1 UNK         0.0600 
    227 H227       -2.6020  -22.3333  -50.1071 H         1 UNK         0.0600 
    228 H228       -1.7453  -21.2623  -51.2060 H         1 UNK         0.0600 
    229 H229       -2.7140  -20.5938  -49.8908 H         1 UNK         0.0600 
    230 H230       -3.7848  -20.9604  -54.0733 H         1 UNK         0.3000 
    231 H231       -4.0052  -19.3389  -55.5557 H         1 UNK         0.0600 
    232 H232       -2.6043  -17.5968  -53.4607 H         1 UNK         0.0600 
    233 H233       -2.7158  -17.2403  -55.1787 H         1 UNK         0.0600 
    234 H234       -1.8115  -18.6413  -54.6333 H         1 UNK         0.0600 
    235 H235       -6.2020  -19.6730  -53.5450 H         1 UNK         0.3000 
    236 H236       -8.1935  -18.9520  -53.0304 H         1 UNK         0.0600 
    237 H237       -9.4234  -17.3588  -54.4230 H         1 UNK         0.0600 
    238 H238       -7.9403  -16.7424  -55.1340 H         1 UNK         0.0600 
    239 H239       -8.4625  -18.3943  -55.4644 H         1 UNK         0.0600 
    240 H240       -5.7645  -17.9034  -51.6582 H         1 UNK         0.3000 
    241 H241       -7.1399  -15.8256  -50.0834 H         1 UNK         0.0600 
    242 H242       -4.6756  -18.5217  -48.2925 H         1 UNK         0.3800 
    243 H243       -4.6964  -18.4788  -50.0511 H         1 UNK         0.3800 
    244 H244       -5.0255  -14.4675  -49.9139 H         1 UNK         0.0800 
    245 H245       -5.8119  -14.4335  -51.4580 H         1 UNK         0.0800 
    246 H246       -2.8585  -16.3060  -49.5323 H         1 UNK         0.0800 
    247 H247       -2.5117  -14.6078  -49.7887 H         1 UNK         0.0800 
@<TRIPOS>BOND
     1    1    2 1    
     2    1  127 1    
     3    1  128 1    
     4    1  129 1    
     5    2    3 2    
     6    2    4 am   BACKBONE|DICT|INTERRES
     7    4    5 1    
     8    4  130 1    
     9    5    6 1    
    10    5   65 1    
    11    5  131 1    
    12    6    7 1    
    13    6  132 1    
    14    6  133 1    
    15    7    8 1    
    16    8    9 1    
    17    8  134 1    
    18    8  135 1    
    19    9   10 ar   
    20    9   14 ar   
    21   10   11 ar   
    22   10  136 1    
    23   11   12 ar   
    24   11  126 1    
    25   12   13 ar   
    26   12  137 1    
    27   13   14 ar   
    28   13   15 1    
    29   14  138 1    
    30   15   16 1    
    31   15  139 1    
    32   15  140 1    
    33   16   17 1    
    34   17   18 1    
    35   17  141 1    
    36   17  142 1    
    37   18   19 1    
    38   18   67 1    
    39   18  143 1    
    40   19   20 am   BACKBONE|DICT|INTERRES
    41   19  144 1    
    42   20   21 2    
    43   20   22 1    
    44   22   23 1    
    45   22   24 1    
    46   22  145 1    
    47   23  146 1    
    48   23  147 1    
    49   23  148 1    
    50   24   25 am   BACKBONE|DICT|INTERRES
    51   24  149 1    
    52   25   26 2    
    53   25   27 1    
    54   27   28 1    
    55   27   29 1    
    56   27  150 1    
    57   28  151 1    
    58   28  152 1    
    59   28  153 1    
    60   29   30 am   BACKBONE|DICT|INTERRES
    61   29  154 1    
    62   30   31 2    
    63   30   32 1    
    64   32   33 1    
    65   32   34 1    
    66   32  155 1    
    67   33  156 1    
    68   33  157 1    
    69   33  158 1    
    70   34   35 am   BACKBONE|DICT|INTERRES
    71   34  159 1    
    72   35   36 2    
    73   35   37 1    
    74   37   38 1    
    75   37   39 1    
    76   37  160 1    
    77   38  161 1    
    78   38  162 1    
    79   38  163 1    
    80   39   40 am   BACKBONE|DICT|INTERRES
    81   39  164 1    
    82   40   41 2    
    83   40   42 1    
    84   42   43 1    
    85   42   44 1    
    86   42  165 1    
    87   43  166 1    
    88   43  167 1    
    89   43  168 1    
    90   44   45 am   BACKBONE|DICT|INTERRES
    91   44  169 1    
    92   45   46 2    
    93   45   47 1    
    94   47   48 1    
    95   47   49 1    
    96   47  170 1    
    97   48  171 1    
    98   48  172 1    
    99   48  173 1    
   100   49   50 am   BACKBONE|DICT|INTERRES
   101   49  174 1    
   102   50   51 2    
   103   50   52 1    
   104   52   53 1    
   105   52   54 1    
   106   52  175 1    
   107   53  176 1    
   108   53  177 1    
   109   53  178 1    
   110   54   55 am   BACKBONE|DICT|INTERRES
   111   54  179 1    
   112   55   56 2    
   113   55   57 1    
   114   57   58 1    
   115   57   59 1    
   116   57  180 1    
   117   58  181 1    
   118   58  182 1    
   119   58  183 1    
   120   59   60 am   BACKBONE|DICT|INTERRES
   121   59  184 1    
   122   60   61 2    
   123   60   62 1    
   124   62   63 1    
   125   62   64 1    
   126   62  185 1    
   127   63  186 1    
   128   63  187 1    
   129   63  188 1    
   130   64   65 am   BACKBONE|DICT|INTERRES
   131   64  189 1    
   132   65   66 2    
   133   67   68 2    
   134   67   69 am   BACKBONE|DICT|INTERRES
   135   69   70 1    
   136   69  190 1    
   137   70   71 1    
   138   70   72 1    
   139   70  191 1    
   140   71  192 1    
   141   71  193 1    
   142   71  194 1    
   143   72   73 2    
   144   72   74 am   BACKBONE|DICT|INTERRES
   145   74   75 1    
   146   74  195 1    
   147   75   76 1    
   148   75   77 1    
   149   75  196 1    
   150   76  197 1    
   151   76  198 1    
   152   76  199 1    
   153   77   78 2    
   154   77   79 am   BACKBONE|DICT|INTERRES
   155   79   80 1    
   156   79  200 1    
   157   80   81 1    
   158   80   82 1    
   159   80  201 1    
   160   81  202 1    
   161   81  203 1    
   162   81  204 1    
   163   82   83 2    
   164   82   84 am   BACKBONE|DICT|INTERRES
   165   84   85 1    
   166   84  205 1    
   167   85   86 1    
   168   85   87 1    
   169   85  206 1    
   170   86  207 1    
   171   86  208 1    
   172   86  209 1    
   173   87   88 2    
   174   87   89 am   BACKBONE|DICT|INTERRES
   175   89   90 1    
   176   89  210 1    
   177   90   91 1    
   178   90   92 1    
   179   90  211 1    
   180   91  212 1    
   181   91  213 1    
   182   91  214 1    
   183   92   93 2    
   184   92   94 am   BACKBONE|DICT|INTERRES
   185   94   95 1    
   186   94  215 1    
   187   95   96 1    
   188   95   97 1    
   189   95  216 1    
   190   96  217 1    
   191   96  218 1    
   192   96  219 1    
   193   97   98 2    
   194   97   99 am   BACKBONE|DICT|INTERRES
   195   99  100 1    
   196   99  220 1    
   197  100  101 1    
   198  100  102 1    
   199  100  221 1    
   200  101  222 1    
   201  101  223 1    
   202  101  224 1    
   203  102  103 2    
   204  102  104 am   BACKBONE|DICT|INTERRES
   205  104  105 1    
   206  104  225 1    
   207  105  106 1    
   208  105  107 1    
   209  105  226 1    
   210  106  227 1    
   211  106  228 1    
   212  106  229 1    
   213  107  108 2    
   214  107  109 am   BACKBONE|DICT|INTERRES
   215  109  110 1    
   216  109  230 1    
   217  110  111 1    
   218  110  112 1    
   219  110  231 1    
   220  111  232 1    
   221  111  233 1    
   222  111  234 1    
   223  112  113 2    
   224  112  114 am   BACKBONE|DICT|INTERRES
   225  114  115 1    
   226  114  235 1    
   227  115  116 1    
   228  115  117 1    
   229  115  236 1    
   230  116  237 1    
   231  116  238 1    
   232  116  239 1    
   233  117  118 2    
   234  117  119 am   BACKBONE|DICT|INTERRES
   235  119  120 1    
   236  119  240 1    
   237  120  121 1    
   238  120  124 1    
   239  120  241 1    
   240  121  122 am   BACKBONE|DICT|INTERRES
   241  121  123 2    
   242  122  242 1    
   243  122  243 1    
   244  124  125 1    
   245  124  244 1    
   246  124  245 1    
   247  125  126 1    
   248  126  246 1    
   249  126  247 1    
@<TRIPOS>SUBSTRUCTURE
     1 UNK         1 GROUP             0       ****    0 ROOT    
