@<TRIPOS>MOLECULE
3R540
247   249    1
SMALL
USER_CHARGES


@<TRIPOS>ATOM
      1 CA          1.1388   -8.9107  -47.0915 C.3       0 UNK        -0.1800 
      2 C           1.0417  -10.2307  -47.8432 C.2       0 UNK         0.5000 
      3 O           1.9525  -10.5745  -48.5971 O.2       0 UNK        -0.5000 
      4 N          -0.0604  -10.9661  -47.6476 N.am      1 UNK        -0.5000 
      5 CA         -0.2869  -12.3052  -48.1973 C.3       1 UNK         0.1400 
      6 C6         -1.7643  -12.7328  -48.0243 C.3       23 UNK        -0.0398 
      7 S7         -2.2114  -14.2081  -49.0023 S.3       23 UNK        -0.2404 
      8 C8         -2.1923  -15.4668  -47.6918 C.3       23 UNK        -0.0205 
      9 C9         -2.5607  -16.8438  -48.2144 C.ar      23 UNK        -0.0193 
     10 C10        -3.8337  -17.3697  -47.9760 C.ar      23 UNK        -0.1150 
     11 C11        -4.1545  -18.6673  -48.3841 C.ar      23 UNK        -0.0193 
     12 C12        -3.1825  -19.4386  -49.0256 C.ar      23 UNK        -0.1150 
     13 C13        -1.9131  -18.9194  -49.2928 C.ar      23 UNK        -0.0193 
     14 C14        -1.6133  -17.6119  -48.8967 C.ar      23 UNK        -0.1150 
     15 C15        -0.8883  -19.7895  -50.0144 C.3       23 UNK        -0.0205 
     16 S16         0.7922  -19.7740  -49.2956 S.3       23 UNK        -0.2404 
     17 C17         0.5125  -19.9086  -47.4977 C.3       23 UNK        -0.0398 
     18 CA          0.4004  -21.3563  -46.9626 C.3       11 UNK         0.1400 
     19 N           0.7881  -21.4256  -45.5517 N.am      11 UNK        -0.5000 
     20 C           0.8942  -22.5417  -44.8192 C.2       10 UNK         0.5000 
     21 O           0.7326  -23.6748  -45.2706 O.2       10 UNK        -0.5000 
     22 CA          1.1747  -22.3532  -43.3160 C.3       10 UNK         0.1400 
     23 CB          2.6698  -22.1137  -43.0589 C.3       10 UNK        -0.1800 
     24 N           0.3905  -21.2613  -42.7333 N.am      10 UNK        -0.5000 
     25 C          -0.9473  -21.2650  -42.6386 C.2       9 UNK         0.5000 
     26 O          -1.6506  -22.2148  -42.9824 O.2       9 UNK        -0.5000 
     27 CA         -1.6180  -19.9804  -42.1171 C.3       9 UNK         0.1400 
     28 CB         -1.5543  -19.9115  -40.5843 C.3       9 UNK        -0.1800 
     29 N          -1.0403  -18.7647  -42.6918 N.am      9 UNK        -0.5000 
     30 C          -1.0723  -18.4520  -43.9953 C.2       8 UNK         0.5000 
     31 O          -1.6356  -19.1365  -44.8471 O.2       8 UNK        -0.5000 
     32 CA         -0.2921  -17.1997  -44.4330 C.3       8 UNK         0.1400 
     33 CB         -1.1035  -15.9239  -44.1690 C.3       8 UNK        -0.1800 
     34 N           1.0167  -17.0992  -43.7853 N.am      8 UNK        -0.5000 
     35 C           1.9989  -18.0030  -43.9135 C.2       7 UNK         0.5000 
     36 O           1.9260  -18.9948  -44.6346 O.2       7 UNK        -0.5000 
     37 CA          3.2500  -17.7989  -43.0475 C.3       7 UNK         0.1400 
     38 CB          4.2008  -16.7775  -43.6882 C.3       7 UNK        -0.1800 
     39 N           2.8952  -17.3827  -41.6914 N.am      7 UNK        -0.5000 
     40 C           2.3077  -18.1846  -40.7911 C.2       6 UNK         0.5000 
     41 O           2.0563  -19.3725  -40.9967 O.2       6 UNK        -0.5000 
     42 CA          1.8970  -17.5403  -39.4535 C.3       6 UNK         0.1400 
     43 CB          3.0782  -17.5327  -38.4721 C.3       6 UNK        -0.1800 
     44 N           1.3948  -16.1747  -39.6171 N.am      6 UNK        -0.5000 
     45 C           0.2504  -15.8582  -40.2400 C.2       5 UNK         0.5000 
     46 O          -0.5305  -16.6938  -40.6937 O.2       5 UNK        -0.5000 
     47 CA         -0.0437  -14.3566  -40.4351 C.3       5 UNK         0.1400 
     48 CB         -0.8115  -13.7974  -39.2283 C.3       5 UNK        -0.1800 
     49 N           1.1592  -13.5474  -40.6639 N.am      5 UNK        -0.5000 
     50 C           2.0099  -13.7224  -41.6841 C.2       4 UNK         0.5000 
     51 O           1.8610  -14.5932  -42.5449 O.2       4 UNK        -0.5000 
     52 CA          3.2635  -12.8255  -41.6934 C.3       4 UNK         0.1400 
     53 CB          4.2079  -13.2149  -40.5432 C.3       4 UNK        -0.1800 
     54 N           4.0022  -12.9496  -42.9490 N.am      4 UNK        -0.5000 
     55 C           3.6595  -12.3742  -44.1075 C.2       3 UNK         0.5000 
     56 O           2.7428  -11.5595  -44.2226 O.2       3 UNK        -0.5000 
     57 CA          4.4510  -12.7981  -45.3554 C.3       3 UNK         0.1400 
     58 CB          5.7900  -13.5089  -45.0406 C.3       3 UNK        -0.1800 
     59 N           3.5598  -13.6413  -46.1437 N.am      3 UNK        -0.5000 
     60 C           3.7690  -14.1239  -47.3721 C.2       2 UNK         0.5000 
     61 O           4.8089  -13.9629  -48.0114 O.2       2 UNK        -0.5000 
     62 CA          2.5967  -14.8886  -48.0186 C.3       2 UNK         0.1400 
     63 CB          2.1349  -16.0915  -47.1694 C.3       2 UNK        -0.1800 
     64 N           1.4835  -13.9978  -48.3680 N.am      2 UNK        -0.5000 
     65 C           0.6881  -13.3051  -47.5403 C.2       1 UNK         0.5000 
     66 O           0.7017  -13.4124  -46.3125 O.2       1 UNK        -0.5000 
     67 C          -1.0100  -21.9397  -47.1909 C.2       11 UNK         0.5000 
     68 O          -1.1892  -22.7618  -48.0891 O.2       11 UNK        -0.5000 
     69 N          -1.9709  -21.5425  -46.3443 N.am      12 UNK        -0.5000 
     70 CA         -3.3505  -22.0274  -46.3535 C.3       12 UNK         0.1400 
     71 CB         -4.1883  -21.2004  -45.3662 C.3       12 UNK        -0.1800 
     72 C          -3.4690  -23.5282  -46.0388 C.2       12 UNK         0.5000 
     73 O          -4.2804  -24.2121  -46.6631 O.2       12 UNK        -0.5000 
     74 N          -2.6539  -24.0142  -45.0926 N.am      13 UNK        -0.5000 
     75 CA         -2.5584  -25.4284  -44.7327 C.3       13 UNK         0.1400 
     76 CB         -1.7548  -25.5754  -43.4315 C.3       13 UNK        -0.1800 
     77 C          -1.9458  -26.2849  -45.8567 C.2       13 UNK         0.5000 
     78 O          -2.4129  -27.4010  -46.0877 O.2       13 UNK        -0.5000 
     79 N          -0.9218  -25.7490  -46.5355 N.am      14 UNK        -0.5000 
     80 CA         -0.2618  -26.3809  -47.6764 C.3       14 UNK         0.1400 
     81 CB          1.0637  -25.6597  -47.9696 C.3       14 UNK        -0.1800 
     82 C          -1.1578  -26.4201  -48.9276 C.2       14 UNK         0.5000 
     83 O          -1.3093  -27.4869  -49.5251 O.2       14 UNK        -0.5000 
     84 N          -1.7343  -25.2619  -49.2858 N.am      15 UNK        -0.5000 
     85 CA         -2.5665  -25.0085  -50.4661 C.3       15 UNK         0.1400 
     86 CB         -3.9611  -25.6473  -50.2848 C.3       15 UNK        -0.1800 
     87 C          -1.8395  -25.4071  -51.7716 C.2       15 UNK         0.5000 
     88 O          -0.7243  -24.9320  -51.9955 O.2       15 UNK        -0.5000 
     89 N          -2.4640  -26.2730  -52.5873 N.am      16 UNK        -0.5000 
     90 CA         -1.9391  -26.8639  -53.8267 C.3       16 UNK         0.1400 
     91 CB         -0.7873  -27.8411  -53.5095 C.3       16 UNK        -0.1800 
     92 C          -1.5604  -25.8058  -54.8849 C.2       16 UNK         0.5000 
     93 O          -0.4760  -25.8602  -55.4693 O.2       16 UNK        -0.5000 
     94 N          -2.4677  -24.8480  -55.0945 N.am      17 UNK        -0.5000 
     95 CA         -2.3111  -23.7060  -55.9877 C.3       17 UNK         0.1400 
     96 CB         -1.6043  -22.5699  -55.2236 C.3       17 UNK        -0.1800 
     97 C          -3.6909  -23.2727  -56.5099 C.2       17 UNK         0.5000 
     98 O          -4.7058  -23.8774  -56.1493 O.2       17 UNK        -0.5000 
     99 N          -3.7034  -22.2248  -57.3444 N.am      18 UNK        -0.5000 
    100 CA        -4.9066  -21.5515  -57.8408 C.3       18 UNK         0.1400 
    101 CB        -4.4852  -20.5136  -58.8932 C.3       18 UNK        -0.1800 
    102 C         -5.7030  -20.8704  -56.7103 C.2       18 UNK         0.5000 
    103 O         -5.1539  -20.6240  -55.6337 O.2       18 UNK        -0.5000 
    104 N         -6.9764  -20.5503  -56.9779 N.am      19 UNK        -0.5000 
    105 CA        -7.9387  -19.9939  -56.0159 C.3       19 UNK         0.1400 
    106 CB        -9.2910  -19.7951  -56.7165 C.3       19 UNK        -0.1800 
    107 C         -7.4952  -18.6877  -55.3249 C.2       19 UNK         0.5000 
    108 O         -7.8553  -18.4638  -54.1690 O.2       19 UNK        -0.5000 
    109 N         -6.6777  -17.8802  -56.0153 N.am      20 UNK        -0.5000 
    110 CA        -6.0427  -16.6681  -55.4862 C.3       20 UNK         0.1400 
    111 CB        -5.3712  -15.9174  -56.6465 C.3       20 UNK        -0.1800 
    112 C         -5.0223  -16.9385  -54.3578 C.2       20 UNK         0.5000 
    113 O         -4.7404  -16.0363  -53.5693 O.2       20 UNK        -0.5000 
    114 N         -4.5039  -18.1703  -54.2973 N.am      21 UNK        -0.5000 
    115 CA        -3.6020  -18.6907  -53.2723 C.3       21 UNK         0.1400 
    116 CB        -2.2839  -19.0928  -53.9564 C.3       21 UNK        -0.1800 
    117 C         -4.2624  -19.8679  -52.5226 C.2       21 UNK         0.5000 
    118 O         -3.5610  -20.7352  -52.0009 O.2       21 UNK        -0.5000 
    119 N         -5.6035  -19.8818  -52.4951 N.am      22 UNK        -0.5000 
    120 CA        -6.4660  -20.8724  -51.8281 C.3       22 UNK         0.1400 
    121 C         -6.3935  -22.3162  -52.4153 C.2       22 UNK         0.5000 
    122 N         -5.8923  -22.5115  -53.6269 N.am      22 UNK        -0.7600 
    123 O         -6.8303  -23.2734  -51.7819 O.2       22 UNK        -0.5000 
    124 C124       -6.3339  -20.8528  -50.2798 C.3       23 UNK        -0.0398 
    125 S125       -6.6248  -19.1985  -49.5555 S.3       23 UNK        -0.2404 
    126 C126       -5.5368  -19.2395  -48.0975 C.3       23 UNK        -0.0205 
    127 H127        0.2428   -8.7121  -46.5029 H         1 UNK         0.0600 
    128 H128        1.2747   -8.0872  -47.7926 H         1 UNK         0.0600 
    129 H129        1.9929   -8.9293  -46.4143 H         1 UNK         0.0600 
    130 H130       -0.7560  -10.6391  -46.9926 H         1 UNK         0.3000 
    131 H131       -0.0747  -12.2549  -49.2677 H         1 UNK         0.0600 
    132 H132       -2.0084  -12.8852  -46.9712 H         1 UNK         0.0800 
    133 H133       -2.4165  -11.9267  -48.3631 H         1 UNK         0.0800 
    134 H134       -2.8809  -15.1694  -46.8995 H         1 UNK         0.0800 
    135 H135       -1.2016  -15.5111  -47.2381 H         1 UNK         0.0800 
    136 H136       -4.5710  -16.7739  -47.4566 H         1 UNK         0.1150 
    137 H137       -3.4110  -20.4495  -49.3263 H         1 UNK         0.1150 
    138 H138       -0.6331  -17.2012  -49.0930 H         1 UNK         0.1150 
    139 H139       -1.2314  -20.8242  -50.0610 H         1 UNK         0.0800 
    140 H140       -0.8202  -19.4505  -51.0474 H         1 UNK         0.0800 
    141 H141       -0.3282  -19.2951  -47.1764 H         1 UNK         0.0800 
    142 H142        1.3883  -19.4319  -47.0594 H         1 UNK         0.0800 
    143 H143        1.1093  -21.9822  -47.5085 H         1 UNK         0.0600 
    144 H144        0.9984  -20.5372  -45.1027 H         1 UNK         0.3000 
    145 H145        0.8893  -23.2766  -42.8080 H         1 UNK         0.0600 
    146 H146        2.8787  -22.0410  -41.9914 H         1 UNK         0.0600 
    147 H147        3.2691  -22.9351  -43.4534 H         1 UNK         0.0600 
    148 H148        3.0206  -21.1958  -43.5303 H         1 UNK         0.0600 
    149 H149        0.9058  -20.4570  -42.3929 H         1 UNK         0.3000 
    150 H150       -2.6694  -20.0158  -42.4094 H         1 UNK         0.0600 
    151 H151       -2.0010  -20.7992  -40.1348 H         1 UNK         0.0600 
    152 H152       -2.0990  -19.0462  -40.2063 H         1 UNK         0.0600 
    153 H153       -0.5275  -19.8424  -40.2250 H         1 UNK         0.0600 
    154 H154       -0.6081  -18.1137  -42.0430 H         1 UNK         0.3000 
    155 H155       -0.1254  -17.2773  -45.5090 H         1 UNK         0.0600 
    156 H156       -1.3020  -15.7842  -43.1073 H         1 UNK         0.0600 
    157 H157       -2.0673  -15.9642  -44.6768 H         1 UNK         0.0600 
    158 H158       -0.5779  -15.0400  -44.5302 H         1 UNK         0.0600 
    159 H159        1.1843  -16.2804  -43.2071 H         1 UNK         0.3000 
    160 H160        3.7760  -18.7539  -42.9837 H         1 UNK         0.0600 
    161 H161        3.7151  -15.8167  -43.8531 H         1 UNK         0.0600 
    162 H162        4.5495  -17.1313  -44.6592 H         1 UNK         0.0600 
    163 H163        5.0809  -16.6107  -43.0672 H         1 UNK         0.0600 
    164 H164        2.9997  -16.4024  -41.4764 H         1 UNK         0.3000 
    165 H165        1.0982  -18.1479  -39.0227 H         1 UNK         0.0600 
    166 H166        2.7781  -17.1482  -37.4971 H         1 UNK         0.0600 
    167 H167        3.4632  -18.5416  -38.3178 H         1 UNK         0.0600 
    168 H168        3.9028  -16.9186  -38.8365 H         1 UNK         0.0600 
    169 H169        1.9755  -15.4274  -39.2670 H         1 UNK         0.3000 
    170 H170       -0.6791  -14.2584  -41.3172 H         1 UNK         0.0600 
    171 H171       -1.7236  -14.3680  -39.0478 H         1 UNK         0.0600 
    172 H172       -0.2140  -13.8363  -38.3167 H         1 UNK         0.0600 
    173 H173       -1.1062  -12.7610  -39.3937 H         1 UNK         0.0600 
    174 H174        1.3464  -12.8205  -39.9883 H         1 UNK         0.3000 
    175 H175        2.9495  -11.7880  -41.5624 H         1 UNK         0.0600 
    176 H176        4.5248  -14.2563  -40.6154 H         1 UNK         0.0600 
    177 H177        5.1035  -12.5931  -40.5432 H         1 UNK         0.0600 
    178 H178        3.7288  -13.0836  -39.5723 H         1 UNK         0.0600 
    179 H179        4.7490  -13.6274  -42.9603 H         1 UNK         0.3000 
    180 H180        4.6624  -11.8923  -45.9266 H         1 UNK         0.0600 
    181 H181        5.6414  -14.4925  -44.5974 H         1 UNK         0.0600 
    182 H182        6.3975  -12.9180  -44.3538 H         1 UNK         0.0600 
    183 H183        6.3882  -13.6449  -45.9409 H         1 UNK         0.0600 
    184 H184        2.6193  -13.7343  -45.7674 H         1 UNK         0.3000 
    185 H185        2.9653  -15.2891  -48.9643 H         1 UNK         0.0600 
    186 H186        1.7585  -15.7876  -46.1938 H         1 UNK         0.0600 
    187 H187        1.3458  -16.6499  -47.6723 H         1 UNK         0.0600 
    188 H188        2.9598  -16.7830  -46.9946 H         1 UNK         0.0600 
    189 H189        1.3970  -13.8111  -49.3574 H         1 UNK         0.3000 
    190 H190       -1.7553  -20.8170  -45.6643 H         1 UNK         0.3000 
    191 H191       -3.7461  -21.8735  -47.3583 H         1 UNK         0.0600 
    192 H192       -3.8445  -21.3292  -44.3399 H         1 UNK         0.0600 
    193 H193       -5.2375  -21.4959  -45.4005 H         1 UNK         0.0600 
    194 H194       -4.1395  -20.1367  -45.5992 H         1 UNK         0.0600 
    195 H195       -2.0670  -23.3685  -44.5737 H         1 UNK         0.3000 
    196 H196       -3.5695  -25.7971  -44.5476 H         1 UNK         0.0600 
    197 H197       -1.6926  -26.6209  -43.1272 H         1 UNK         0.0600 
    198 H198       -2.2236  -25.0258  -42.6151 H         1 UNK         0.0600 
    199 H199       -0.7359  -25.2042  -43.5418 H         1 UNK         0.0600 
    200 H200       -0.5577  -24.8488  -46.2393 H         1 UNK         0.3000 
    201 H201       -0.0267  -27.4116  -47.4024 H         1 UNK         0.0600 
    202 H202        1.7368  -25.7116  -47.1137 H         1 UNK         0.0600 
    203 H203        0.9083  -24.6067  -48.2068 H         1 UNK         0.0600 
    204 H204        1.5773  -26.1154  -48.8170 H         1 UNK         0.0600 
    205 H205       -1.5096  -24.4300  -48.7422 H         1 UNK         0.3000 
    206 H206       -2.7041  -23.9270  -50.5144 H         1 UNK         0.0600 
    207 H207       -4.4293  -25.2946  -49.3654 H         1 UNK         0.0600 
    208 H208       -4.6300  -25.3771  -51.1031 H         1 UNK         0.0600 
    209 H209       -3.9123  -26.7354  -50.2305 H         1 UNK         0.0600 
    210 H210       -3.3778  -26.5985  -52.3056 H         1 UNK         0.3000 
    211 H211       -2.7528  -27.4480  -54.2589 H         1 UNK         0.0600 
    212 H212        0.0841  -27.3237  -53.1069 H         1 UNK         0.0600 
    213 H213       -0.4673  -28.3735  -54.4059 H         1 UNK         0.0600 
    214 H214       -1.0963  -28.5901  -52.7802 H         1 UNK         0.0600 
    215 H215       -3.3667  -24.9008  -54.6344 H         1 UNK         0.3000 
    216 H216       -1.7094  -23.9954  -56.8516 H         1 UNK         0.0600 
    217 H217       -1.4082  -21.7144  -55.8698 H         1 UNK         0.0600 
    218 H218       -0.6426  -22.8974  -54.8282 H         1 UNK         0.0600 
    219 H219       -2.2065  -22.2231  -54.3824 H         1 UNK         0.0600 
    220 H220       -2.8264  -21.7801  -57.5705 H         1 UNK         0.3000 
    221 H221       -5.5474  -22.2994  -58.3120 H         1 UNK         0.0600 
    222 H222       -3.8457  -19.7415  -58.4628 H         1 UNK         0.0600 
    223 H223       -3.9400  -20.9821  -59.7129 H         1 UNK         0.0600 
    224 H224       -5.3527  -20.0158  -59.3281 H         1 UNK         0.0600 
    225 H225       -7.3449  -20.7671  -57.8928 H         1 UNK         0.3000 
    226 H226       -8.0711  -20.7395  -55.2290 H         1 UNK         0.0600 
    227 H227       -9.6751  -20.7368  -57.1090 H         1 UNK         0.0600 
    228 H228      -10.0380  -19.4061  -56.0231 H         1 UNK         0.0600 
    229 H229       -9.2141  -19.0907  -57.5457 H         1 UNK         0.0600 
    230 H230       -6.4281  -18.1481  -56.9559 H         1 UNK         0.3000 
    231 H231       -6.8266  -16.0308  -55.0719 H         1 UNK         0.0600 
    232 H232       -6.0956  -15.6495  -57.4159 H         1 UNK         0.0600 
    233 H233       -4.5891  -16.5174  -57.1137 H         1 UNK         0.0600 
    234 H234       -4.9111  -14.9914  -56.2990 H         1 UNK         0.0600 
    235 H235       -4.8186  -18.8669  -54.9674 H         1 UNK         0.3000 
    236 H236       -3.3847  -17.9277  -52.5222 H         1 UNK         0.0600 
    237 H237       -1.5823  -19.5423  -53.2545 H         1 UNK         0.0600 
    238 H238       -2.4605  -19.8127  -54.7549 H         1 UNK         0.0600 
    239 H239       -1.7917  -18.2250  -54.3953 H         1 UNK         0.0600 
    240 H240       -6.0978  -19.1391  -52.9721 H         1 UNK         0.3000 
    241 H241       -7.4819  -20.5495  -52.0575 H         1 UNK         0.0600 
    242 H242       -5.8657  -23.4390  -54.0192 H         1 UNK         0.3800 
    243 H243       -5.5395  -21.7348  -54.1782 H         1 UNK         0.3800 
    244 H244       -5.3562  -21.2305  -49.9853 H         1 UNK         0.0800 
    245 H245       -7.0614  -21.5289  -49.8281 H         1 UNK         0.0800 
    246 H246       -5.4573  -20.2622  -47.7317 H         1 UNK         0.0800 
    247 H247       -6.0137  -18.6735  -47.2960 H         1 UNK         0.0800 
@<TRIPOS>BOND
     1    1    2 1    
     2    1  127 1    
     3    1  128 1    
     4    1  129 1    
     5    2    3 2    
     6    2    4 am   BACKBONE|DICT|INTERRES
     7    4    5 1    
     8    4  130 1    
     9    5    6 1    
    10    5   65 1    
    11    5  131 1    
    12    6    7 1    
    13    6  132 1    
    14    6  133 1    
    15    7    8 1    
    16    8    9 1    
    17    8  134 1    
    18    8  135 1    
    19    9   10 ar   
    20    9   14 ar   
    21   10   11 ar   
    22   10  136 1    
    23   11   12 ar   
    24   11  126 1    
    25   12   13 ar   
    26   12  137 1    
    27   13   14 ar   
    28   13   15 1    
    29   14  138 1    
    30   15   16 1    
    31   15  139 1    
    32   15  140 1    
    33   16   17 1    
    34   17   18 1    
    35   17  141 1    
    36   17  142 1    
    37   18   19 1    
    38   18   67 1    
    39   18  143 1    
    40   19   20 am   BACKBONE|DICT|INTERRES
    41   19  144 1    
    42   20   21 2    
    43   20   22 1    
    44   22   23 1    
    45   22   24 1    
    46   22  145 1    
    47   23  146 1    
    48   23  147 1    
    49   23  148 1    
    50   24   25 am   BACKBONE|DICT|INTERRES
    51   24  149 1    
    52   25   26 2    
    53   25   27 1    
    54   27   28 1    
    55   27   29 1    
    56   27  150 1    
    57   28  151 1    
    58   28  152 1    
    59   28  153 1    
    60   29   30 am   BACKBONE|DICT|INTERRES
    61   29  154 1    
    62   30   31 2    
    63   30   32 1    
    64   32   33 1    
    65   32   34 1    
    66   32  155 1    
    67   33  156 1    
    68   33  157 1    
    69   33  158 1    
    70   34   35 am   BACKBONE|DICT|INTERRES
    71   34  159 1    
    72   35   36 2    
    73   35   37 1    
    74   37   38 1    
    75   37   39 1    
    76   37  160 1    
    77   38  161 1    
    78   38  162 1    
    79   38  163 1    
    80   39   40 am   BACKBONE|DICT|INTERRES
    81   39  164 1    
    82   40   41 2    
    83   40   42 1    
    84   42   43 1    
    85   42   44 1    
    86   42  165 1    
    87   43  166 1    
    88   43  167 1    
    89   43  168 1    
    90   44   45 am   BACKBONE|DICT|INTERRES
    91   44  169 1    
    92   45   46 2    
    93   45   47 1    
    94   47   48 1    
    95   47   49 1    
    96   47  170 1    
    97   48  171 1    
    98   48  172 1    
    99   48  173 1    
   100   49   50 am   BACKBONE|DICT|INTERRES
   101   49  174 1    
   102   50   51 2    
   103   50   52 1    
   104   52   53 1    
   105   52   54 1    
   106   52  175 1    
   107   53  176 1    
   108   53  177 1    
   109   53  178 1    
   110   54   55 am   BACKBONE|DICT|INTERRES
   111   54  179 1    
   112   55   56 2    
   113   55   57 1    
   114   57   58 1    
   115   57   59 1    
   116   57  180 1    
   117   58  181 1    
   118   58  182 1    
   119   58  183 1    
   120   59   60 am   BACKBONE|DICT|INTERRES
   121   59  184 1    
   122   60   61 2    
   123   60   62 1    
   124   62   63 1    
   125   62   64 1    
   126   62  185 1    
   127   63  186 1    
   128   63  187 1    
   129   63  188 1    
   130   64   65 am   BACKBONE|DICT|INTERRES
   131   64  189 1    
   132   65   66 2    
   133   67   68 2    
   134   67   69 am   BACKBONE|DICT|INTERRES
   135   69   70 1    
   136   69  190 1    
   137   70   71 1    
   138   70   72 1    
   139   70  191 1    
   140   71  192 1    
   141   71  193 1    
   142   71  194 1    
   143   72   73 2    
   144   72   74 am   BACKBONE|DICT|INTERRES
   145   74   75 1    
   146   74  195 1    
   147   75   76 1    
   148   75   77 1    
   149   75  196 1    
   150   76  197 1    
   151   76  198 1    
   152   76  199 1    
   153   77   78 2    
   154   77   79 am   BACKBONE|DICT|INTERRES
   155   79   80 1    
   156   79  200 1    
   157   80   81 1    
   158   80   82 1    
   159   80  201 1    
   160   81  202 1    
   161   81  203 1    
   162   81  204 1    
   163   82   83 2    
   164   82   84 am   BACKBONE|DICT|INTERRES
   165   84   85 1    
   166   84  205 1    
   167   85   86 1    
   168   85   87 1    
   169   85  206 1    
   170   86  207 1    
   171   86  208 1    
   172   86  209 1    
   173   87   88 2    
   174   87   89 am   BACKBONE|DICT|INTERRES
   175   89   90 1    
   176   89  210 1    
   177   90   91 1    
   178   90   92 1    
   179   90  211 1    
   180   91  212 1    
   181   91  213 1    
   182   91  214 1    
   183   92   93 2    
   184   92   94 am   BACKBONE|DICT|INTERRES
   185   94   95 1    
   186   94  215 1    
   187   95   96 1    
   188   95   97 1    
   189   95  216 1    
   190   96  217 1    
   191   96  218 1    
   192   96  219 1    
   193   97   98 2    
   194   97   99 am   BACKBONE|DICT|INTERRES
   195   99  100 1    
   196   99  220 1    
   197  100  101 1    
   198  100  102 1    
   199  100  221 1    
   200  101  222 1    
   201  101  223 1    
   202  101  224 1    
   203  102  103 2    
   204  102  104 am   BACKBONE|DICT|INTERRES
   205  104  105 1    
   206  104  225 1    
   207  105  106 1    
   208  105  107 1    
   209  105  226 1    
   210  106  227 1    
   211  106  228 1    
   212  106  229 1    
   213  107  108 2    
   214  107  109 am   BACKBONE|DICT|INTERRES
   215  109  110 1    
   216  109  230 1    
   217  110  111 1    
   218  110  112 1    
   219  110  231 1    
   220  111  232 1    
   221  111  233 1    
   222  111  234 1    
   223  112  113 2    
   224  112  114 am   BACKBONE|DICT|INTERRES
   225  114  115 1    
   226  114  235 1    
   227  115  116 1    
   228  115  117 1    
   229  115  236 1    
   230  116  237 1    
   231  116  238 1    
   232  116  239 1    
   233  117  118 2    
   234  117  119 am   BACKBONE|DICT|INTERRES
   235  119  120 1    
   236  119  240 1    
   237  120  121 1    
   238  120  124 1    
   239  120  241 1    
   240  121  122 am   BACKBONE|DICT|INTERRES
   241  121  123 2    
   242  122  242 1    
   243  122  243 1    
   244  124  125 1    
   245  124  244 1    
   246  124  245 1    
   247  125  126 1    
   248  126  246 1    
   249  126  247 1    
@<TRIPOS>SUBSTRUCTURE
     1 UNK         1 GROUP             0       ****    0 ROOT    
