@<TRIPOS>MOLECULE
3R540
247   249    1
SMALL
USER_CHARGES


@<TRIPOS>ATOM
      1 CA         -1.6705   -9.2193  -42.0981 C.3       0 UNK        -0.1800 
      2 C          -1.6771   -9.8334  -43.4906 C.2       0 UNK         0.5000 
      3 O          -2.1398   -9.1990  -44.4398 O.2       0 UNK        -0.5000 
      4 N          -1.1607  -11.0620  -43.6224 N.am      1 UNK        -0.5000 
      5 CA         -1.0528  -11.8098  -44.8797 C.3       1 UNK         0.1400 
      6 C6         -1.0378  -13.3418  -44.6258 C.3       23 UNK        -0.0398 
      7 S7         -1.7617  -14.2935  -46.0080 S.3       23 UNK        -0.2404 
      8 C8         -3.0947  -15.1938  -45.1392 C.3       23 UNK        -0.0205 
      9 C9         -3.7842  -16.3008  -45.9391 C.ar      23 UNK        -0.0193 
     10 C10        -3.7993  -16.3277  -47.3394 C.ar      23 UNK        -0.1150 
     11 C11        -4.4941  -17.3258  -48.0319 C.ar      23 UNK        -0.0193 
     12 C12        -5.1810  -18.3047  -47.3078 C.ar      23 UNK        -0.1150 
     13 C13        -5.1503  -18.3156  -45.9104 C.ar      23 UNK        -0.0193 
     14 C14        -4.4562  -17.3066  -45.2373 C.ar      23 UNK        -0.1150 
     15 C15        -5.8782  -19.3983  -45.1175 C.3       23 UNK        -0.0205 
     16 S16        -5.4935  -21.0974  -45.6644 S.3       23 UNK        -0.2404 
     17 C17        -3.6761  -21.1206  -45.5334 C.3       23 UNK        -0.0398 
     18 CA         -3.0855  -22.5497  -45.6329 C.3       11 UNK         0.1400 
     19 N          -1.7092  -22.5478  -46.1369 N.am      11 UNK        -0.5000 
     20 C          -1.0237  -23.6368  -46.5105 C.2       10 UNK         0.5000 
     21 O          -1.5129  -24.7632  -46.5388 O.2       10 UNK        -0.5000 
     22 CA          0.4577  -23.4536  -46.8896 C.3       10 UNK         0.1400 
     23 CB          0.6143  -23.1356  -48.3810 C.3       10 UNK        -0.1800 
     24 N           1.1242  -22.4252  -46.0940 N.am      10 UNK        -0.5000 
     25 C           1.3339  -22.5205  -44.7738 C.2       9 UNK         0.5000 
     26 O           1.0357  -23.5101  -44.1058 O.2       9 UNK        -0.5000 
     27 CA          1.9167  -21.2816  -44.0738 C.3       9 UNK         0.1400 
     28 CB          3.4343  -21.1930  -44.2918 C.3       9 UNK        -0.1800 
     29 N           1.2801  -20.0405  -44.5156 N.am      9 UNK        -0.5000 
     30 C          -0.0196  -19.7506  -44.3556 C.2       8 UNK         0.5000 
     31 O          -0.8213  -20.4879  -43.7807 O.2       8 UNK        -0.5000 
     32 CA         -0.5125  -18.4346  -44.9824 C.3       8 UNK         0.1400 
     33 CB         -0.0770  -17.2421  -44.1176 C.3       8 UNK        -0.1800 
     34 N          -0.0326  -18.2523  -46.3536 N.am      8 UNK        -0.5000 
     35 C          -0.3010  -19.0724  -47.3808 C.2       7 UNK         0.5000 
     36 O          -1.0193  -20.0651  -47.2986 O.2       7 UNK        -0.5000 
     37 CA          0.4101  -18.7744  -48.7098 C.3       7 UNK         0.1400 
     38 CB         -0.3034  -17.6514  -49.4800 C.3       7 UNK        -0.1800 
     39 N           1.8131  -18.4254  -48.4893 N.am      7 UNK        -0.5000 
     40 C           2.7481  -19.2885  -48.0642 C.2       6 UNK         0.5000 
     41 O           2.5336  -20.4826  -47.8570 O.2       6 UNK        -0.5000 
     42 CA          4.1477  -18.7103  -47.7841 C.3       6 UNK         0.1400 
     43 CB          4.9777  -18.6584  -49.0753 C.3       6 UNK        -0.1800 
     44 N           4.0932  -17.3742  -47.1891 N.am      6 UNK        -0.5000 
     45 C           3.6189  -17.1095  -45.9631 C.2       5 UNK         0.5000 
     46 O           3.2425  -17.9770  -45.1760 O.2       5 UNK        -0.5000 
     47 CA          3.4894  -15.6222  -45.5777 C.3       5 UNK         0.1400 
     48 CB          4.7891  -15.1133  -44.9376 C.3       5 UNK        -0.1800 
     49 N           3.1327  -14.7595  -46.7096 N.am      5 UNK        -0.5000 
     50 C           2.0002  -14.8750  -47.4144 C.2       4 UNK         0.5000 
     51 O           1.1437  -15.7325  -47.1872 O.2       4 UNK        -0.5000 
     52 CA          1.8313  -13.9369  -48.6166 C.3       4 UNK         0.1400 
     53 CB          2.6487  -14.4598  -49.8134 C.3       4 UNK        -0.1800 
     54 N           0.4150  -13.9032  -48.9685 N.am      4 UNK        -0.5000 
     55 C          -0.2725  -12.9389  -49.5903 C.2       3 UNK         0.5000 
     56 O          -1.4873  -13.0262  -49.7522 O.2       3 UNK        -0.5000 
     57 CA          0.4393  -11.6457  -50.0269 C.3       3 UNK         0.1400 
     58 CB         -0.2292  -10.9891  -51.2486 C.3       3 UNK        -0.1800 
     59 N           0.3574  -10.7397  -48.8915 N.am      3 UNK        -0.5000 
     60 C           1.3792  -10.0787  -48.3394 C.2       2 UNK         0.5000 
     61 O           2.5115  -10.0318  -48.8209 O.2       2 UNK        -0.5000 
     62 CA          1.0908   -9.3878  -46.9923 C.3       2 UNK         0.1400 
     63 CB          0.6718   -7.9264  -47.2116 C.3       2 UNK        -0.1800 
     64 N           0.0597  -10.0687  -46.2009 N.am      2 UNK        -0.5000 
     65 C           0.1616  -11.3055  -45.6933 C.2       1 UNK         0.5000 
     66 O           1.1685  -12.0042  -45.8172 O.2       1 UNK        -0.5000 
     67 C          -3.1828  -23.3069  -44.2937 C.2       11 UNK         0.5000 
     68 O          -4.0376  -24.1812  -44.1496 O.2       11 UNK        -0.5000 
     69 N          -2.2593  -23.0076  -43.3680 N.am      12 UNK        -0.5000 
     70 CA         -2.1197  -23.6816  -42.0746 C.3       12 UNK         0.1400 
     71 CB         -1.0765  -22.9397  -41.2256 C.3       12 UNK        -0.1800 
     72 C          -1.7613  -25.1758  -42.2049 C.2       12 UNK         0.5000 
     73 O          -2.2592  -25.9906  -41.4276 O.2       12 UNK        -0.5000 
     74 N          -0.9373  -25.5118  -43.2066 N.am      13 UNK        -0.5000 
     75 CA         -0.5638  -26.8813  -43.5694 C.3       13 UNK         0.1400 
     76 CB          0.7214  -26.8340  -44.4110 C.3       13 UNK        -0.1800 
     77 C          -1.6677  -27.6523  -44.3259 C.2       13 UNK         0.5000 
     78 O          -1.5138  -28.8567  -44.5329 O.2       13 UNK        -0.5000 
     79 N          -2.7381  -26.9562  -44.7398 N.am      14 UNK        -0.5000 
     80 CA         -3.8598  -27.4367  -45.5545 C.3       14 UNK         0.1400 
     81 CB         -4.6702  -28.5171  -44.8085 C.3       14 UNK        -0.1800 
     82 C          -3.4355  -27.8657  -46.9768 C.2       14 UNK         0.5000 
     83 O          -4.0317  -28.7734  -47.5582 O.2       14 UNK        -0.5000 
     84 N          -2.4305  -27.1758  -47.5289 N.am      15 UNK        -0.5000 
     85 CA         -1.8733  -27.3667  -48.8669 C.3       15 UNK         0.1400 
     86 CB         -0.3399  -27.2636  -48.7771 C.3       15 UNK        -0.1800 
     87 C          -2.4801  -26.3502  -49.8556 C.2       15 UNK         0.5000 
     88 O          -1.7536  -25.7128  -50.6225 O.2       15 UNK        -0.5000 
     89 N          -3.8110  -26.1854  -49.7864 N.am      16 UNK        -0.5000 
     90 CA         -4.6662  -25.3486  -50.6421 C.3       16 UNK         0.1400 
     91 CB         -4.7460  -25.9598  -52.0569 C.3       16 UNK        -0.1800 
     92 C          -4.2770  -23.8540  -50.6852 C.2       16 UNK         0.5000 
     93 O          -4.5969  -23.1714  -51.6593 O.2       16 UNK        -0.5000 
     94 N          -3.5524  -23.3807  -49.6597 N.am      17 UNK        -0.5000 
     95 CA         -2.9335  -22.0531  -49.5674 C.3       17 UNK         0.1400 
     96 CB         -4.0020  -20.9714  -49.3503 C.3       17 UNK        -0.1800 
     97 C          -1.9934  -21.7453  -50.7526 C.2       17 UNK         0.5000 
     98 O          -2.0003  -20.6294  -51.2774 O.2       17 UNK        -0.5000 
     99 N          -1.2362  -22.7731  -51.1713 N.am      18 UNK        -0.5000 
    100 CA        -0.3288  -22.7922  -52.3219 C.3       18 UNK         0.1400 
    101 CB         0.8640  -21.8379  -52.1006 C.3       18 UNK        -0.1800 
    102 C         -1.0823  -22.5609  -53.6486 C.2       18 UNK         0.5000 
    103 O         -0.6275  -21.7972  -54.5008 O.2       18 UNK        -0.5000 
    104 N         -2.2409  -23.2280  -53.7699 N.am      19 UNK        -0.5000 
    105 CA        -3.2368  -23.1086  -54.8394 C.3       19 UNK         0.1400 
    106 CB        -2.6665  -23.5873  -56.1912 C.3       19 UNK        -0.1800 
    107 C         -3.8516  -21.6945  -54.8927 C.2       19 UNK         0.5000 
    108 O         -3.9166  -21.0837  -55.9613 O.2       19 UNK        -0.5000 
    109 N         -4.2845  -21.2126  -53.7173 N.am      20 UNK        -0.5000 
    110 CA        -4.8793  -19.9003  -53.4481 C.3       20 UNK         0.1400 
    111 CB        -6.2988  -19.8214  -54.0453 C.3       20 UNK        -0.1800 
    112 C         -3.9722  -18.7333  -53.8882 C.2       20 UNK         0.5000 
    113 O         -4.4135  -17.8381  -54.6130 O.2       20 UNK        -0.5000 
    114 N         -2.7097  -18.7618  -53.4376 N.am      21 UNK        -0.5000 
    115 CA        -1.6590  -17.8104  -53.8206 C.3       21 UNK         0.1400 
    116 CB        -0.3098  -18.3040  -53.2796 C.3       21 UNK        -0.1800 
    117 C         -1.9222  -16.3470  -53.4059 C.2       21 UNK         0.5000 
    118 O         -1.3048  -15.4417  -53.9684 O.2       21 UNK        -0.5000 
    119 N         -2.8450  -16.1378  -52.4598 N.am      22 UNK        -0.5000 
    120 CA        -3.3870  -14.8228  -52.0884 C.3       22 UNK         0.1400 
    121 C         -4.4019  -14.2235  -53.1090 C.2       22 UNK         0.5000 
    122 N         -4.8655  -14.9616  -54.1123 N.am      22 UNK        -0.7600 
    123 O         -4.7649  -13.0557  -52.9979 O.2       22 UNK        -0.5000 
    124 C124       -3.9396  -14.8263  -50.6408 C.3       23 UNK        -0.0398 
    125 S125       -5.3236  -15.9880  -50.3522 S.3       23 UNK        -0.2404 
    126 C126       -4.4755  -17.3873  -49.5560 C.3       23 UNK        -0.0205 
    127 H127       -1.2346   -9.8926  -41.3597 H         1 UNK         0.0600 
    128 H128       -2.6886   -8.9860  -41.7865 H         1 UNK         0.0600 
    129 H129       -1.0927   -8.2950  -42.0990 H         1 UNK         0.0600 
    130 H130       -0.7636  -11.5142  -42.8108 H         1 UNK         0.3000 
    131 H131       -1.9459  -11.5860  -45.4679 H         1 UNK         0.0600 
    132 H132       -0.0362  -13.7199  -44.4144 H         1 UNK         0.0800 
    133 H133       -1.6162  -13.5643  -43.7284 H         1 UNK         0.0800 
    134 H134       -3.8512  -14.4749  -44.8222 H         1 UNK         0.0800 
    135 H135       -2.6779  -15.6286  -44.2297 H         1 UNK         0.0800 
    136 H136       -3.2774  -15.5636  -47.8906 H         1 UNK         0.1150 
    137 H137       -5.7252  -19.0780  -47.8309 H         1 UNK         0.1150 
    138 H138       -4.4480  -17.2962  -44.1563 H         1 UNK         0.1150 
    139 H139       -5.6461  -19.3187  -44.0543 H         1 UNK         0.0800 
    140 H140       -6.9526  -19.2353  -45.2098 H         1 UNK         0.0800 
    141 H141       -3.3630  -20.6134  -44.6194 H         1 UNK         0.0800 
    142 H142       -3.3090  -20.5078  -46.3554 H         1 UNK         0.0800 
    143 H143       -3.6738  -23.1069  -46.3655 H         1 UNK         0.0600 
    144 H144       -1.2613  -21.6399  -46.2222 H         1 UNK         0.3000 
    145 H145        0.9633  -24.4018  -46.6991 H         1 UNK         0.0600 
    146 H146        1.6650  -23.1256  -48.6709 H         1 UNK         0.0600 
    147 H147        0.1172  -23.8864  -48.9952 H         1 UNK         0.0600 
    148 H148        0.1945  -22.1620  -48.6317 H         1 UNK         0.0600 
    149 H149        1.4352  -21.5945  -46.5881 H         1 UNK         0.3000 
    150 H150        1.7316  -21.3875  -43.0030 H         1 UNK         0.0600 
    151 H151        3.9311  -22.1043  -43.9569 H         1 UNK         0.0600 
    152 H152        3.8644  -20.3629  -43.7311 H         1 UNK         0.0600 
    153 H153        3.6830  -21.0496  -45.3436 H         1 UNK         0.0600 
    154 H154        1.8843  -19.3518  -44.9551 H         1 UNK         0.3000 
    155 H155       -1.6035  -18.4581  -45.0179 H         1 UNK         0.0600 
    156 H156        0.9969  -17.2413  -43.9331 H         1 UNK         0.0600 
    157 H157       -0.5752  -17.2639  -43.1479 H         1 UNK         0.0600 
    158 H158       -0.3233  -16.2962  -44.5926 H         1 UNK         0.0600 
    159 H159        0.5302  -17.4258  -46.5357 H         1 UNK         0.3000 
    160 H160        0.3826  -19.6761  -49.3260 H         1 UNK         0.0600 
    161 H161        0.3084  -17.2716  -50.2979 H         1 UNK         0.0600 
    162 H162       -0.5644  -16.8089  -48.8398 H         1 UNK         0.0600 
    163 H163       -1.2296  -18.0270  -49.9133 H         1 UNK         0.0600 
    164 H164        2.0494  -17.4471  -48.5546 H         1 UNK         0.3000 
    165 H165        4.6500  -19.3773  -47.0803 H         1 UNK         0.0600 
    166 H166        5.9948  -18.3198  -48.8767 H         1 UNK         0.0600 
    167 H167        5.0486  -19.6462  -49.5327 H         1 UNK         0.0600 
    168 H168        4.5372  -17.9859  -49.8126 H         1 UNK         0.0600 
    169 H169        4.3905  -16.6025  -47.7670 H         1 UNK         0.3000 
    170 H170        2.6905  -15.5433  -44.8374 H         1 UNK         0.0600 
    171 H171        5.0664  -15.7256  -44.0784 H         1 UNK         0.0600 
    172 H172        5.6221  -15.1377  -45.6412 H         1 UNK         0.0600 
    173 H173        4.6782  -14.0886  -44.5823 H         1 UNK         0.0600 
    174 H174        3.7918  -14.0329  -46.9486 H         1 UNK         0.3000 
    175 H175        2.1764  -12.9456  -48.3210 H         1 UNK         0.0600 
    176 H176        2.3493  -15.4716  -50.0901 H         1 UNK         0.0600 
    177 H177        2.5311  -13.8332  -50.6964 H         1 UNK         0.0600 
    178 H178        3.7138  -14.4856  -49.5803 H         1 UNK         0.0600 
    179 H179       -0.0939  -14.6866  -48.5795 H         1 UNK         0.3000 
    180 H180        1.4748  -11.8591  -50.2901 H         1 UNK         0.0600 
    181 H181       -1.2625  -10.7044  -51.0460 H         1 UNK         0.0600 
    182 H182       -0.2354  -11.6700  -52.1006 H         1 UNK         0.0600 
    183 H183        0.3086  -10.0909  -51.5522 H         1 UNK         0.0600 
    184 H184       -0.5270  -10.7400  -48.4026 H         1 UNK         0.3000 
    185 H185        2.0166   -9.3964  -46.4133 H         1 UNK         0.0600 
    186 H186        1.4307   -7.3827  -47.7759 H         1 UNK         0.0600 
    187 H187       -0.2646   -7.8553  -47.7664 H         1 UNK         0.0600 
    188 H188        0.5398   -7.4073  -46.2620 H         1 UNK         0.0600 
    189 H189       -0.7754   -9.5372  -45.9790 H         1 UNK         0.3000 
    190 H190       -1.6037  -22.2548  -43.5617 H         1 UNK         0.3000 
    191 H191       -3.0822  -23.6171  -41.5630 H         1 UNK         0.0600 
    192 H192       -0.9780  -23.3968  -40.2403 H         1 UNK         0.0600 
    193 H193       -1.3601  -21.8978  -41.0751 H         1 UNK         0.0600 
    194 H194       -0.0921  -22.9526  -41.6939 H         1 UNK         0.0600 
    195 H195       -0.5064  -24.7680  -43.7463 H         1 UNK         0.3000 
    196 H196       -0.3495  -27.4345  -42.6528 H         1 UNK         0.0600 
    197 H197        1.0812  -27.8389  -44.6351 H         1 UNK         0.0600 
    198 H198        1.5216  -26.3132  -43.8847 H         1 UNK         0.0600 
    199 H199        0.5575  -26.3270  -45.3616 H         1 UNK         0.0600 
    200 H200       -2.7623  -25.9671  -44.5247 H         1 UNK         0.3000 
    201 H201       -4.5159  -26.5757  -45.6891 H         1 UNK         0.0600 
    202 H202       -4.9534  -28.1784  -43.8119 H         1 UNK         0.0600 
    203 H203       -4.1096  -29.4459  -44.7015 H         1 UNK         0.0600 
    204 H204       -5.5909  -28.7530  -45.3433 H         1 UNK         0.0600 
    205 H205       -2.0491  -26.3861  -47.0085 H         1 UNK         0.3000 
    206 H206       -2.1207  -28.3635  -49.2372 H         1 UNK         0.0600 
    207 H207        0.0625  -28.0039  -48.0855 H         1 UNK         0.0600 
    208 H208        0.1246  -27.4405  -49.7479 H         1 UNK         0.0600 
    209 H209       -0.0213  -26.2800  -48.4324 H         1 UNK         0.0600 
    210 H210       -4.3031  -26.7476  -49.1056 H         1 UNK         0.3000 
    211 H211       -5.6658  -25.3848  -50.2072 H         1 UNK         0.0600 
    212 H212       -3.7865  -25.9118  -52.5727 H         1 UNK         0.0600 
    213 H213       -5.4771  -25.4362  -52.6743 H         1 UNK         0.0600 
    214 H214       -5.0516  -27.0053  -52.0170 H         1 UNK         0.0600 
    215 H215       -3.3280  -24.0273  -48.9174 H         1 UNK         0.3000 
    216 H216       -2.3008  -22.0641  -48.6838 H         1 UNK         0.0600 
    217 H217       -3.5264  -20.0249  -49.0952 H         1 UNK         0.0600 
    218 H218       -4.6666  -21.2349  -48.5293 H         1 UNK         0.0600 
    219 H219       -4.6139  -20.8166  -50.2380 H         1 UNK         0.0600 
    220 H220       -1.3676  -23.6743  -50.7234 H         1 UNK         0.3000 
    221 H221        0.0721  -23.8054  -52.3776 H         1 UNK         0.0600 
    222 H222        0.5477  -20.7995  -52.0178 H         1 UNK         0.0600 
    223 H223        1.4046  -22.0916  -51.1889 H         1 UNK         0.0600 
    224 H224        1.5742  -21.8996  -52.9258 H         1 UNK         0.0600 
    225 H225       -2.5255  -23.7962  -52.9848 H         1 UNK         0.3000 
    226 H226       -4.0516  -23.7835  -54.5731 H         1 UNK         0.0600 
    227 H227       -3.4464  -23.6155  -56.9529 H         1 UNK         0.0600 
    228 H228       -1.8778  -22.9303  -56.5584 H         1 UNK         0.0600 
    229 H229       -2.2552  -24.5934  -56.1110 H         1 UNK         0.0600 
    230 H230       -4.2204  -21.8304  -52.9111 H         1 UNK         0.3000 
    231 H231       -4.9747  -19.8201  -52.3651 H         1 UNK         0.0600 
    232 H232       -6.9249  -20.6351  -53.6793 H         1 UNK         0.0600 
    233 H233       -6.2840  -19.8732  -55.1344 H         1 UNK         0.0600 
    234 H234       -6.7875  -18.8865  -53.7681 H         1 UNK         0.0600 
    235 H235       -2.4296  -19.5150  -52.8134 H         1 UNK         0.3000 
    236 H236       -1.6003  -17.8147  -54.9108 H         1 UNK         0.0600 
    237 H237       -0.0137  -19.2312  -53.7689 H         1 UNK         0.0600 
    238 H238        0.4842  -17.5780  -53.4593 H         1 UNK         0.0600 
    239 H239       -0.3527  -18.4920  -52.2083 H         1 UNK         0.0600 
    240 H240       -3.3231  -16.9382  -52.0771 H         1 UNK         0.3000 
    241 H241       -2.5476  -14.1246  -52.0899 H         1 UNK         0.0600 
    242 H242       -5.5155  -14.5514  -54.7636 H         1 UNK         0.3800 
    243 H243       -4.5968  -15.9345  -54.2255 H         1 UNK         0.3800 
    244 H244       -3.1198  -15.0644  -49.9665 H         1 UNK         0.0800 
    245 H245       -4.2650  -13.8245  -50.3554 H         1 UNK         0.0800 
    246 H246       -3.4464  -17.4567  -49.9044 H         1 UNK         0.0800 
    247 H247       -4.9699  -18.2959  -49.9005 H         1 UNK         0.0800 
@<TRIPOS>BOND
     1    1    2 1    
     2    1  127 1    
     3    1  128 1    
     4    1  129 1    
     5    2    3 2    
     6    2    4 am   BACKBONE|DICT|INTERRES
     7    4    5 1    
     8    4  130 1    
     9    5    6 1    
    10    5   65 1    
    11    5  131 1    
    12    6    7 1    
    13    6  132 1    
    14    6  133 1    
    15    7    8 1    
    16    8    9 1    
    17    8  134 1    
    18    8  135 1    
    19    9   10 ar   
    20    9   14 ar   
    21   10   11 ar   
    22   10  136 1    
    23   11   12 ar   
    24   11  126 1    
    25   12   13 ar   
    26   12  137 1    
    27   13   14 ar   
    28   13   15 1    
    29   14  138 1    
    30   15   16 1    
    31   15  139 1    
    32   15  140 1    
    33   16   17 1    
    34   17   18 1    
    35   17  141 1    
    36   17  142 1    
    37   18   19 1    
    38   18   67 1    
    39   18  143 1    
    40   19   20 am   BACKBONE|DICT|INTERRES
    41   19  144 1    
    42   20   21 2    
    43   20   22 1    
    44   22   23 1    
    45   22   24 1    
    46   22  145 1    
    47   23  146 1    
    48   23  147 1    
    49   23  148 1    
    50   24   25 am   BACKBONE|DICT|INTERRES
    51   24  149 1    
    52   25   26 2    
    53   25   27 1    
    54   27   28 1    
    55   27   29 1    
    56   27  150 1    
    57   28  151 1    
    58   28  152 1    
    59   28  153 1    
    60   29   30 am   BACKBONE|DICT|INTERRES
    61   29  154 1    
    62   30   31 2    
    63   30   32 1    
    64   32   33 1    
    65   32   34 1    
    66   32  155 1    
    67   33  156 1    
    68   33  157 1    
    69   33  158 1    
    70   34   35 am   BACKBONE|DICT|INTERRES
    71   34  159 1    
    72   35   36 2    
    73   35   37 1    
    74   37   38 1    
    75   37   39 1    
    76   37  160 1    
    77   38  161 1    
    78   38  162 1    
    79   38  163 1    
    80   39   40 am   BACKBONE|DICT|INTERRES
    81   39  164 1    
    82   40   41 2    
    83   40   42 1    
    84   42   43 1    
    85   42   44 1    
    86   42  165 1    
    87   43  166 1    
    88   43  167 1    
    89   43  168 1    
    90   44   45 am   BACKBONE|DICT|INTERRES
    91   44  169 1    
    92   45   46 2    
    93   45   47 1    
    94   47   48 1    
    95   47   49 1    
    96   47  170 1    
    97   48  171 1    
    98   48  172 1    
    99   48  173 1    
   100   49   50 am   BACKBONE|DICT|INTERRES
   101   49  174 1    
   102   50   51 2    
   103   50   52 1    
   104   52   53 1    
   105   52   54 1    
   106   52  175 1    
   107   53  176 1    
   108   53  177 1    
   109   53  178 1    
   110   54   55 am   BACKBONE|DICT|INTERRES
   111   54  179 1    
   112   55   56 2    
   113   55   57 1    
   114   57   58 1    
   115   57   59 1    
   116   57  180 1    
   117   58  181 1    
   118   58  182 1    
   119   58  183 1    
   120   59   60 am   BACKBONE|DICT|INTERRES
   121   59  184 1    
   122   60   61 2    
   123   60   62 1    
   124   62   63 1    
   125   62   64 1    
   126   62  185 1    
   127   63  186 1    
   128   63  187 1    
   129   63  188 1    
   130   64   65 am   BACKBONE|DICT|INTERRES
   131   64  189 1    
   132   65   66 2    
   133   67   68 2    
   134   67   69 am   BACKBONE|DICT|INTERRES
   135   69   70 1    
   136   69  190 1    
   137   70   71 1    
   138   70   72 1    
   139   70  191 1    
   140   71  192 1    
   141   71  193 1    
   142   71  194 1    
   143   72   73 2    
   144   72   74 am   BACKBONE|DICT|INTERRES
   145   74   75 1    
   146   74  195 1    
   147   75   76 1    
   148   75   77 1    
   149   75  196 1    
   150   76  197 1    
   151   76  198 1    
   152   76  199 1    
   153   77   78 2    
   154   77   79 am   BACKBONE|DICT|INTERRES
   155   79   80 1    
   156   79  200 1    
   157   80   81 1    
   158   80   82 1    
   159   80  201 1    
   160   81  202 1    
   161   81  203 1    
   162   81  204 1    
   163   82   83 2    
   164   82   84 am   BACKBONE|DICT|INTERRES
   165   84   85 1    
   166   84  205 1    
   167   85   86 1    
   168   85   87 1    
   169   85  206 1    
   170   86  207 1    
   171   86  208 1    
   172   86  209 1    
   173   87   88 2    
   174   87   89 am   BACKBONE|DICT|INTERRES
   175   89   90 1    
   176   89  210 1    
   177   90   91 1    
   178   90   92 1    
   179   90  211 1    
   180   91  212 1    
   181   91  213 1    
   182   91  214 1    
   183   92   93 2    
   184   92   94 am   BACKBONE|DICT|INTERRES
   185   94   95 1    
   186   94  215 1    
   187   95   96 1    
   188   95   97 1    
   189   95  216 1    
   190   96  217 1    
   191   96  218 1    
   192   96  219 1    
   193   97   98 2    
   194   97   99 am   BACKBONE|DICT|INTERRES
   195   99  100 1    
   196   99  220 1    
   197  100  101 1    
   198  100  102 1    
   199  100  221 1    
   200  101  222 1    
   201  101  223 1    
   202  101  224 1    
   203  102  103 2    
   204  102  104 am   BACKBONE|DICT|INTERRES
   205  104  105 1    
   206  104  225 1    
   207  105  106 1    
   208  105  107 1    
   209  105  226 1    
   210  106  227 1    
   211  106  228 1    
   212  106  229 1    
   213  107  108 2    
   214  107  109 am   BACKBONE|DICT|INTERRES
   215  109  110 1    
   216  109  230 1    
   217  110  111 1    
   218  110  112 1    
   219  110  231 1    
   220  111  232 1    
   221  111  233 1    
   222  111  234 1    
   223  112  113 2    
   224  112  114 am   BACKBONE|DICT|INTERRES
   225  114  115 1    
   226  114  235 1    
   227  115  116 1    
   228  115  117 1    
   229  115  236 1    
   230  116  237 1    
   231  116  238 1    
   232  116  239 1    
   233  117  118 2    
   234  117  119 am   BACKBONE|DICT|INTERRES
   235  119  120 1    
   236  119  240 1    
   237  120  121 1    
   238  120  124 1    
   239  120  241 1    
   240  121  122 am   BACKBONE|DICT|INTERRES
   241  121  123 2    
   242  122  242 1    
   243  122  243 1    
   244  124  125 1    
   245  124  244 1    
   246  124  245 1    
   247  125  126 1    
   248  126  246 1    
   249  126  247 1    
@<TRIPOS>SUBSTRUCTURE
     1 UNK         1 GROUP             0       ****    0 ROOT    
