@<TRIPOS>MOLECULE
3R540
247   249    1
SMALL
USER_CHARGES


@<TRIPOS>ATOM
      1 CA          5.1611  -14.7998  -45.4862 C.3       0 UNK        -0.1800 
      2 C           4.0360  -14.3093  -46.3842 C.2       0 UNK         0.5000 
      3 O           3.0118  -13.8429  -45.8866 O.2       0 UNK        -0.5000 
      4 N           4.2215  -14.4081  -47.7075 N.am      1 UNK        -0.5000 
      5 CA          3.2499  -14.0165  -48.7391 C.3       1 UNK         0.1400 
      6 C6          3.7205  -14.4929  -50.1369 C.3       23 UNK        -0.0398 
      7 S7          2.4699  -14.3118  -51.4565 S.3       23 UNK        -0.2404 
      8 C8          2.1899  -16.0356  -51.9891 C.3       23 UNK        -0.0205 
      9 C9          1.3160  -16.8774  -51.0597 C.ar      23 UNK        -0.0193 
     10 C10         0.2721  -16.3187  -50.3143 C.ar      23 UNK        -0.1150 
     11 C11        -0.5685  -17.1283  -49.5464 C.ar      23 UNK        -0.0193 
     12 C12        -0.3598  -18.5087  -49.5236 C.ar      23 UNK        -0.1150 
     13 C13         0.6883  -19.0905  -50.2502 C.ar      23 UNK        -0.0193 
     14 C14         1.5176  -18.2599  -51.0108 C.ar      23 UNK        -0.1150 
     15 C15         0.9858  -20.5939  -50.2452 C.3       23 UNK        -0.0205 
     16 S16        -0.3760  -21.6874  -49.7103 S.3       23 UNK        -0.2404 
     17 C17        -0.3518  -21.4761  -47.8986 C.3       23 UNK        -0.0398 
     18 CA         -0.3550  -22.8106  -47.1220 C.3       11 UNK         0.1400 
     19 N           0.2179  -22.6532  -45.7845 N.am      11 UNK        -0.5000 
     20 C           0.4803  -23.6420  -44.9193 C.2       10 UNK         0.5000 
     21 O           0.1798  -24.8201  -45.1208 O.2       10 UNK        -0.5000 
     22 CA          1.1805  -23.2409  -43.6110 C.3       10 UNK         0.1400 
     23 CB          2.6832  -23.0323  -43.8530 C.3       10 UNK        -0.1800 
     24 N           0.6070  -22.0090  -43.0680 N.am      10 UNK        -0.5000 
     25 C          -0.2407  -21.9555  -42.0315 C.2       9 UNK         0.5000 
     26 O          -0.5605  -22.9359  -41.3580 O.2       9 UNK        -0.5000 
     27 CA         -0.8573  -20.5806  -41.6912 C.3       9 UNK         0.1400 
     28 CB         -0.0018  -19.8566  -40.6405 C.3       9 UNK        -0.1800 
     29 N          -1.0426  -19.6907  -42.8399 N.am      9 UNK        -0.5000 
     30 C          -1.7292  -19.9833  -43.9531 C.2       8 UNK         0.5000 
     31 O          -2.3101  -21.0498  -44.1451 O.2       8 UNK        -0.5000 
     32 CA         -1.7053  -18.9347  -45.0773 C.3       8 UNK         0.1400 
     33 CB         -2.8415  -17.9226  -44.8773 C.3       8 UNK        -0.1800 
     34 N          -0.4235  -18.2345  -45.2226 N.am      8 UNK        -0.5000 
     35 C           0.7826  -18.8106  -45.3551 C.2       7 UNK         0.5000 
     36 O           0.9769  -20.0248  -45.2978 O.2       7 UNK        -0.5000 
     37 CA          1.9819  -17.8732  -45.5471 C.3       7 UNK         0.1400 
     38 CB          2.0049  -17.2968  -46.9699 C.3       7 UNK        -0.1800 
     39 N           1.9766  -16.8023  -44.5532 N.am      7 UNK        -0.5000 
     40 C           2.3209  -16.9827  -43.2693 C.2       6 UNK         0.5000 
     41 O           2.7988  -18.0285  -42.8291 O.2       6 UNK        -0.5000 
     42 CA          2.0562  -15.8138  -42.3030 C.3       6 UNK         0.1400 
     43 CB          3.2558  -14.8574  -42.2542 C.3       6 UNK        -0.1800 
     44 N           0.8481  -15.0614  -42.6408 N.am      6 UNK        -0.5000 
     45 C          -0.3989  -15.5450  -42.5474 C.2       5 UNK         0.5000 
     46 O          -0.6683  -16.6804  -42.1527 O.2       5 UNK        -0.5000 
     47 CA         -1.5308  -14.6076  -43.0085 C.3       5 UNK         0.1400 
     48 CB         -1.9669  -13.6856  -41.8606 C.3       5 UNK        -0.1800 
     49 N          -1.1714  -13.7909  -44.1693 N.am      5 UNK        -0.5000 
     50 C          -0.8274  -14.2584  -45.3757 C.2       4 UNK         0.5000 
     51 O          -0.7472  -15.4557  -45.6453 O.2       4 UNK        -0.5000 
     52 CA         -0.4610  -13.2226  -46.4490 C.3       4 UNK         0.1400 
     53 CB         -1.7049  -12.5126  -47.0131 C.3       4 UNK        -0.1800 
     54 N           0.5647  -12.2778  -46.0019 N.am      4 UNK        -0.5000 
     55 C           0.5035  -11.2997  -45.0879 C.2       3 UNK         0.5000 
     56 O          -0.5136  -11.0068  -44.4584 O.2       3 UNK        -0.5000 
     57 CA          1.8173  -10.5472  -44.8017 C.3       3 UNK         0.1400 
     58 CB          2.4727  -11.0925  -43.5237 C.3       3 UNK        -0.1800 
     59 N           2.7704  -10.6646  -45.9082 N.am      3 UNK        -0.5000 
     60 C           2.7942   -9.8552  -46.9763 C.2       2 UNK         0.5000 
     61 O           2.0799   -8.8592  -47.0970 O.2       2 UNK        -0.5000 
     62 CA          3.7665  -10.2332  -48.1121 C.3       2 UNK         0.1400 
     63 CB          5.1512   -9.6153  -47.8655 C.3       2 UNK        -0.1800 
     64 N           3.9106  -11.6806  -48.2922 N.am      2 UNK        -0.5000 
     65 C           2.9327  -12.5010  -48.7072 C.2       1 UNK         0.5000 
     66 O           1.8045  -12.1106  -49.0066 O.2       1 UNK        -0.5000 
     67 C          -1.7566  -23.4522  -47.1151 C.2       11 UNK         0.5000 
     68 O          -2.0807  -24.1788  -48.0540 O.2       11 UNK        -0.5000 
     69 N          -2.5559  -23.2139  -46.0640 N.am      12 UNK        -0.5000 
     70 CA         -3.8701  -23.8331  -45.8618 C.3       12 UNK         0.1400 
     71 CB         -4.5436  -23.2278  -44.6223 C.3       12 UNK        -0.1800 
     72 C          -3.8179  -25.3688  -45.7481 C.2       12 UNK         0.5000 
     73 O          -4.7720  -26.0328  -46.1524 O.2       12 UNK        -0.5000 
     74 N          -2.7042  -25.9030  -45.2311 N.am      13 UNK        -0.5000 
     75 CA         -2.4343  -27.3367  -45.1782 C.3       13 UNK         0.1400 
     76 CB         -1.6201  -27.6542  -43.9138 C.3       13 UNK        -0.1800 
     77 C          -1.6882  -27.8075  -46.4376 C.2       13 UNK         0.5000 
     78 O          -2.0218  -28.8616  -46.9795 O.2       13 UNK        -0.5000 
     79 N          -0.6821  -27.0329  -46.8683 N.am      14 UNK        -0.5000 
     80 CA          0.2472  -27.4152  -47.9317 C.3       14 UNK         0.1400 
     81 CB          1.4989  -26.5280  -47.8563 C.3       14 UNK        -0.1800 
     82 C          -0.3498  -27.3833  -49.3511 C.2       14 UNK         0.5000 
     83 O           0.0017  -28.2440  -50.1596 O.2       14 UNK        -0.5000 
     84 N          -1.2074  -26.3970  -49.6472 N.am      15 UNK        -0.5000 
     85 CA         -1.7178  -26.1408  -50.9993 C.3       15 UNK         0.1400 
     86 CB         -0.7330  -25.2216  -51.7486 C.3       15 UNK        -0.1800 
     87 C          -3.1482  -25.5722  -51.0049 C.2       15 UNK         0.5000 
     88 O          -3.5672  -25.0037  -52.0154 O.2       15 UNK        -0.5000 
     89 N          -3.8687  -25.7033  -49.8810 N.am      16 UNK        -0.5000 
     90 CA         -5.2208  -25.1833  -49.6414 C.3       16 UNK         0.1400 
     91 CB         -6.2545  -25.9680  -50.4765 C.3       16 UNK        -0.1800 
     92 C          -5.3215  -23.6558  -49.8477 C.2       16 UNK         0.5000 
     93 O          -6.2808  -23.1814  -50.4533 O.2       16 UNK        -0.5000 
     94 N          -4.3026  -22.9197  -49.3783 N.am      17 UNK        -0.5000 
     95 CA         -4.1042  -21.4742  -49.5558 C.3       17 UNK         0.1400 
     96 CB         -5.1889  -20.6606  -48.8221 C.3       17 UNK        -0.1800 
     97 C          -3.9431  -21.0963  -51.0433 C.2       17 UNK         0.5000 
     98 O          -4.5625  -20.1439  -51.5238 O.2       17 UNK        -0.5000 
     99 N          -3.1316  -21.8993  -51.7474 N.am      18 UNK        -0.5000 
    100 CA        -2.8506  -21.8557  -53.1844 C.3       18 UNK         0.1400 
    101 CB        -2.0137  -20.6094  -53.5330 C.3       18 UNK        -0.1800 
    102 C         -4.1428  -21.9829  -54.0153 C.2       18 UNK         0.5000 
    103 O         -4.4175  -21.1401  -54.8706 O.2       18 UNK        -0.5000 
    104 N         -4.9265  -23.0239  -53.6962 N.am      19 UNK        -0.5000 
    105 CA        -6.2711  -23.3110  -54.2069 C.3       19 UNK         0.1400 
    106 CB        -6.2212  -23.6862  -55.7028 C.3       19 UNK        -0.1800 
    107 C         -7.2758  -22.1798  -53.8921 C.2       19 UNK         0.5000 
    108 O         -8.0218  -21.7466  -54.7725 O.2       19 UNK        -0.5000 
    109 N         -7.2659  -21.7358  -52.6267 N.am      20 UNK        -0.5000 
    110 CA        -8.0991  -20.6947  -52.0210 C.3       20 UNK         0.1400 
    111 CB        -9.5503  -21.1966  -51.8731 C.3       20 UNK        -0.1800 
    112 C         -7.9953  -19.3374  -52.7447 C.2       20 UNK         0.5000 
    113 O         -9.0207  -18.7365  -53.0753 O.2       20 UNK        -0.5000 
    114 N         -6.7594  -18.8872  -52.9966 N.am      21 UNK        -0.5000 
    115 CA        -6.4865  -17.6784  -53.7760 C.3       21 UNK         0.1400 
    116 CB        -6.3929  -18.0435  -55.2682 C.3       21 UNK        -0.1800 
    117 C         -5.2370  -16.9025  -53.3299 C.2       21 UNK         0.5000 
    118 O         -5.1665  -15.7068  -53.6187 O.2       21 UNK        -0.5000 
    119 N         -4.2726  -17.5570  -52.6637 N.am      22 UNK        -0.5000 
    120 CA        -2.9693  -16.9770  -52.2752 C.3       22 UNK         0.1400 
    121 C         -2.0993  -16.4801  -53.4766 C.2       22 UNK         0.5000 
    122 N         -2.2533  -17.0434  -54.6697 N.am      22 UNK        -0.7600 
    123 O         -1.2637  -15.5919  -53.3377 O.2       22 UNK        -0.5000 
    124 C124       -3.1053  -15.9382  -51.1223 C.3       23 UNK        -0.0398 
    125 S125       -3.3350  -16.7679  -49.5121 S.3       23 UNK        -0.2404 
    126 C126       -1.7031  -16.5135  -48.7383 C.3       23 UNK        -0.0205 
    127 H127        4.8345  -15.6739  -44.9233 H         1 UNK         0.0600 
    128 H128        5.4431  -14.0206  -44.7783 H         1 UNK         0.0600 
    129 H129        6.0464  -15.0752  -46.0594 H         1 UNK         0.0600 
    130 H130        5.0889  -14.7974  -48.0490 H         1 UNK         0.3000 
    131 H131        2.3187  -14.5388  -48.5077 H         1 UNK         0.0600 
    132 H132        4.6182  -13.9525  -50.4418 H         1 UNK         0.0800 
    133 H133        4.0106  -15.5430  -50.0815 H         1 UNK         0.0800 
    134 H134        1.6999  -16.0091  -52.9633 H         1 UNK         0.0800 
    135 H135        3.1562  -16.5169  -52.1477 H         1 UNK         0.0800 
    136 H136        0.0933  -15.2539  -50.3509 H         1 UNK         0.1150 
    137 H137       -1.0316  -19.1108  -48.9364 H         1 UNK         0.1150 
    138 H138        2.3197  -18.6989  -51.5877 H         1 UNK         0.1150 
    139 H139        1.2558  -20.8974  -51.2578 H         1 UNK         0.0800 
    140 H140        1.8659  -20.7813  -49.6289 H         1 UNK         0.0800 
    141 H141       -1.1933  -20.8555  -47.5966 H         1 UNK         0.0800 
    142 H142        0.5456  -20.9092  -47.6534 H         1 UNK         0.0800 
    143 H143        0.3057  -23.4995  -47.6481 H         1 UNK         0.0600 
    144 H144        0.5063  -21.7077  -45.5400 H         1 UNK         0.3000 
    145 H145        1.0641  -24.0660  -42.9055 H         1 UNK         0.0600 
    146 H146        3.2020  -22.8068  -42.9212 H         1 UNK         0.0600 
    147 H147        3.1403  -23.9302  -44.2710 H         1 UNK         0.0600 
    148 H148        2.8724  -22.2119  -44.5468 H         1 UNK         0.0600 
    149 H149        0.7892  -21.1574  -43.5870 H         1 UNK         0.3000 
    150 H150       -1.8442  -20.7650  -41.2627 H         1 UNK         0.0600 
    151 H151        0.1455  -20.4787  -39.7568 H         1 UNK         0.0600 
    152 H152       -0.4789  -18.9331  -40.3117 H         1 UNK         0.0600 
    153 H153        0.9836  -19.6019  -41.0334 H         1 UNK         0.0600 
    154 H154       -0.6321  -18.7667  -42.7651 H         1 UNK         0.3000 
    155 H155       -1.8936  -19.4544  -46.0156 H         1 UNK         0.0600 
    156 H156       -2.7380  -17.3911  -43.9326 H         1 UNK         0.0600 
    157 H157       -2.8729  -17.1858  -45.6791 H         1 UNK         0.0600 
    158 H158       -3.8097  -18.4246  -44.8629 H         1 UNK         0.0600 
    159 H159       -0.4810  -17.2202  -45.2926 H         1 UNK         0.3000 
    160 H160        2.8884  -18.4691  -45.4198 H         1 UNK         0.0600 
    161 H161        1.2196  -16.5581  -47.1302 H         1 UNK         0.0600 
    162 H162        1.8730  -18.0849  -47.7116 H         1 UNK         0.0600 
    163 H163        2.9623  -16.8284  -47.1845 H         1 UNK         0.0600 
    164 H164        1.5748  -15.9184  -44.8328 H         1 UNK         0.3000 
    165 H165        1.9203  -16.2374  -41.3055 H         1 UNK         0.0600 
    166 H166        3.1103  -14.0788  -41.5052 H         1 UNK         0.0600 
    167 H167        4.1716  -15.3906  -41.9958 H         1 UNK         0.0600 
    168 H168        3.4192  -14.3716  -43.2147 H         1 UNK         0.0600 
    169 H169        0.9750  -14.1244  -42.9922 H         1 UNK         0.3000 
    170 H170       -2.3848  -15.2242  -43.2902 H         1 UNK         0.0600 
    171 H171       -1.1648  -13.0106  -41.5591 H         1 UNK         0.0600 
    172 H172       -2.8253  -13.0781  -42.1479 H         1 UNK         0.0600 
    173 H173       -2.2581  -14.2644  -40.9831 H         1 UNK         0.0600 
    174 H174       -1.1719  -12.7825  -44.0459 H         1 UNK         0.3000 
    175 H175       -0.0042  -13.7756  -47.2715 H         1 UNK         0.0600 
    176 H176       -1.4325  -11.8258  -47.8146 H         1 UNK         0.0600 
    177 H177       -2.2376  -11.9444  -46.2504 H         1 UNK         0.0600 
    178 H178       -2.4078  -13.2355  -47.4288 H         1 UNK         0.0600 
    179 H179        1.4876  -12.4822  -46.3645 H         1 UNK         0.3000 
    180 H180        1.5708   -9.4962  -44.6369 H         1 UNK         0.0600 
    181 H181        2.7515  -12.1402  -43.6324 H         1 UNK         0.0600 
    182 H182        1.7953  -11.0183  -42.6719 H         1 UNK         0.0600 
    183 H183        3.3727  -10.5311  -43.2726 H         1 UNK         0.0600 
    184 H184        3.3755  -11.4739  -45.8976 H         1 UNK         0.3000 
    185 H185        3.3679   -9.8173  -49.0399 H         1 UNK         0.0600 
    186 H186        5.0803   -8.5330  -47.7493 H         1 UNK         0.0600 
    187 H187        5.6153  -10.0127  -46.9619 H         1 UNK         0.0600 
    188 H188        5.8237   -9.8074  -48.7017 H         1 UNK         0.0600 
    189 H189        4.8060  -12.0818  -48.0545 H         1 UNK         0.3000 
    190 H190       -2.2499  -22.5711  -45.3378 H         1 UNK         0.3000 
    191 H191       -4.4910  -23.5926  -46.7252 H         1 UNK         0.0600 
    192 H192       -4.7135  -22.1587  -44.7507 H         1 UNK         0.0600 
    193 H193       -5.5151  -23.6881  -44.4377 H         1 UNK         0.0600 
    194 H194       -3.9366  -23.3672  -43.7268 H         1 UNK         0.0600 
    195 H195       -1.9465  -25.2892  -44.9596 H         1 UNK         0.3000 
    196 H196       -3.3735  -27.8906  -45.1153 H         1 UNK         0.0600 
    197 H197       -1.4152  -28.7230  -43.8408 H         1 UNK         0.0600 
    198 H198       -2.1638  -27.3655  -43.0142 H         1 UNK         0.0600 
    199 H199       -0.6610  -27.1352  -43.9051 H         1 UNK         0.0600 
    200 H200       -0.4467  -26.2001  -46.3371 H         1 UNK         0.3000 
    201 H201        0.5637  -28.4424  -47.7373 H         1 UNK         0.0600 
    202 H202        1.9534  -26.5655  -46.8659 H         1 UNK         0.0600 
    203 H203        1.2700  -25.4879  -48.0819 H         1 UNK         0.0600 
    204 H204        2.2524  -26.8574  -48.5727 H         1 UNK         0.0600 
    205 H205       -1.4417  -25.7031  -48.9411 H         1 UNK         0.3000 
    206 H206       -1.7855  -27.0836  -51.5455 H         1 UNK         0.0600 
    207 H207        0.2638  -25.6603  -51.7916 H         1 UNK         0.0600 
    208 H208       -1.0508  -25.0513  -52.7778 H         1 UNK         0.0600 
    209 H209       -0.6486  -24.2495  -51.2633 H         1 UNK         0.0600 
    210 H210       -3.4343  -26.1702  -49.0979 H         1 UNK         0.3000 
    211 H211       -5.4460  -25.3621  -48.5909 H         1 UNK         0.0600 
    212 H212       -6.1254  -25.8000  -51.5461 H         1 UNK         0.0600 
    213 H213       -7.2719  -25.6706  -50.2197 H         1 UNK         0.0600 
    214 H214       -6.1756  -27.0396  -50.2939 H         1 UNK         0.0600 
    215 H215       -3.5356  -23.4182  -48.9333 H         1 UNK         0.3000 
    216 H216       -3.1572  -21.2305  -49.0779 H         1 UNK         0.0600 
    217 H217       -4.9838  -19.5912  -48.8878 H         1 UNK         0.0600 
    218 H218       -5.2228  -20.9195  -47.7638 H         1 UNK         0.0600 
    219 H219       -6.1808  -20.8282  -49.2391 H         1 UNK         0.0600 
    220 H220       -2.7092  -22.6730  -51.2557 H         1 UNK         0.3000 
    221 H221       -2.2456  -22.7348  -53.4105 H         1 UNK         0.0600 
    222 H222       -2.5830  -19.6935  -53.3922 H         1 UNK         0.0600 
    223 H223       -1.1192  -20.5465  -52.9130 H         1 UNK         0.0600 
    224 H224       -1.6901  -20.6356  -54.5739 H         1 UNK         0.0600 
    225 H225       -4.5786  -23.6691  -52.9909 H         1 UNK         0.3000 
    226 H226       -6.6211  -24.1882  -53.6608 H         1 UNK         0.0600 
    227 H227       -5.5187  -24.5004  -55.8811 H         1 UNK         0.0600 
    228 H228       -7.1987  -24.0189  -56.0535 H         1 UNK         0.0600 
    229 H229       -5.9217  -22.8421  -56.3245 H         1 UNK         0.0600 
    230 H230       -6.6507  -22.2065  -51.9665 H         1 UNK         0.3000 
    231 H231       -7.7050  -20.5334  -51.0177 H         1 UNK         0.0600 
    232 H232      -10.0216  -21.3636  -52.8421 H         1 UNK         0.0600 
    233 H233      -10.1612  -20.4743  -51.3304 H         1 UNK         0.0600 
    234 H234       -9.5862  -22.1333  -51.3167 H         1 UNK         0.0600 
    235 H235       -5.9656  -19.4250  -52.6615 H         1 UNK         0.3000 
    236 H236       -7.3168  -16.9797  -53.6526 H         1 UNK         0.0600 
    237 H237       -7.3203  -18.4921  -55.6249 H         1 UNK         0.0600 
    238 H238       -6.2037  -17.1601  -55.8793 H         1 UNK         0.0600 
    239 H239       -5.5865  -18.7527  -55.4555 H         1 UNK         0.0600 
    240 H240       -4.4065  -18.5277  -52.3952 H         1 UNK         0.3000 
    241 H241       -2.3857  -17.8119  -51.8856 H         1 UNK         0.0600 
    242 H242       -2.9324  -17.7729  -54.8125 H         1 UNK         0.3800 
    243 H243       -1.6891  -16.7236  -55.4409 H         1 UNK         0.3800 
    244 H244       -2.2348  -15.2873  -51.0496 H         1 UNK         0.0800 
    245 H245       -3.9458  -15.2660  -51.2945 H         1 UNK         0.0800 
    246 H246       -1.7114  -16.9581  -47.7433 H         1 UNK         0.0800 
    247 H247       -1.5361  -15.4459  -48.5907 H         1 UNK         0.0800 
@<TRIPOS>BOND
     1    1    2 1    
     2    1  127 1    
     3    1  128 1    
     4    1  129 1    
     5    2    3 2    
     6    2    4 am   BACKBONE|DICT|INTERRES
     7    4    5 1    
     8    4  130 1    
     9    5    6 1    
    10    5   65 1    
    11    5  131 1    
    12    6    7 1    
    13    6  132 1    
    14    6  133 1    
    15    7    8 1    
    16    8    9 1    
    17    8  134 1    
    18    8  135 1    
    19    9   10 ar   
    20    9   14 ar   
    21   10   11 ar   
    22   10  136 1    
    23   11   12 ar   
    24   11  126 1    
    25   12   13 ar   
    26   12  137 1    
    27   13   14 ar   
    28   13   15 1    
    29   14  138 1    
    30   15   16 1    
    31   15  139 1    
    32   15  140 1    
    33   16   17 1    
    34   17   18 1    
    35   17  141 1    
    36   17  142 1    
    37   18   19 1    
    38   18   67 1    
    39   18  143 1    
    40   19   20 am   BACKBONE|DICT|INTERRES
    41   19  144 1    
    42   20   21 2    
    43   20   22 1    
    44   22   23 1    
    45   22   24 1    
    46   22  145 1    
    47   23  146 1    
    48   23  147 1    
    49   23  148 1    
    50   24   25 am   BACKBONE|DICT|INTERRES
    51   24  149 1    
    52   25   26 2    
    53   25   27 1    
    54   27   28 1    
    55   27   29 1    
    56   27  150 1    
    57   28  151 1    
    58   28  152 1    
    59   28  153 1    
    60   29   30 am   BACKBONE|DICT|INTERRES
    61   29  154 1    
    62   30   31 2    
    63   30   32 1    
    64   32   33 1    
    65   32   34 1    
    66   32  155 1    
    67   33  156 1    
    68   33  157 1    
    69   33  158 1    
    70   34   35 am   BACKBONE|DICT|INTERRES
    71   34  159 1    
    72   35   36 2    
    73   35   37 1    
    74   37   38 1    
    75   37   39 1    
    76   37  160 1    
    77   38  161 1    
    78   38  162 1    
    79   38  163 1    
    80   39   40 am   BACKBONE|DICT|INTERRES
    81   39  164 1    
    82   40   41 2    
    83   40   42 1    
    84   42   43 1    
    85   42   44 1    
    86   42  165 1    
    87   43  166 1    
    88   43  167 1    
    89   43  168 1    
    90   44   45 am   BACKBONE|DICT|INTERRES
    91   44  169 1    
    92   45   46 2    
    93   45   47 1    
    94   47   48 1    
    95   47   49 1    
    96   47  170 1    
    97   48  171 1    
    98   48  172 1    
    99   48  173 1    
   100   49   50 am   BACKBONE|DICT|INTERRES
   101   49  174 1    
   102   50   51 2    
   103   50   52 1    
   104   52   53 1    
   105   52   54 1    
   106   52  175 1    
   107   53  176 1    
   108   53  177 1    
   109   53  178 1    
   110   54   55 am   BACKBONE|DICT|INTERRES
   111   54  179 1    
   112   55   56 2    
   113   55   57 1    
   114   57   58 1    
   115   57   59 1    
   116   57  180 1    
   117   58  181 1    
   118   58  182 1    
   119   58  183 1    
   120   59   60 am   BACKBONE|DICT|INTERRES
   121   59  184 1    
   122   60   61 2    
   123   60   62 1    
   124   62   63 1    
   125   62   64 1    
   126   62  185 1    
   127   63  186 1    
   128   63  187 1    
   129   63  188 1    
   130   64   65 am   BACKBONE|DICT|INTERRES
   131   64  189 1    
   132   65   66 2    
   133   67   68 2    
   134   67   69 am   BACKBONE|DICT|INTERRES
   135   69   70 1    
   136   69  190 1    
   137   70   71 1    
   138   70   72 1    
   139   70  191 1    
   140   71  192 1    
   141   71  193 1    
   142   71  194 1    
   143   72   73 2    
   144   72   74 am   BACKBONE|DICT|INTERRES
   145   74   75 1    
   146   74  195 1    
   147   75   76 1    
   148   75   77 1    
   149   75  196 1    
   150   76  197 1    
   151   76  198 1    
   152   76  199 1    
   153   77   78 2    
   154   77   79 am   BACKBONE|DICT|INTERRES
   155   79   80 1    
   156   79  200 1    
   157   80   81 1    
   158   80   82 1    
   159   80  201 1    
   160   81  202 1    
   161   81  203 1    
   162   81  204 1    
   163   82   83 2    
   164   82   84 am   BACKBONE|DICT|INTERRES
   165   84   85 1    
   166   84  205 1    
   167   85   86 1    
   168   85   87 1    
   169   85  206 1    
   170   86  207 1    
   171   86  208 1    
   172   86  209 1    
   173   87   88 2    
   174   87   89 am   BACKBONE|DICT|INTERRES
   175   89   90 1    
   176   89  210 1    
   177   90   91 1    
   178   90   92 1    
   179   90  211 1    
   180   91  212 1    
   181   91  213 1    
   182   91  214 1    
   183   92   93 2    
   184   92   94 am   BACKBONE|DICT|INTERRES
   185   94   95 1    
   186   94  215 1    
   187   95   96 1    
   188   95   97 1    
   189   95  216 1    
   190   96  217 1    
   191   96  218 1    
   192   96  219 1    
   193   97   98 2    
   194   97   99 am   BACKBONE|DICT|INTERRES
   195   99  100 1    
   196   99  220 1    
   197  100  101 1    
   198  100  102 1    
   199  100  221 1    
   200  101  222 1    
   201  101  223 1    
   202  101  224 1    
   203  102  103 2    
   204  102  104 am   BACKBONE|DICT|INTERRES
   205  104  105 1    
   206  104  225 1    
   207  105  106 1    
   208  105  107 1    
   209  105  226 1    
   210  106  227 1    
   211  106  228 1    
   212  106  229 1    
   213  107  108 2    
   214  107  109 am   BACKBONE|DICT|INTERRES
   215  109  110 1    
   216  109  230 1    
   217  110  111 1    
   218  110  112 1    
   219  110  231 1    
   220  111  232 1    
   221  111  233 1    
   222  111  234 1    
   223  112  113 2    
   224  112  114 am   BACKBONE|DICT|INTERRES
   225  114  115 1    
   226  114  235 1    
   227  115  116 1    
   228  115  117 1    
   229  115  236 1    
   230  116  237 1    
   231  116  238 1    
   232  116  239 1    
   233  117  118 2    
   234  117  119 am   BACKBONE|DICT|INTERRES
   235  119  120 1    
   236  119  240 1    
   237  120  121 1    
   238  120  124 1    
   239  120  241 1    
   240  121  122 am   BACKBONE|DICT|INTERRES
   241  121  123 2    
   242  122  242 1    
   243  122  243 1    
   244  124  125 1    
   245  124  244 1    
   246  124  245 1    
   247  125  126 1    
   248  126  246 1    
   249  126  247 1    
@<TRIPOS>SUBSTRUCTURE
     1 UNK         1 GROUP             0       ****    0 ROOT    
