@<TRIPOS>MOLECULE
3R540
247   249    1
SMALL
USER_CHARGES


@<TRIPOS>ATOM
      1 CA          0.6151  -14.6128  -51.7571 C.3       0 UNK        -0.1800 
      2 C           1.0562  -14.6380  -50.3005 C.2       0 UNK         0.5000 
      3 O           1.8001  -15.5341  -49.9010 O.2       0 UNK        -0.5000 
      4 N           0.5867  -13.6715  -49.5029 N.am      1 UNK        -0.5000 
      5 CA          0.8870  -13.5495  -48.0734 C.3       1 UNK         0.1400 
      6 C6         -0.1238  -12.6411  -47.3278 C.3       23 UNK        -0.0398 
      7 S7         -1.8762  -13.0464  -47.6484 S.3       23 UNK        -0.2404 
      8 C8         -2.0644  -14.6512  -46.8115 C.3       23 UNK        -0.0205 
      9 C9         -2.4574  -15.7380  -47.7987 C.ar      23 UNK        -0.0193 
     10 C10        -3.8057  -15.9601  -48.0946 C.ar      23 UNK        -0.1150 
     11 C11        -4.1777  -16.9381  -49.0213 C.ar      23 UNK        -0.0193 
     12 C12        -3.1853  -17.6807  -49.6630 C.ar      23 UNK        -0.1150 
     13 C13        -1.8352  -17.4880  -49.3627 C.ar      23 UNK        -0.0193 
     14 C14        -1.4786  -16.5195  -48.4209 C.ar      23 UNK        -0.1150 
     15 C15        -0.7625  -18.3124  -50.0658 C.3       23 UNK        -0.0205 
     16 S16        -1.0589  -20.1093  -49.9524 S.3       23 UNK        -0.2404 
     17 C17        -1.0713  -20.3451  -48.1477 C.3       23 UNK        -0.0398 
     18 CA         -0.6683  -21.7764  -47.7219 C.3       11 UNK         0.1400 
     19 N          -0.1824  -21.7960  -46.3413 N.am      11 UNK        -0.5000 
     20 C           0.3345  -22.8557  -45.7059 C.2       10 UNK         0.5000 
     21 O           0.5047  -23.9554  -46.2282 O.2       10 UNK        -0.5000 
     22 CA          0.6590  -22.6669  -44.2158 C.3       10 UNK         0.1400 
     23 CB          2.0139  -21.9675  -44.0285 C.3       10 UNK        -0.1800 
     24 N          -0.3897  -21.9087  -43.5342 N.am      10 UNK        -0.5000 
     25 C          -1.6157  -22.3856  -43.2773 C.2       9 UNK         0.5000 
     26 O          -1.9707  -23.5358  -43.5380 O.2       9 UNK        -0.5000 
     27 CA         -2.6221  -21.3966  -42.6600 C.3       9 UNK         0.1400 
     28 CB         -2.4322  -21.3072  -41.1385 C.3       9 UNK        -0.1800 
     29 N          -2.5286  -20.0546  -43.2404 N.am      9 UNK        -0.5000 
     30 C          -2.8529  -19.7562  -44.5061 C.2       8 UNK         0.5000 
     31 O          -3.2675  -20.5821  -45.3170 O.2       8 UNK        -0.5000 
     32 CA         -2.6406  -18.3002  -44.9571 C.3       8 UNK         0.1400 
     33 CB         -3.8489  -17.4395  -44.5603 C.3       8 UNK        -0.1800 
     34 N          -1.4150  -17.6818  -44.4438 N.am      8 UNK        -0.5000 
     35 C          -0.1710  -18.1501  -44.5979 C.2       7 UNK         0.5000 
     36 O           0.0787  -19.2351  -45.1213 O.2       7 UNK        -0.5000 
     37 CA          1.0067  -17.2928  -44.0886 C.3       7 UNK         0.1400 
     38 CB          1.6488  -16.5219  -45.2544 C.3       7 UNK        -0.1800 
     39 N           0.7427  -16.3848  -42.9611 N.am      7 UNK        -0.5000 
     40 C          -0.0921  -15.3369  -42.8810 C.2       6 UNK         0.5000 
     41 O          -0.9070  -15.0311  -43.7491 O.2       6 UNK        -0.5000 
     42 CA          0.0121  -14.4734  -41.6113 C.3       6 UNK         0.1400 
     43 CB         -0.8833  -15.0430  -40.5005 C.3       6 UNK        -0.1800 
     44 N           1.3838  -14.3372  -41.1113 N.am      6 UNK        -0.5000 
     45 C           2.3773  -13.7285  -41.7724 C.2       5 UNK         0.5000 
     46 O           2.2571  -13.2308  -42.8974 O.2       5 UNK        -0.5000 
     47 CA          3.7367  -13.6780  -41.0599 C.3       5 UNK         0.1400 
     48 CB          4.4948  -15.0068  -41.2140 C.3       5 UNK        -0.1800 
     49 N           4.5130  -12.6041  -41.6618 N.am      5 UNK        -0.5000 
     50 C           5.3138  -11.7414  -41.0276 C.2       4 UNK         0.5000 
     51 O           5.6018  -11.8248  -39.8331 O.2       4 UNK        -0.5000 
     52 CA          5.8803  -10.5785  -41.8708 C.3       4 UNK         0.1400 
     53 CB          7.3511  -10.8408  -42.2291 C.3       4 UNK        -0.1800 
     54 N           5.1279  -10.3598  -43.1088 N.am      4 UNK        -0.5000 
     55 C           3.8991   -9.8356  -43.1930 C.2       3 UNK         0.5000 
     56 O           3.3041   -9.3432  -42.2341 O.2       3 UNK        -0.5000 
     57 CA          3.1896   -9.9278  -44.5591 C.3       3 UNK         0.1400 
     58 CB          3.5694   -8.7484  -45.4742 C.3       3 UNK        -0.1800 
     59 N           3.3594  -11.2239  -45.2364 N.am      3 UNK        -0.5000 
     60 C           4.4614  -11.7568  -45.7871 C.2       2 UNK         0.5000 
     61 O           5.5601  -11.2011  -45.7975 O.2       2 UNK        -0.5000 
     62 CA          4.3324  -13.1694  -46.3878 C.3       2 UNK         0.1400 
     63 CB          4.8667  -14.2154  -45.3969 C.3       2 UNK        -0.1800 
     64 N           2.9607  -13.5242  -46.7628 N.am      2 UNK        -0.5000 
     65 C           2.3300  -13.0531  -47.8471 C.2       1 UNK         0.5000 
     66 O           2.8320  -12.2444  -48.6320 O.2       1 UNK        -0.5000 
     67 C          -1.8158  -22.7860  -47.9407 C.2       11 UNK         0.5000 
     68 O          -1.7817  -23.5513  -48.9047 O.2       11 UNK        -0.5000 
     69 N          -2.7810  -22.8118  -47.0099 N.am      12 UNK        -0.5000 
     70 CA         -3.8992  -23.7525  -46.9966 C.3       12 UNK         0.1400 
     71 CB         -4.8791  -23.3866  -45.8733 C.3       12 UNK        -0.1800 
     72 C          -3.4593  -25.2220  -46.8839 C.2       12 UNK         0.5000 
     73 O          -4.0425  -26.0759  -47.5522 O.2       12 UNK        -0.5000 
     74 N          -2.4308  -25.4877  -46.0698 N.am      13 UNK        -0.5000 
     75 CA         -1.8314  -26.8118  -45.9244 C.3       13 UNK         0.1400 
     76 CB         -0.9597  -26.8430  -44.6591 C.3       13 UNK        -0.1800 
     77 C          -1.0208  -27.2258  -47.1669 C.2       13 UNK         0.5000 
     78 O          -1.1845  -28.3448  -47.6544 O.2       13 UNK        -0.5000 
     79 N          -0.1596  -26.3210  -47.6504 N.am      14 UNK        -0.5000 
     80 CA          0.7795  -26.5677  -48.7438 C.3       14 UNK         0.1400 
     81 CB          1.8415  -25.4573  -48.7607 C.3       14 UNK        -0.1800 
     82 C           0.1131  -26.6851  -50.1245 C.2       14 UNK         0.5000 
     83 O           0.5075  -27.5488  -50.9091 O.2       14 UNK        -0.5000 
     84 N          -0.8637  -25.8134  -50.4037 N.am      15 UNK        -0.5000 
     85 CA         -1.4986  -25.6664  -51.7144 C.3       15 UNK         0.1400 
     86 CB         -1.2552  -24.2363  -52.2342 C.3       15 UNK        -0.1800 
     87 C          -2.9858  -26.0660  -51.6943 C.2       15 UNK         0.5000 
     88 O          -3.7591  -25.5497  -52.5002 O.2       15 UNK        -0.5000 
     89 N          -3.3536  -26.9935  -50.7952 N.am      16 UNK        -0.5000 
     90 CA         -4.6399  -27.7022  -50.7147 C.3       16 UNK         0.1400 
     91 CB         -4.7397  -28.7279  -51.8623 C.3       16 UNK        -0.1800 
     92 C          -5.8568  -26.7552  -50.6684 C.2       16 UNK         0.5000 
     93 O          -6.6020  -26.6460  -51.6437 O.2       16 UNK        -0.5000 
     94 N          -5.9909  -26.0508  -49.5376 N.am      17 UNK        -0.5000 
     95 CA         -6.9384  -24.9594  -49.2762 C.3       17 UNK         0.1400 
     96 CB         -8.4053  -25.4162  -49.4235 C.3       17 UNK        -0.1800 
     97 C          -6.6097  -23.6844  -50.0830 C.2       17 UNK         0.5000 
     98 O          -7.4960  -22.8669  -50.3332 O.2       17 UNK        -0.5000 
     99 N          -5.3246  -23.5365  -50.4398 N.am      18 UNK        -0.5000 
    100 CA        -4.7115  -22.4190  -51.1584 C.3       18 UNK         0.1400 
    101 CB        -4.7382  -21.1400  -50.3052 C.3       18 UNK        -0.1800 
    102 C         -5.2841  -22.2196  -52.5751 C.2       18 UNK         0.5000 
    103 O         -5.5041  -21.0834  -53.0041 O.2       18 UNK        -0.5000 
    104 N         -5.5024  -23.3398  -53.2779 N.am      19 UNK        -0.5000 
    105 CA        -5.9872  -23.4004  -54.6540 C.3       19 UNK         0.1400 
    106 CB        -6.2120  -24.8694  -55.0432 C.3       19 UNK        -0.1800 
    107 C         -4.9938  -22.7160  -55.6074 C.2       19 UNK         0.5000 
    108 O         -3.8273  -23.1118  -55.6554 O.2       19 UNK        -0.5000 
    109 N         -5.4573  -21.6563  -56.2834 N.am      20 UNK        -0.5000 
    110 CA        -4.7205  -20.7169  -57.1432 C.3       20 UNK         0.1400 
    111 CB        -4.0656  -21.4345  -58.3389 C.3       20 UNK        -0.1800 
    112 C         -3.6993  -19.8277  -56.3999 C.2       20 UNK         0.5000 
    113 O         -3.5423  -18.6631  -56.7676 O.2       20 UNK        -0.5000 
    114 N         -3.0484  -20.3629  -55.3591 N.am      21 UNK        -0.5000 
    115 CA        -2.0357  -19.7065  -54.5294 C.3       21 UNK         0.1400 
    116 CB        -1.4919  -20.7233  -53.5160 C.3       21 UNK        -0.1800 
    117 C         -2.5290  -18.4329  -53.8145 C.2       21 UNK         0.5000 
    118 O         -1.7409  -17.5052  -53.6296 O.2       21 UNK        -0.5000 
    119 N         -3.8211  -18.3939  -53.4621 N.am      22 UNK        -0.5000 
    120 CA        -4.5068  -17.1969  -52.9458 C.3       22 UNK         0.1400 
    121 C         -4.8143  -16.1106  -54.0265 C.2       22 UNK         0.5000 
    122 N         -4.5972  -16.3526  -55.3145 N.am      22 UNK        -0.7600 
    123 O         -5.2453  -15.0102  -53.6950 O.2       22 UNK        -0.5000 
    124 C124       -5.7685  -17.5951  -52.1327 C.3       23 UNK        -0.0398 
    125 S125       -6.2204  -16.3910  -50.8314 S.3       23 UNK        -0.2404 
    126 C126       -5.6476  -17.2091  -49.3083 C.3       23 UNK        -0.0205 
    127 H127        1.4842  -14.5566  -52.4125 H         1 UNK         0.0600 
    128 H128       -0.0290  -13.7595  -51.9710 H         1 UNK         0.0600 
    129 H129        0.0633  -15.5223  -51.9967 H         1 UNK         0.0600 
    130 H130       -0.0140  -12.9554  -49.8846 H         1 UNK         0.3000 
    131 H131        0.8180  -14.5483  -47.6433 H         1 UNK         0.0600 
    132 H132        0.0449  -12.6839  -46.2500 H         1 UNK         0.0800 
    133 H133        0.0219  -11.5978  -47.6147 H         1 UNK         0.0800 
    134 H134       -1.1433  -14.9301  -46.3033 H         1 UNK         0.0800 
    135 H135       -2.8214  -14.5537  -46.0328 H         1 UNK         0.0800 
    136 H136       -4.5653  -15.3671  -47.6049 H         1 UNK         0.1150 
    137 H137       -3.4598  -18.4142  -50.4013 H         1 UNK         0.1150 
    138 H138       -0.4363  -16.3641  -48.1865 H         1 UNK         0.1150 
    139 H139       -0.7333  -18.0250  -51.1170 H         1 UNK         0.0800 
    140 H140        0.2260  -18.0903  -49.6604 H         1 UNK         0.0800 
    141 H141       -2.0516  -20.0684  -47.7564 H         1 UNK         0.0800 
    142 H142       -0.3670  -19.6270  -47.7258 H         1 UNK         0.0800 
    143 H143        0.1701  -22.0969  -48.3441 H         1 UNK         0.0600 
    144 H144       -0.2385  -20.9168  -45.8325 H         1 UNK         0.3000 
    145 H145        0.7221  -23.6566  -43.7581 H         1 UNK         0.0600 
    146 H146        2.2659  -21.8739  -42.9721 H         1 UNK         0.0600 
    147 H147        2.8131  -22.5375  -44.5038 H         1 UNK         0.0600 
    148 H148        2.0215  -20.9685  -44.4649 H         1 UNK         0.0600 
    149 H149       -0.1984  -20.9354  -43.3471 H         1 UNK         0.3000 
    150 H150       -3.6255  -21.7807  -42.8559 H         1 UNK         0.0600 
    151 H151       -2.5134  -22.2923  -40.6771 H         1 UNK         0.0600 
    152 H152       -3.1930  -20.6729  -40.6831 H         1 UNK         0.0600 
    153 H153       -1.4546  -20.9010  -40.8759 H         1 UNK         0.0600 
    154 H154       -2.1862  -19.3160  -42.6437 H         1 UNK         0.3000 
    155 H155       -2.5690  -18.3020  -46.0465 H         1 UNK         0.0600 
    156 H156       -3.9569  -17.3719  -43.4772 H         1 UNK         0.0600 
    157 H157       -4.7740  -17.8576  -44.9597 H         1 UNK         0.0600 
    158 H158       -3.7593  -16.4267  -44.9498 H         1 UNK         0.0600 
    159 H159       -1.5010  -16.7445  -44.0602 H         1 UNK         0.3000 
    160 H160        1.7499  -18.0027  -43.7221 H         1 UNK         0.0600 
    161 H161        0.9824  -15.7518  -45.6379 H         1 UNK         0.0600 
    162 H162        1.8943  -17.1878  -46.0831 H         1 UNK         0.0600 
    163 H163        2.5740  -16.0432  -44.9367 H         1 UNK         0.0600 
    164 H164        1.3304  -16.5427  -42.1551 H         1 UNK         0.3000 
    165 H165       -0.3515  -13.4751  -41.8644 H         1 UNK         0.0600 
    166 H166       -0.8897  -14.3914  -39.6264 H         1 UNK         0.0600 
    167 H167       -1.9156  -15.1371  -40.8406 H         1 UNK         0.0600 
    168 H168       -0.5517  -16.0316  -40.1805 H         1 UNK         0.0600 
    169 H169        1.5669  -14.7169  -40.1934 H         1 UNK         0.3000 
    170 H170        3.5658  -13.4693  -40.0017 H         1 UNK         0.0600 
    171 H171        4.6586  -15.2596  -42.2621 H         1 UNK         0.0600 
    172 H172        5.4686  -14.9617  -40.7260 H         1 UNK         0.0600 
    173 H173        3.9424  -15.8297  -40.7593 H         1 UNK         0.0600 
    174 H174        4.2668  -12.4129  -42.6237 H         1 UNK         0.3000 
    175 H175        5.8268   -9.6714  -41.2654 H         1 UNK         0.0600 
    176 H176        7.7795  -10.0005  -42.7758 H         1 UNK         0.0600 
    177 H177        7.4610  -11.7337  -42.8459 H         1 UNK         0.0600 
    178 H178        7.9534  -10.9846  -41.3311 H         1 UNK         0.0600 
    179 H179        5.5404  -10.7112  -43.9689 H         1 UNK         0.3000 
    180 H180        2.1203   -9.8474  -44.3566 H         1 UNK         0.0600 
    181 H181        4.6371   -8.7249  -45.6930 H         1 UNK         0.0600 
    182 H182        3.3150   -7.7975  -45.0046 H         1 UNK         0.0600 
    183 H183        3.0333   -8.7969  -46.4221 H         1 UNK         0.0600 
    184 H184        2.5396  -11.8137  -45.2167 H         1 UNK         0.3000 
    185 H185        4.9566  -13.2016  -47.2835 H         1 UNK         0.0600 
    186 H186        5.8952  -13.9940  -45.1084 H         1 UNK         0.0600 
    187 H187        4.2712  -14.2464  -44.4847 H         1 UNK         0.0600 
    188 H188        4.8629  -15.2132  -45.8359 H         1 UNK         0.0600 
    189 H189        2.4888  -14.1772  -46.1555 H         1 UNK         0.3000 
    190 H190       -2.7756  -22.1099  -46.2736 H         1 UNK         0.3000 
    191 H191       -4.4229  -23.6401  -47.9436 H         1 UNK         0.0600 
    192 H192       -5.2859  -22.3855  -46.0178 H         1 UNK         0.0600 
    193 H193       -5.7218  -24.0784  -45.8458 H         1 UNK         0.0600 
    194 H194       -4.3983  -23.4143  -44.8952 H         1 UNK         0.0600 
    195 H195       -2.0178  -24.7326  -45.5372 H         1 UNK         0.3000 
    196 H196       -2.6357  -27.5391  -45.7934 H         1 UNK         0.0600 
    197 H197       -0.5198  -27.8301  -44.5127 H         1 UNK         0.0600 
    198 H198       -1.5485  -26.6133  -43.7708 H         1 UNK         0.0600 
    199 H199       -0.1423  -26.1234  -44.7105 H         1 UNK         0.0600 
    200 H200       -0.0660  -25.4275  -47.1714 H         1 UNK         0.3000 
    201 H201        1.2876  -27.5131  -48.5418 H         1 UNK         0.0600 
    202 H202        2.3908  -25.4234  -47.8197 H         1 UNK         0.0600 
    203 H203        1.3930  -24.4758  -48.9212 H         1 UNK         0.0600 
    204 H204        2.5692  -25.6215  -49.5564 H         1 UNK         0.0600 
    205 H205       -1.1375  -25.1272  -49.7028 H         1 UNK         0.3000 
    206 H206       -1.0384  -26.3428  -52.4368 H         1 UNK         0.0600 
    207 H207       -0.1921  -24.0624  -52.3994 H         1 UNK         0.0600 
    208 H208       -1.7586  -24.0591  -53.1857 H         1 UNK         0.0600 
    209 H209       -1.5989  -23.4823  -51.5291 H         1 UNK         0.0600 
    210 H210       -2.6453  -27.3066  -50.1457 H         1 UNK         0.3000 
    211 H211       -4.6341  -28.2580  -49.7755 H         1 UNK         0.0600 
    212 H212       -4.7261  -28.2452  -52.8404 H         1 UNK         0.0600 
    213 H213       -5.6642  -29.3024  -51.7933 H         1 UNK         0.0600 
    214 H214       -3.9131  -29.4377  -51.8287 H         1 UNK         0.0600 
    215 H215       -5.3008  -26.2048  -48.8018 H         1 UNK         0.3000 
    216 H216       -6.7933  -24.6910  -48.2291 H         1 UNK         0.0600 
    217 H217       -9.0879  -24.6589  -49.0363 H         1 UNK         0.0600 
    218 H218       -8.5914  -26.3343  -48.8665 H         1 UNK         0.0600 
    219 H219       -8.6769  -25.5917  -50.4645 H         1 UNK         0.0600 
    220 H220       -4.7022  -24.3024  -50.2272 H         1 UNK         0.3000 
    221 H221       -3.6661  -22.6874  -51.2957 H         1 UNK         0.0600 
    222 H222       -5.7512  -20.7652  -50.1581 H         1 UNK         0.0600 
    223 H223       -4.2873  -21.3008  -49.3261 H         1 UNK         0.0600 
    224 H224       -4.1648  -20.3627  -50.8029 H         1 UNK         0.0600 
    225 H225       -5.1916  -24.2212  -52.8796 H         1 UNK         0.3000 
    226 H226       -6.9472  -22.8821  -54.6954 H         1 UNK         0.0600 
    227 H227       -6.9385  -25.3448  -54.3837 H         1 UNK         0.0600 
    228 H228       -6.5916  -24.9506  -56.0624 H         1 UNK         0.0600 
    229 H229       -5.2872  -25.4457  -54.9878 H         1 UNK         0.0600 
    230 H230       -6.4215  -21.3983  -56.1241 H         1 UNK         0.3000 
    231 H231       -5.4760  -20.0409  -57.5467 H         1 UNK         0.0600 
    232 H232       -3.2616  -22.1014  -58.0272 H         1 UNK         0.0600 
    233 H233       -3.6349  -20.7129  -59.0341 H         1 UNK         0.0600 
    234 H234       -4.7957  -22.0240  -58.8935 H         1 UNK         0.0600 
    235 H235       -3.2259  -21.3442  -55.1698 H         1 UNK         0.3000 
    236 H236       -1.2178  -19.4132  -55.1904 H         1 UNK         0.0600 
    237 H237       -1.0997  -21.6096  -54.0148 H         1 UNK         0.0600 
    238 H238       -0.6758  -20.2924  -52.9353 H         1 UNK         0.0600 
    239 H239       -2.2628  -21.0452  -52.8152 H         1 UNK         0.0600 
    240 H240       -4.3972  -19.2094  -53.6328 H         1 UNK         0.3000 
    241 H241       -3.8113  -16.7189  -52.2539 H         1 UNK         0.0600 
    242 H242       -4.2071  -17.2314  -55.6390 H         1 UNK         0.3800 
    243 H243       -4.7981  -15.6287  -55.9858 H         1 UNK         0.3800 
    244 H244       -6.6248  -17.7339  -52.7949 H         1 UNK         0.0800 
    245 H245       -5.6205  -18.5646  -51.6577 H         1 UNK         0.0800 
    246 H246       -6.2556  -16.8476  -48.4777 H         1 UNK         0.0800 
    247 H247       -5.8292  -18.2833  -49.3605 H         1 UNK         0.0800 
@<TRIPOS>BOND
     1    1    2 1    
     2    1  127 1    
     3    1  128 1    
     4    1  129 1    
     5    2    3 2    
     6    2    4 am   BACKBONE|DICT|INTERRES
     7    4    5 1    
     8    4  130 1    
     9    5    6 1    
    10    5   65 1    
    11    5  131 1    
    12    6    7 1    
    13    6  132 1    
    14    6  133 1    
    15    7    8 1    
    16    8    9 1    
    17    8  134 1    
    18    8  135 1    
    19    9   10 ar   
    20    9   14 ar   
    21   10   11 ar   
    22   10  136 1    
    23   11   12 ar   
    24   11  126 1    
    25   12   13 ar   
    26   12  137 1    
    27   13   14 ar   
    28   13   15 1    
    29   14  138 1    
    30   15   16 1    
    31   15  139 1    
    32   15  140 1    
    33   16   17 1    
    34   17   18 1    
    35   17  141 1    
    36   17  142 1    
    37   18   19 1    
    38   18   67 1    
    39   18  143 1    
    40   19   20 am   BACKBONE|DICT|INTERRES
    41   19  144 1    
    42   20   21 2    
    43   20   22 1    
    44   22   23 1    
    45   22   24 1    
    46   22  145 1    
    47   23  146 1    
    48   23  147 1    
    49   23  148 1    
    50   24   25 am   BACKBONE|DICT|INTERRES
    51   24  149 1    
    52   25   26 2    
    53   25   27 1    
    54   27   28 1    
    55   27   29 1    
    56   27  150 1    
    57   28  151 1    
    58   28  152 1    
    59   28  153 1    
    60   29   30 am   BACKBONE|DICT|INTERRES
    61   29  154 1    
    62   30   31 2    
    63   30   32 1    
    64   32   33 1    
    65   32   34 1    
    66   32  155 1    
    67   33  156 1    
    68   33  157 1    
    69   33  158 1    
    70   34   35 am   BACKBONE|DICT|INTERRES
    71   34  159 1    
    72   35   36 2    
    73   35   37 1    
    74   37   38 1    
    75   37   39 1    
    76   37  160 1    
    77   38  161 1    
    78   38  162 1    
    79   38  163 1    
    80   39   40 am   BACKBONE|DICT|INTERRES
    81   39  164 1    
    82   40   41 2    
    83   40   42 1    
    84   42   43 1    
    85   42   44 1    
    86   42  165 1    
    87   43  166 1    
    88   43  167 1    
    89   43  168 1    
    90   44   45 am   BACKBONE|DICT|INTERRES
    91   44  169 1    
    92   45   46 2    
    93   45   47 1    
    94   47   48 1    
    95   47   49 1    
    96   47  170 1    
    97   48  171 1    
    98   48  172 1    
    99   48  173 1    
   100   49   50 am   BACKBONE|DICT|INTERRES
   101   49  174 1    
   102   50   51 2    
   103   50   52 1    
   104   52   53 1    
   105   52   54 1    
   106   52  175 1    
   107   53  176 1    
   108   53  177 1    
   109   53  178 1    
   110   54   55 am   BACKBONE|DICT|INTERRES
   111   54  179 1    
   112   55   56 2    
   113   55   57 1    
   114   57   58 1    
   115   57   59 1    
   116   57  180 1    
   117   58  181 1    
   118   58  182 1    
   119   58  183 1    
   120   59   60 am   BACKBONE|DICT|INTERRES
   121   59  184 1    
   122   60   61 2    
   123   60   62 1    
   124   62   63 1    
   125   62   64 1    
   126   62  185 1    
   127   63  186 1    
   128   63  187 1    
   129   63  188 1    
   130   64   65 am   BACKBONE|DICT|INTERRES
   131   64  189 1    
   132   65   66 2    
   133   67   68 2    
   134   67   69 am   BACKBONE|DICT|INTERRES
   135   69   70 1    
   136   69  190 1    
   137   70   71 1    
   138   70   72 1    
   139   70  191 1    
   140   71  192 1    
   141   71  193 1    
   142   71  194 1    
   143   72   73 2    
   144   72   74 am   BACKBONE|DICT|INTERRES
   145   74   75 1    
   146   74  195 1    
   147   75   76 1    
   148   75   77 1    
   149   75  196 1    
   150   76  197 1    
   151   76  198 1    
   152   76  199 1    
   153   77   78 2    
   154   77   79 am   BACKBONE|DICT|INTERRES
   155   79   80 1    
   156   79  200 1    
   157   80   81 1    
   158   80   82 1    
   159   80  201 1    
   160   81  202 1    
   161   81  203 1    
   162   81  204 1    
   163   82   83 2    
   164   82   84 am   BACKBONE|DICT|INTERRES
   165   84   85 1    
   166   84  205 1    
   167   85   86 1    
   168   85   87 1    
   169   85  206 1    
   170   86  207 1    
   171   86  208 1    
   172   86  209 1    
   173   87   88 2    
   174   87   89 am   BACKBONE|DICT|INTERRES
   175   89   90 1    
   176   89  210 1    
   177   90   91 1    
   178   90   92 1    
   179   90  211 1    
   180   91  212 1    
   181   91  213 1    
   182   91  214 1    
   183   92   93 2    
   184   92   94 am   BACKBONE|DICT|INTERRES
   185   94   95 1    
   186   94  215 1    
   187   95   96 1    
   188   95   97 1    
   189   95  216 1    
   190   96  217 1    
   191   96  218 1    
   192   96  219 1    
   193   97   98 2    
   194   97   99 am   BACKBONE|DICT|INTERRES
   195   99  100 1    
   196   99  220 1    
   197  100  101 1    
   198  100  102 1    
   199  100  221 1    
   200  101  222 1    
   201  101  223 1    
   202  101  224 1    
   203  102  103 2    
   204  102  104 am   BACKBONE|DICT|INTERRES
   205  104  105 1    
   206  104  225 1    
   207  105  106 1    
   208  105  107 1    
   209  105  226 1    
   210  106  227 1    
   211  106  228 1    
   212  106  229 1    
   213  107  108 2    
   214  107  109 am   BACKBONE|DICT|INTERRES
   215  109  110 1    
   216  109  230 1    
   217  110  111 1    
   218  110  112 1    
   219  110  231 1    
   220  111  232 1    
   221  111  233 1    
   222  111  234 1    
   223  112  113 2    
   224  112  114 am   BACKBONE|DICT|INTERRES
   225  114  115 1    
   226  114  235 1    
   227  115  116 1    
   228  115  117 1    
   229  115  236 1    
   230  116  237 1    
   231  116  238 1    
   232  116  239 1    
   233  117  118 2    
   234  117  119 am   BACKBONE|DICT|INTERRES
   235  119  120 1    
   236  119  240 1    
   237  120  121 1    
   238  120  124 1    
   239  120  241 1    
   240  121  122 am   BACKBONE|DICT|INTERRES
   241  121  123 2    
   242  122  242 1    
   243  122  243 1    
   244  124  125 1    
   245  124  244 1    
   246  124  245 1    
   247  125  126 1    
   248  126  246 1    
   249  126  247 1    
@<TRIPOS>SUBSTRUCTURE
     1 UNK         1 GROUP             0       ****    0 ROOT    
