@<TRIPOS>MOLECULE
3R540
247   249    1
SMALL
USER_CHARGES


@<TRIPOS>ATOM
      1 CA         -2.9316  -11.8099  -49.5043 C.3       0 UNK        -0.1800 
      2 C          -1.8125  -12.5062  -48.7444 C.2       0 UNK         0.5000 
      3 O          -1.7458  -12.3982  -47.5209 O.2       0 UNK        -0.5000 
      4 N          -0.9198  -13.1996  -49.4661 N.am      1 UNK        -0.5000 
      5 CA          0.1822  -14.0335  -48.9499 C.3       1 UNK         0.1400 
      6 C6         -0.3104  -15.2496  -48.1165 C.3       23 UNK        -0.0398 
      7 S7         -1.5331  -16.2972  -48.9706 S.3       23 UNK        -0.2404 
      8 C8         -0.9194  -17.9586  -48.5502 C.3       23 UNK        -0.0205 
      9 C9          0.2130  -18.3995  -49.4621 C.ar      23 UNK        -0.0193 
     10 C10        -0.0588  -18.7126  -50.7953 C.ar      23 UNK        -0.1150 
     11 C11         0.9617  -19.1356  -51.6490 C.ar      23 UNK        -0.0193 
     12 C12         2.2628  -19.2562  -51.1531 C.ar      23 UNK        -0.1150 
     13 C13         2.5522  -18.9608  -49.8166 C.ar      23 UNK        -0.0193 
     14 C14         1.5199  -18.5168  -48.9787 C.ar      23 UNK        -0.1150 
     15 C15         3.9932  -19.1045  -49.3256 C.3       23 UNK        -0.0205 
     16 S16         4.1729  -19.6243  -47.5847 S.3       23 UNK        -0.2404 
     17 C17         3.2614  -21.2074  -47.5620 C.3       23 UNK        -0.0398 
     18 CA          3.7809  -22.1778  -46.4710 C.3       11 UNK         0.1400 
     19 N           3.6409  -21.6129  -45.1234 N.am      11 UNK        -0.5000 
     20 C           4.3348  -21.9992  -44.0459 C.2       10 UNK         0.5000 
     21 O           5.2018  -22.8736  -44.0680 O.2       10 UNK        -0.5000 
     22 CA          3.9828  -21.3096  -42.7140 C.3       10 UNK         0.1400 
     23 CB          4.6666  -19.9375  -42.6168 C.3       10 UNK        -0.1800 
     24 N           2.5403  -21.1558  -42.5021 N.am      10 UNK        -0.5000 
     25 C           1.6826  -22.1723  -42.3279 C.2       9 UNK         0.5000 
     26 O           2.0151  -23.3574  -42.3445 O.2       9 UNK        -0.5000 
     27 CA          0.1989  -21.8109  -42.1247 C.3       9 UNK         0.1400 
     28 CB         -0.0564  -21.3251  -40.6900 C.3       9 UNK        -0.1800 
     29 N          -0.2687  -20.8034  -43.0745 N.am      9 UNK        -0.5000 
     30 C          -0.3738  -21.0007  -44.3957 C.2       8 UNK         0.5000 
     31 O          -0.1598  -22.0810  -44.9459 O.2       8 UNK        -0.5000 
     32 CA         -0.7186  -19.7715  -45.2570 C.3       8 UNK         0.1400 
     33 CB         -2.2342  -19.5254  -45.2902 C.3       8 UNK        -0.1800 
     34 N          -0.0301  -18.5546  -44.8176 N.am      8 UNK        -0.5000 
     35 C           1.3026  -18.4219  -44.7608 C.2       7 UNK         0.5000 
     36 O           2.0844  -19.3065  -45.0944 O.2       7 UNK        -0.5000 
     37 CA          1.8618  -17.1124  -44.1867 C.3       7 UNK         0.1400 
     38 CB          1.8569  -16.0044  -45.2426 C.3       7 UNK        -0.1800 
     39 N           1.1320  -16.6810  -42.9978 N.am      7 UNK        -0.5000 
     40 C           1.1740  -17.3255  -41.8239 C.2       6 UNK         0.5000 
     41 O           1.8853  -18.3063  -41.6039 O.2       6 UNK        -0.5000 
     42 CA          0.2115  -16.8226  -40.7359 C.3       6 UNK         0.1400 
     43 CB          0.7992  -15.6110  -39.9970 C.3       6 UNK        -0.1800 
     44 N          -1.1002  -16.4830  -41.2909 N.am      6 UNK        -0.5000 
     45 C          -1.9620  -17.3941  -41.7662 C.2       5 UNK         0.5000 
     46 O          -1.7458  -18.6058  -41.7540 O.2       5 UNK        -0.5000 
     47 CA         -3.2718  -16.8743  -42.3858 C.3       5 UNK         0.1400 
     48 CB         -4.3655  -16.7662  -41.3132 C.3       5 UNK        -0.1800 
     49 N          -3.1404  -15.5870  -43.0678 N.am      5 UNK        -0.5000 
     50 C          -2.3621  -15.3405  -44.1307 C.2       4 UNK         0.5000 
     51 O          -1.6223  -16.1813  -44.6434 O.2       4 UNK        -0.5000 
     52 CA         -2.4122  -13.9158  -44.7237 C.3       4 UNK         0.1400 
     53 CB         -3.4612  -12.9946  -44.0620 C.3       4 UNK        -0.1800 
     54 N          -1.1122  -13.2340  -44.7407 N.am      4 UNK        -0.5000 
     55 C          -0.2584  -13.0894  -43.7147 C.2       3 UNK         0.5000 
     56 O          -0.4021  -13.6499  -42.6266 O.2       3 UNK        -0.5000 
     57 CA          0.9407  -12.1432  -43.9226 C.3       3 UNK         0.1400 
     58 CB          2.1724  -12.5451  -43.0892 C.3       3 UNK        -0.1800 
     59 N           1.3146  -12.0116  -45.3333 N.am      3 UNK        -0.5000 
     60 C           1.6222  -10.8628  -45.9500 C.2       2 UNK         0.5000 
     61 O           1.6122   -9.7683  -45.3849 O.2       2 UNK        -0.5000 
     62 CA          1.9858  -10.9164  -47.4519 C.3       2 UNK         0.1400 
     63 CB          3.5051  -11.0775  -47.6529 C.3       2 UNK        -0.1800 
     64 N           1.2225  -11.9010  -48.2328 N.am      2 UNK        -0.5000 
     65 C           1.2560  -13.2393  -48.1628 C.2       1 UNK         0.5000 
     66 O           2.0650  -13.8478  -47.4647 O.2       1 UNK        -0.5000 
     67 C           3.0933  -23.5557  -46.6039 C.2       11 UNK         0.5000 
     68 O           3.3429  -24.2507  -47.5896 O.2       11 UNK        -0.5000 
     69 N           2.2493  -23.9209  -45.6251 N.am      12 UNK        -0.5000 
     70 CA          1.4345  -25.1365  -45.5463 C.3       12 UNK         0.1400 
     71 CB          2.3235  -26.3891  -45.4007 C.3       12 UNK        -0.1800 
     72 C           0.4290  -25.2267  -46.7115 C.2       12 UNK         0.5000 
     73 O           0.3933  -26.2237  -47.4363 O.2       12 UNK        -0.5000 
     74 N          -0.3501  -24.1510  -46.8815 N.am      13 UNK        -0.5000 
     75 CA         -1.3802  -23.9998  -47.9065 C.3       13 UNK         0.1400 
     76 CB         -1.9374  -22.5708  -47.8370 C.3       13 UNK        -0.1800 
     77 C          -2.5169  -25.0294  -47.7537 C.2       13 UNK         0.5000 
     78 O          -2.9495  -25.3106  -46.6335 O.2       13 UNK        -0.5000 
     79 N          -2.9916  -25.5542  -48.8895 N.am      14 UNK        -0.5000 
     80 CA         -4.0423  -26.5745  -48.9637 C.3       14 UNK         0.1400 
     81 CB         -3.8794  -27.3400  -50.2872 C.3       14 UNK        -0.1800 
     82 C          -5.4722  -26.0069  -48.8457 C.2       14 UNK         0.5000 
     83 O          -6.4213  -26.7835  -48.7286 O.2       14 UNK        -0.5000 
     84 N          -5.6106  -24.6788  -48.8994 N.am      15 UNK        -0.5000 
     85 CA         -6.8669  -23.9403  -48.8559 C.3       15 UNK         0.1400 
     86 CB         -7.4936  -23.9156  -50.2633 C.3       15 UNK        -0.1800 
     87 C          -6.5837  -22.5190  -48.3509 C.2       15 UNK         0.5000 
     88 O          -5.4161  -22.1331  -48.2298 O.2       15 UNK        -0.5000 
     89 N          -7.6527  -21.7516  -48.0987 N.am      16 UNK        -0.5000 
     90 CA         -7.6052  -20.3330  -47.7361 C.3       16 UNK         0.1400 
     91 CB         -9.0349  -19.8165  -47.5142 C.3       16 UNK        -0.1800 
     92 C          -6.8836  -19.5096  -48.8187 C.2       16 UNK         0.5000 
     93 O          -7.3008  -19.5344  -49.9793 O.2       16 UNK        -0.5000 
     94 N          -5.7675  -18.8759  -48.4312 N.am      17 UNK        -0.5000 
     95 CA         -4.8143  -18.1609  -49.2922 C.3       17 UNK         0.1400 
     96 CB         -5.4431  -16.8605  -49.8335 C.3       17 UNK        -0.1800 
     97 C          -4.2164  -19.0397  -50.4178 C.2       17 UNK         0.5000 
     98 O          -3.8641  -18.5237  -51.4794 O.2       17 UNK        -0.5000 
     99 N          -4.1748  -20.3639  -50.1907 N.am      18 UNK        -0.5000 
    100 CA        -3.8286  -21.4231  -51.1471 C.3       18 UNK         0.1400 
    101 CB        -2.3225  -21.3891  -51.4640 C.3       18 UNK        -0.1800 
    102 C         -4.7108  -21.4087  -52.4165 C.2       18 UNK         0.5000 
    103 O         -4.2479  -21.7890  -53.4935 O.2       18 UNK        -0.5000 
    104 N         -5.9553  -20.9223  -52.2703 N.am      19 UNK        -0.5000 
    105 CA        -6.9401  -20.6601  -53.3249 C.3       19 UNK         0.1400 
    106 CB        -7.4228  -21.9806  -53.9607 C.3       19 UNK        -0.1800 
    107 C         -6.4570  -19.6343  -54.3761 C.2       19 UNK         0.5000 
    108 O         -6.9334  -19.6586  -55.5119 O.2       19 UNK        -0.5000 
    109 N         -5.4966  -18.7750  -53.9956 N.am      20 UNK        -0.5000 
    110 CA        -4.7803  -17.7612  -54.7825 C.3       20 UNK         0.1400 
    111 CB        -5.7439  -16.7009  -55.3476 C.3       20 UNK        -0.1800 
    112 C         -3.8635  -18.3295  -55.8868 C.2       20 UNK         0.5000 
    113 O         -2.7716  -17.7993  -56.0944 O.2       20 UNK        -0.5000 
    114 N         -4.3066  -19.3934  -56.5673 N.am      21 UNK        -0.5000 
    115 CA        -3.5879  -20.0949  -57.6310 C.3       21 UNK         0.1400 
    116 CB        -4.5651  -21.0426  -58.3433 C.3       21 UNK        -0.1800 
    117 C         -2.3520  -20.8709  -57.1364 C.2       21 UNK         0.5000 
    118 O         -1.4205  -21.0745  -57.9159 O.2       21 UNK        -0.5000 
    119 N         -2.3601  -21.2841  -55.8615 N.am      22 UNK        -0.5000 
    120 CA        -1.2867  -22.0349  -55.1893 C.3       22 UNK         0.1400 
    121 C         -1.1455  -23.5237  -55.6341 C.2       22 UNK         0.5000 
    122 N         -2.1257  -24.1038  -56.3163 N.am      22 UNK        -0.7600 
    123 O         -0.1487  -24.1769  -55.3381 O.2       22 UNK        -0.5000 
    124 C124        0.0684  -21.2622  -55.1557 C.3       23 UNK        -0.0398 
    125 S125        0.7958  -21.2131  -53.4817 S.3       23 UNK        -0.2404 
    126 C126        0.6606  -19.4365  -53.1094 C.3       23 UNK        -0.0205 
    127 H127       -2.8563  -11.9750  -50.5793 H         1 UNK         0.0600 
    128 H128       -2.8982  -10.7361  -49.3205 H         1 UNK         0.0600 
    129 H129       -3.8988  -12.1846  -49.1694 H         1 UNK         0.0600 
    130 H130       -1.0304  -13.2258  -50.4702 H         1 UNK         0.3000 
    131 H131        0.6956  -14.4264  -49.8286 H         1 UNK         0.0600 
    132 H132       -0.7516  -14.9229  -47.1744 H         1 UNK         0.0800 
    133 H133        0.5397  -15.8784  -47.8518 H         1 UNK         0.0800 
    134 H134       -0.6065  -17.9666  -47.5071 H         1 UNK         0.0800 
    135 H135       -1.7331  -18.6794  -48.6295 H         1 UNK         0.0800 
    136 H136       -1.0689  -18.6136  -51.1680 H         1 UNK         0.1150 
    137 H137        3.0519  -19.5838  -51.8156 H         1 UNK         0.1150 
    138 H138        1.7299  -18.2723  -47.9472 H         1 UNK         0.1150 
    139 H139        4.5329  -19.8194  -49.9487 H         1 UNK         0.0800 
    140 H140        4.4958  -18.1451  -49.4528 H         1 UNK         0.0800 
    141 H141        2.2012  -20.9948  -47.4121 H         1 UNK         0.0800 
    142 H142        3.3474  -21.6634  -48.5501 H         1 UNK         0.0800 
    143 H143        4.8442  -22.3442  -46.6562 H         1 UNK         0.0600 
    144 H144        2.9928  -20.8299  -45.0362 H         1 UNK         0.3000 
    145 H145        4.3700  -21.9351  -41.9071 H         1 UNK         0.0600 
    146 H146        4.4857  -19.4741  -41.6468 H         1 UNK         0.0600 
    147 H147        4.3081  -19.2540  -43.3866 H         1 UNK         0.0600 
    148 H148        5.7466  -20.0298  -42.7372 H         1 UNK         0.0600 
    149 H149        2.1901  -20.2053  -42.4521 H         1 UNK         0.3000 
    150 H150       -0.3884  -22.7180  -42.2826 H         1 UNK         0.0600 
    151 H151        0.4714  -20.3949  -40.4780 H         1 UNK         0.0600 
    152 H152       -1.1187  -21.1513  -40.5174 H         1 UNK         0.0600 
    153 H153        0.2751  -22.0657  -39.9612 H         1 UNK         0.0600 
    154 H154       -0.5211  -19.8977  -42.6921 H         1 UNK         0.3000 
    155 H155       -0.3852  -19.9877  -46.2737 H         1 UNK         0.0600 
    156 H156       -2.7620  -20.3787  -45.7150 H         1 UNK         0.0600 
    157 H157       -2.4843  -18.6538  -45.8954 H         1 UNK         0.0600 
    158 H158       -2.6331  -19.3654  -44.2896 H         1 UNK         0.0600 
    159 H159       -0.6117  -17.7568  -44.5724 H         1 UNK         0.3000 
    160 H160        2.9003  -17.2955  -43.9037 H         1 UNK         0.0600 
    161 H161        0.8491  -15.6506  -45.4528 H         1 UNK         0.0600 
    162 H162        2.2903  -16.3561  -46.1799 H         1 UNK         0.0600 
    163 H163        2.4519  -15.1517  -44.9222 H         1 UNK         0.0600 
    164 H164        0.4842  -15.9120  -43.1040 H         1 UNK         0.3000 
    165 H165        0.0772  -17.6278  -40.0103 H         1 UNK         0.0600 
    166 H166        0.1302  -15.2671  -39.2081 H         1 UNK         0.0600 
    167 H167        1.7502  -15.8673  -39.5284 H         1 UNK         0.0600 
    168 H168        0.9834  -14.7735  -40.6699 H         1 UNK         0.0600 
    169 H169       -1.3152  -15.4997  -41.3940 H         1 UNK         0.3000 
    170 H170       -3.5992  -17.6042  -43.1274 H         1 UNK         0.0600 
    171 H171       -4.5065  -17.7195  -40.8018 H         1 UNK         0.0600 
    172 H172       -4.1151  -16.0217  -40.5564 H         1 UNK         0.0600 
    173 H173       -5.3243  -16.4904  -41.7526 H         1 UNK         0.0600 
    174 H174       -3.6979  -14.8288  -42.7028 H         1 UNK         0.3000 
    175 H175       -2.7089  -14.0510  -45.7638 H         1 UNK         0.0600 
    176 H176       -3.2262  -12.7902  -43.0167 H         1 UNK         0.0600 
    177 H177       -3.5115  -12.0362  -44.5794 H         1 UNK         0.0600 
    178 H178       -4.4607  -13.4292  -44.1075 H         1 UNK         0.0600 
    179 H179       -0.9182  -12.7412  -45.6053 H         1 UNK         0.3000 
    180 H180        0.5969  -11.1761  -43.5509 H         1 UNK         0.0600 
    181 H181        1.9407  -12.5512  -42.0235 H         1 UNK         0.0600 
    182 H182        2.9926  -11.8421  -43.2345 H         1 UNK         0.0600 
    183 H183        2.5334  -13.5387  -43.3490 H         1 UNK         0.0600 
    184 H184        1.4028  -12.8692  -45.8689 H         1 UNK         0.3000 
    185 H185        1.7083   -9.9465  -47.8676 H         1 UNK         0.0600 
    186 H186        4.0454  -10.2520  -47.1879 H         1 UNK         0.0600 
    187 H187        3.8833  -11.9989  -47.2097 H         1 UNK         0.0600 
    188 H188        3.7655  -11.0811  -48.7112 H         1 UNK         0.0600 
    189 H189        0.4932  -11.5067  -48.8102 H         1 UNK         0.3000 
    190 H190        2.1026  -23.2597  -44.8742 H         1 UNK         0.3000 
    191 H191        0.8420  -25.0476  -44.6343 H         1 UNK         0.0600 
    192 H192        1.7158  -27.2790  -45.2332 H         1 UNK         0.0600 
    193 H193        3.0000  -26.2931  -44.5514 H         1 UNK         0.0600 
    194 H194        2.9264  -26.5690  -46.2911 H         1 UNK         0.0600 
    195 H195       -0.2664  -23.3893  -46.2107 H         1 UNK         0.3000 
    196 H196       -0.9022  -24.1395  -48.8783 H         1 UNK         0.0600 
    197 H197       -2.4052  -22.3769  -46.8718 H         1 UNK         0.0600 
    198 H198       -1.1538  -21.8283  -47.9900 H         1 UNK         0.0600 
    199 H199       -2.6953  -22.4088  -48.6013 H         1 UNK         0.0600 
    200 H200       -2.5828  -25.2740  -49.7694 H         1 UNK         0.3000 
    201 H201       -3.9054  -27.2828  -48.1436 H         1 UNK         0.0600 
    202 H202       -4.6134  -28.1427  -50.3698 H         1 UNK         0.0600 
    203 H203       -2.8926  -27.7980  -50.3595 H         1 UNK         0.0600 
    204 H204       -4.0111  -26.6854  -51.1499 H         1 UNK         0.0600 
    205 H205       -4.7854  -24.0948  -48.8989 H         1 UNK         0.3000 
    206 H206       -7.5501  -24.4199  -48.1519 H         1 UNK         0.0600 
    207 H207       -7.7175  -24.9230  -50.6142 H         1 UNK         0.0600 
    208 H208       -8.4300  -23.3569  -50.2756 H         1 UNK         0.0600 
    209 H209       -6.8247  -23.4525  -50.9891 H         1 UNK         0.0600 
    210 H210       -8.5732  -22.1386  -48.2467 H         1 UNK         0.3000 
    211 H211       -7.0593  -20.2467  -46.7943 H         1 UNK         0.0600 
    212 H212       -9.6422  -19.9106  -48.4155 H         1 UNK         0.0600 
    213 H213       -9.0291  -18.7631  -47.2311 H         1 UNK         0.0600 
    214 H214       -9.5335  -20.3646  -46.7145 H         1 UNK         0.0600 
    215 H215       -5.4970  -18.9481  -47.4603 H         1 UNK         0.3000 
    216 H216       -3.9840  -17.8810  -48.6457 H         1 UNK         0.0600 
    217 H217       -5.8523  -16.2542  -49.0255 H         1 UNK         0.0600 
    218 H218       -6.2463  -17.0634  -50.5425 H         1 UNK         0.0600 
    219 H219       -4.6985  -16.2511  -50.3475 H         1 UNK         0.0600 
    220 H220       -4.5270  -20.7040  -49.3007 H         1 UNK         0.3000 
    221 H221       -4.0404  -22.3678  -50.6458 H         1 UNK         0.0600 
    222 H222       -2.0025  -22.3264  -51.9181 H         1 UNK         0.0600 
    223 H223       -2.0780  -20.5829  -52.1558 H         1 UNK         0.0600 
    224 H224       -1.7233  -21.2490  -50.5649 H         1 UNK         0.0600 
    225 H225       -6.2330  -20.5895  -51.3521 H         1 UNK         0.3000 
    226 H226       -7.7960  -20.2000  -52.8292 H         1 UNK         0.0600 
    227 H227       -7.7704  -22.6804  -53.2012 H         1 UNK         0.0600 
    228 H228       -8.2565  -21.8061  -54.6416 H         1 UNK         0.0600 
    229 H229       -6.6328  -22.4691  -54.5316 H         1 UNK         0.0600 
    230 H230       -5.1401  -18.8720  -53.0502 H         1 UNK         0.3000 
    231 H231       -4.1251  -17.2574  -54.0699 H         1 UNK         0.0600 
    232 H232       -5.1912  -15.8919  -55.8268 H         1 UNK         0.0600 
    233 H233       -6.3490  -16.2573  -54.5569 H         1 UNK         0.0600 
    234 H234       -6.4195  -17.1179  -56.0948 H         1 UNK         0.0600 
    235 H235       -5.2401  -19.7262  -56.3432 H         1 UNK         0.3000 
    236 H236       -3.2425  -19.3516  -58.3524 H         1 UNK         0.0600 
    237 H237       -5.4021  -20.4934  -58.7750 H         1 UNK         0.0600 
    238 H238       -4.0719  -21.5750  -59.1577 H         1 UNK         0.0600 
    239 H239       -4.9716  -21.7888  -57.6593 H         1 UNK         0.0600 
    240 H240       -3.1819  -21.1129  -55.2940 H         1 UNK         0.3000 
    241 H241       -1.6501  -22.1150  -54.1677 H         1 UNK         0.0600 
    242 H242       -2.9603  -23.5903  -56.5486 H         1 UNK         0.3800 
    243 H243       -2.0344  -25.0683  -56.5942 H         1 UNK         0.3800 
    244 H244       -0.0635  -20.2358  -55.5002 H         1 UNK         0.0800 
    245 H245        0.7955  -21.6946  -55.8452 H         1 UNK         0.0800 
    246 H246       -0.3424  -19.0906  -53.3665 H         1 UNK         0.0800 
    247 H247        1.3520  -18.8805  -53.7442 H         1 UNK         0.0800 
@<TRIPOS>BOND
     1    1    2 1    
     2    1  127 1    
     3    1  128 1    
     4    1  129 1    
     5    2    3 2    
     6    2    4 am   BACKBONE|DICT|INTERRES
     7    4    5 1    
     8    4  130 1    
     9    5    6 1    
    10    5   65 1    
    11    5  131 1    
    12    6    7 1    
    13    6  132 1    
    14    6  133 1    
    15    7    8 1    
    16    8    9 1    
    17    8  134 1    
    18    8  135 1    
    19    9   10 ar   
    20    9   14 ar   
    21   10   11 ar   
    22   10  136 1    
    23   11   12 ar   
    24   11  126 1    
    25   12   13 ar   
    26   12  137 1    
    27   13   14 ar   
    28   13   15 1    
    29   14  138 1    
    30   15   16 1    
    31   15  139 1    
    32   15  140 1    
    33   16   17 1    
    34   17   18 1    
    35   17  141 1    
    36   17  142 1    
    37   18   19 1    
    38   18   67 1    
    39   18  143 1    
    40   19   20 am   BACKBONE|DICT|INTERRES
    41   19  144 1    
    42   20   21 2    
    43   20   22 1    
    44   22   23 1    
    45   22   24 1    
    46   22  145 1    
    47   23  146 1    
    48   23  147 1    
    49   23  148 1    
    50   24   25 am   BACKBONE|DICT|INTERRES
    51   24  149 1    
    52   25   26 2    
    53   25   27 1    
    54   27   28 1    
    55   27   29 1    
    56   27  150 1    
    57   28  151 1    
    58   28  152 1    
    59   28  153 1    
    60   29   30 am   BACKBONE|DICT|INTERRES
    61   29  154 1    
    62   30   31 2    
    63   30   32 1    
    64   32   33 1    
    65   32   34 1    
    66   32  155 1    
    67   33  156 1    
    68   33  157 1    
    69   33  158 1    
    70   34   35 am   BACKBONE|DICT|INTERRES
    71   34  159 1    
    72   35   36 2    
    73   35   37 1    
    74   37   38 1    
    75   37   39 1    
    76   37  160 1    
    77   38  161 1    
    78   38  162 1    
    79   38  163 1    
    80   39   40 am   BACKBONE|DICT|INTERRES
    81   39  164 1    
    82   40   41 2    
    83   40   42 1    
    84   42   43 1    
    85   42   44 1    
    86   42  165 1    
    87   43  166 1    
    88   43  167 1    
    89   43  168 1    
    90   44   45 am   BACKBONE|DICT|INTERRES
    91   44  169 1    
    92   45   46 2    
    93   45   47 1    
    94   47   48 1    
    95   47   49 1    
    96   47  170 1    
    97   48  171 1    
    98   48  172 1    
    99   48  173 1    
   100   49   50 am   BACKBONE|DICT|INTERRES
   101   49  174 1    
   102   50   51 2    
   103   50   52 1    
   104   52   53 1    
   105   52   54 1    
   106   52  175 1    
   107   53  176 1    
   108   53  177 1    
   109   53  178 1    
   110   54   55 am   BACKBONE|DICT|INTERRES
   111   54  179 1    
   112   55   56 2    
   113   55   57 1    
   114   57   58 1    
   115   57   59 1    
   116   57  180 1    
   117   58  181 1    
   118   58  182 1    
   119   58  183 1    
   120   59   60 am   BACKBONE|DICT|INTERRES
   121   59  184 1    
   122   60   61 2    
   123   60   62 1    
   124   62   63 1    
   125   62   64 1    
   126   62  185 1    
   127   63  186 1    
   128   63  187 1    
   129   63  188 1    
   130   64   65 am   BACKBONE|DICT|INTERRES
   131   64  189 1    
   132   65   66 2    
   133   67   68 2    
   134   67   69 am   BACKBONE|DICT|INTERRES
   135   69   70 1    
   136   69  190 1    
   137   70   71 1    
   138   70   72 1    
   139   70  191 1    
   140   71  192 1    
   141   71  193 1    
   142   71  194 1    
   143   72   73 2    
   144   72   74 am   BACKBONE|DICT|INTERRES
   145   74   75 1    
   146   74  195 1    
   147   75   76 1    
   148   75   77 1    
   149   75  196 1    
   150   76  197 1    
   151   76  198 1    
   152   76  199 1    
   153   77   78 2    
   154   77   79 am   BACKBONE|DICT|INTERRES
   155   79   80 1    
   156   79  200 1    
   157   80   81 1    
   158   80   82 1    
   159   80  201 1    
   160   81  202 1    
   161   81  203 1    
   162   81  204 1    
   163   82   83 2    
   164   82   84 am   BACKBONE|DICT|INTERRES
   165   84   85 1    
   166   84  205 1    
   167   85   86 1    
   168   85   87 1    
   169   85  206 1    
   170   86  207 1    
   171   86  208 1    
   172   86  209 1    
   173   87   88 2    
   174   87   89 am   BACKBONE|DICT|INTERRES
   175   89   90 1    
   176   89  210 1    
   177   90   91 1    
   178   90   92 1    
   179   90  211 1    
   180   91  212 1    
   181   91  213 1    
   182   91  214 1    
   183   92   93 2    
   184   92   94 am   BACKBONE|DICT|INTERRES
   185   94   95 1    
   186   94  215 1    
   187   95   96 1    
   188   95   97 1    
   189   95  216 1    
   190   96  217 1    
   191   96  218 1    
   192   96  219 1    
   193   97   98 2    
   194   97   99 am   BACKBONE|DICT|INTERRES
   195   99  100 1    
   196   99  220 1    
   197  100  101 1    
   198  100  102 1    
   199  100  221 1    
   200  101  222 1    
   201  101  223 1    
   202  101  224 1    
   203  102  103 2    
   204  102  104 am   BACKBONE|DICT|INTERRES
   205  104  105 1    
   206  104  225 1    
   207  105  106 1    
   208  105  107 1    
   209  105  226 1    
   210  106  227 1    
   211  106  228 1    
   212  106  229 1    
   213  107  108 2    
   214  107  109 am   BACKBONE|DICT|INTERRES
   215  109  110 1    
   216  109  230 1    
   217  110  111 1    
   218  110  112 1    
   219  110  231 1    
   220  111  232 1    
   221  111  233 1    
   222  111  234 1    
   223  112  113 2    
   224  112  114 am   BACKBONE|DICT|INTERRES
   225  114  115 1    
   226  114  235 1    
   227  115  116 1    
   228  115  117 1    
   229  115  236 1    
   230  116  237 1    
   231  116  238 1    
   232  116  239 1    
   233  117  118 2    
   234  117  119 am   BACKBONE|DICT|INTERRES
   235  119  120 1    
   236  119  240 1    
   237  120  121 1    
   238  120  124 1    
   239  120  241 1    
   240  121  122 am   BACKBONE|DICT|INTERRES
   241  121  123 2    
   242  122  242 1    
   243  122  243 1    
   244  124  125 1    
   245  124  244 1    
   246  124  245 1    
   247  125  126 1    
   248  126  246 1    
   249  126  247 1    
@<TRIPOS>SUBSTRUCTURE
     1 UNK         1 GROUP             0       ****    0 ROOT    
