@<TRIPOS>MOLECULE
3R540
247   249    1
SMALL
USER_CHARGES


@<TRIPOS>ATOM
      1 CA         -5.4888  -11.9472  -48.5123 C.3       0 UNK        -0.1800 
      2 C          -4.2510  -12.2271  -49.3527 C.2       0 UNK         0.5000 
      3 O          -4.0070  -11.5284  -50.3366 O.2       0 UNK        -0.5000 
      4 N          -3.4680  -13.2409  -48.9640 N.am      1 UNK        -0.5000 
      5 CA         -2.2464  -13.6723  -49.6543 C.3       1 UNK         0.1400 
      6 C6         -1.8578  -15.1193  -49.2710 C.3       23 UNK        -0.0398 
      7 S7         -1.5477  -15.3836  -47.4838 S.3       23 UNK        -0.2404 
      8 C8         -2.6865  -16.7625  -47.0998 C.3       23 UNK        -0.0205 
      9 C9         -2.5272  -17.9837  -48.0030 C.ar      23 UNK        -0.0193 
     10 C10        -3.6583  -18.7218  -48.3621 C.ar      23 UNK        -0.1150 
     11 C11        -3.5503  -19.8189  -49.2209 C.ar      23 UNK        -0.0193 
     12 C12        -2.2970  -20.1826  -49.7206 C.ar      23 UNK        -0.1150 
     13 C13        -1.1558  -19.4637  -49.3581 C.ar      23 UNK        -0.0193 
     14 C14        -1.2758  -18.3765  -48.4898 C.ar      23 UNK        -0.1150 
     15 C15         0.2082  -19.8455  -49.9125 C.3       23 UNK        -0.0205 
     16 S16         0.7954  -21.4501  -49.2873 S.3       23 UNK        -0.2404 
     17 C17         0.8410  -21.1543  -47.4864 C.3       23 UNK        -0.0398 
     18 CA          0.1864  -22.2937  -46.6749 C.3       11 UNK         0.1400 
     19 N           0.5577  -22.2242  -45.2637 N.am      11 UNK        -0.5000 
     20 C           0.4081  -23.2286  -44.3919 C.2       10 UNK         0.5000 
     21 O          -0.0651  -24.3262  -44.6888 O.2       10 UNK        -0.5000 
     22 CA          0.8276  -22.9444  -42.9392 C.3       10 UNK         0.1400 
     23 CB          2.3559  -22.9913  -42.7934 C.3       10 UNK        -0.1800 
     24 N           0.3268  -21.6594  -42.4490 N.am      10 UNK        -0.5000 
     25 C          -0.9734  -21.3646  -42.3052 C.2       9 UNK         0.5000 
     26 O          -1.8863  -22.1500  -42.5615 O.2       9 UNK        -0.5000 
     27 CA         -1.3152  -19.9435  -41.8255 C.3       9 UNK         0.1400 
     28 CB         -1.0819  -19.8089  -40.3133 C.3       9 UNK        -0.1800 
     29 N          -0.5676  -18.9050  -42.5346 N.am      9 UNK        -0.5000 
     30 C          -0.6510  -18.6768  -43.8538 C.2       8 UNK         0.5000 
     31 O          -1.3645  -19.3199  -44.6191 O.2       8 UNK        -0.5000 
     32 CA          0.2567  -17.5792  -44.4267 C.3       8 UNK         0.1400 
     33 CB         -0.2447  -16.1871  -44.0074 C.3       8 UNK        -0.1800 
     34 N           1.6454  -17.7466  -44.0091 N.am      8 UNK        -0.5000 
     35 C           2.4079  -18.8274  -44.2222 C.2       7 UNK         0.5000 
     36 O           2.0431  -19.8191  -44.8515 O.2       7 UNK        -0.5000 
     37 CA          3.8000  -18.8153  -43.5727 C.3       7 UNK         0.1400 
     38 CB          4.7886  -17.9854  -44.4068 C.3       7 UNK        -0.1800 
     39 N           3.7556  -18.3003  -42.2046 N.am      7 UNK        -0.5000 
     40 C           3.1792  -18.9315  -41.1725 C.2       6 UNK         0.5000 
     41 O           2.6375  -20.0346  -41.2566 O.2       6 UNK        -0.5000 
     42 CA          3.1844  -18.1838  -39.8266 C.3       6 UNK         0.1400 
     43 CB          4.5482  -18.3197  -39.1328 C.3       6 UNK        -0.1800 
     44 N           2.8480  -16.7653  -39.9674 N.am      6 UNK        -0.5000 
     45 C           1.6353  -16.3176  -40.3186 C.2       5 UNK         0.5000 
     46 O           0.6788  -17.0544  -40.5598 O.2       5 UNK        -0.5000 
     47 CA          1.4658  -14.7918  -40.4554 C.3       5 UNK         0.1400 
     48 CB          1.2710  -14.1477  -39.0742 C.3       5 UNK        -0.1800 
     49 N           2.5379  -14.0872  -41.1720 N.am      5 UNK        -0.5000 
     50 C           3.0299  -14.4242  -42.3716 C.2       4 UNK         0.5000 
     51 O           2.8065  -15.4969  -42.9306 O.2       4 UNK        -0.5000 
     52 CA          3.9264  -13.3938  -43.0822 C.3       4 UNK         0.1400 
     53 CB          5.4065  -13.6888  -42.7970 C.3       4 UNK        -0.1800 
     54 N           3.7041  -13.4187  -44.5322 N.am      4 UNK        -0.5000 
     55 C           2.5423  -13.1144  -45.1280 C.2       3 UNK         0.5000 
     56 O           1.5695  -12.6487  -44.5268 O.2       3 UNK        -0.5000 
     57 CA          2.4500  -13.4098  -46.6389 C.3       3 UNK         0.1400 
     58 CB          2.3326  -14.9219  -46.9009 C.3       3 UNK        -0.1800 
     59 N           1.2946  -12.7418  -47.2378 N.am      3 UNK        -0.5000 
     60 C           1.2500  -11.4453  -47.5706 C.2       2 UNK         0.5000 
     61 O           2.2325  -10.7023  -47.5212 O.2       2 UNK        -0.5000 
     62 CA         -0.1212  -10.8721  -47.9967 C.3       2 UNK         0.1400 
     63 CB          0.0029   -9.7641  -49.0639 C.3       2 UNK        -0.1800 
     64 N          -1.1065  -11.8843  -48.4011 N.am      2 UNK        -0.5000 
     65 C          -1.0599  -12.6986  -49.4682 C.2       1 UNK         0.5000 
     66 O          -0.1360  -12.7125  -50.2825 O.2       1 UNK        -0.5000 
     67 C          -1.3433  -22.3862  -46.8650 C.2       11 UNK         0.5000 
     68 O          -1.7894  -23.1720  -47.7002 O.2       11 UNK        -0.5000 
     69 N          -2.1247  -21.6555  -46.0552 N.am      12 UNK        -0.5000 
     70 CA         -3.5875  -21.7325  -46.0389 C.3       12 UNK         0.1400 
     71 CB         -4.1683  -20.6060  -45.1717 C.3       12 UNK        -0.1800 
     72 C          -4.1159  -23.0998  -45.5728 C.2       12 UNK         0.5000 
     73 O          -5.1040  -23.5829  -46.1264 O.2       12 UNK        -0.5000 
     74 N          -3.4447  -23.7059  -44.5828 N.am      13 UNK        -0.5000 
     75 CA         -3.7427  -25.0513  -44.0918 C.3       13 UNK         0.1400 
     76 CB         -2.9867  -25.3028  -42.7783 C.3       13 UNK        -0.1800 
     77 C          -3.4208  -26.1428  -45.1295 C.2       13 UNK         0.5000 
     78 O          -4.1909  -27.0949  -45.2626 O.2       13 UNK        -0.5000 
     79 N          -2.3008  -25.9830  -45.8487 N.am      14 UNK        -0.5000 
     80 CA         -1.8788  -26.8750  -46.9281 C.3       14 UNK         0.1400 
     81 CB         -0.4053  -26.6024  -47.2713 C.3       14 UNK        -0.1800 
     82 C          -2.7649  -26.7422  -48.1805 C.2       14 UNK         0.5000 
     83 O          -3.2064  -27.7553  -48.7224 O.2       14 UNK        -0.5000 
     84 N          -2.9827  -25.4938  -48.6217 N.am      15 UNK        -0.5000 
     85 CA         -3.7624  -25.0497  -49.7857 C.3       15 UNK         0.1400 
     86 CB         -5.2491  -25.4214  -49.6231 C.3       15 UNK        -0.1800 
     87 C          -3.2004  -25.4884  -51.1574 C.2       15 UNK         0.5000 
     88 O          -3.8291  -25.2224  -52.1833 O.2       15 UNK        -0.5000 
     89 N          -2.0173  -26.1187  -51.1697 N.am      16 UNK        -0.5000 
     90 CA         -1.3600  -26.6983  -52.3452 C.3       16 UNK         0.1400 
     91 CB         -0.1554  -27.5275  -51.8737 C.3       16 UNK        -0.1800 
     92 C          -0.9239  -25.6660  -53.4030 C.2       16 UNK         0.5000 
     93 O          -0.7556  -26.0257  -54.5686 O.2       16 UNK        -0.5000 
     94 N          -0.7623  -24.4046  -52.9835 N.am      17 UNK        -0.5000 
     95 CA         -0.4332  -23.2668  -53.8424 C.3       17 UNK         0.1400 
     96 CB          0.0910  -22.1317  -52.9537 C.3       17 UNK        -0.1800 
     97 C          -1.6134  -22.7866  -54.7171 C.2       17 UNK         0.5000 
     98 O          -1.3799  -22.0340  -55.6638 O.2       17 UNK        -0.5000 
     99 N          -2.8363  -23.2425  -54.3981 N.am      18 UNK        -0.5000 
    100 CA        -4.1171  -22.9610  -55.0558 C.3       18 UNK         0.1400 
    101 CB        -4.0787  -23.3686  -56.5443 C.3       18 UNK        -0.1800 
    102 C         -4.6126  -21.5120  -54.8705 C.2       18 UNK         0.5000 
    103 O         -3.8916  -20.6504  -54.3622 O.2       18 UNK        -0.5000 
    104 N         -5.8643  -21.2729  -55.2897 N.am      19 UNK        -0.5000 
    105 CA        -6.6193  -20.0270  -55.1047 C.3       19 UNK         0.1400 
    106 CB        -8.0149  -20.1912  -55.7244 C.3       19 UNK        -0.1800 
    107 C         -5.9375  -18.7576  -55.6513 C.2       19 UNK         0.5000 
    108 O         -6.1612  -17.6718  -55.1140 O.2       19 UNK        -0.5000 
    109 N         -5.0909  -18.9217  -56.6768 N.am      20 UNK        -0.5000 
    110 CA        -4.2501  -17.8711  -57.2510 C.3       20 UNK         0.1400 
    111 CB        -3.5463  -18.4224  -58.5003 C.3       20 UNK        -0.1800 
    112 C         -3.2181  -17.2987  -56.2577 C.2       20 UNK         0.5000 
    113 O         -2.8769  -16.1199  -56.3625 O.2       20 UNK        -0.5000 
    114 N         -2.7545  -18.1265  -55.3109 N.am      21 UNK        -0.5000 
    115 CA        -1.8871  -17.7091  -54.2122 C.3       21 UNK         0.1400 
    116 CB        -0.9806  -18.8769  -53.8043 C.3       21 UNK        -0.1800 
    117 C         -2.7071  -17.2210  -53.0077 C.2       21 UNK         0.5000 
    118 O         -2.2935  -16.2631  -52.3537 O.2       21 UNK        -0.5000 
    119 N         -3.8441  -17.8797  -52.7373 N.am      22 UNK        -0.5000 
    120 CA        -4.7475  -17.5415  -51.6247 C.3       22 UNK         0.1400 
    121 C         -5.4228  -16.1481  -51.7582 C.2       22 UNK         0.5000 
    122 N         -5.8123  -15.7307  -52.9569 N.am      22 UNK        -0.7600 
    123 O         -5.5985  -15.4462  -50.7668 O.2       22 UNK        -0.5000 
    124 C124       -5.8308  -18.6214  -51.3540 C.3       23 UNK        -0.0398 
    125 S125       -5.2294  -20.3462  -51.3542 S.3       23 UNK        -0.2404 
    126 C126       -4.7867  -20.6110  -49.6125 C.3       23 UNK        -0.0205 
    127 H127       -6.3864  -12.0568  -49.1210 H         1 UNK         0.0600 
    128 H128       -5.4587  -10.9283  -48.1261 H         1 UNK         0.0600 
    129 H129       -5.5673  -12.6301  -47.6660 H         1 UNK         0.0600 
    130 H130       -3.7210  -13.7841  -48.1511 H         1 UNK         0.3000 
    131 H131       -2.4669  -13.6802  -50.7243 H         1 UNK         0.0600 
    132 H132       -0.9729  -15.4373  -49.8253 H         1 UNK         0.0800 
    133 H133       -2.6547  -15.7854  -49.6028 H         1 UNK         0.0800 
    134 H134       -2.5329  -17.0774  -46.0679 H         1 UNK         0.0800 
    135 H135       -3.7079  -16.3838  -47.1587 H         1 UNK         0.0800 
    136 H136       -4.6286  -18.4333  -47.9833 H         1 UNK         0.1150 
    137 H137       -2.2105  -21.0268  -50.3898 H         1 UNK         0.1150 
    138 H138       -0.3917  -17.8235  -48.2077 H         1 UNK         0.1150 
    139 H139        0.1525  -19.8861  -50.9998 H         1 UNK         0.0800 
    140 H140        0.9510  -19.0819  -49.6763 H         1 UNK         0.0800 
    141 H141        0.3960  -20.1943  -47.2245 H         1 UNK         0.0800 
    142 H142        1.8945  -21.0721  -47.2163 H         1 UNK         0.0800 
    143 H143        0.6027  -23.2305  -47.0523 H         1 UNK         0.0600 
    144 H144        0.9715  -21.3489  -44.9501 H         1 UNK         0.3000 
    145 H145        0.4021  -23.7306  -42.3120 H         1 UNK         0.0600 
    146 H146        2.7544  -23.9419  -43.1501 H         1 UNK         0.0600 
    147 H147        2.8397  -22.1961  -43.3620 H         1 UNK         0.0600 
    148 H148        2.6546  -22.8838  -41.7505 H         1 UNK         0.0600 
    149 H149        1.0220  -20.9636  -42.1997 H         1 UNK         0.3000 
    150 H150       -2.3765  -19.7769  -42.0204 H         1 UNK         0.0600 
    151 H151       -1.6252  -20.5779  -39.7627 H         1 UNK         0.0600 
    152 H152       -1.4273  -18.8420  -39.9472 H         1 UNK         0.0600 
    153 H153       -0.0256  -19.9040  -40.0586 H         1 UNK         0.0600 
    154 H154        0.0351  -18.3151  -41.9688 H         1 UNK         0.3000 
    155 H155        0.2251  -17.6456  -45.5162 H         1 UNK         0.0600 
    156 H156       -0.2256  -16.0599  -42.9258 H         1 UNK         0.0600 
    157 H157        0.3640  -15.3944  -44.4395 H         1 UNK         0.0600 
    158 H158       -1.2710  -16.0225  -44.3348 H         1 UNK         0.0600 
    159 H159        2.0588  -16.9633  -43.5033 H         1 UNK         0.3000 
    160 H160        4.1629  -19.8447  -43.5381 H         1 UNK         0.0600 
    161 H161        4.4885  -16.9392  -44.4719 H         1 UNK         0.0600 
    162 H162        4.8558  -18.3701  -45.4252 H         1 UNK         0.0600 
    163 H163        5.7908  -18.0203  -43.9794 H         1 UNK         0.0600 
    164 H164        4.0945  -17.3594  -42.0656 H         1 UNK         0.3000 
    165 H165        2.4315  -18.6497  -39.1870 H         1 UNK         0.0600 
    166 H166        4.5328  -17.8656  -38.1419 H         1 UNK         0.0600 
    167 H167        4.8171  -19.3690  -39.0042 H         1 UNK         0.0600 
    168 H168        5.3441  -17.8447  -39.7077 H         1 UNK         0.0600 
    169 H169        3.5843  -16.0949  -39.8025 H         1 UNK         0.3000 
    170 H170        0.5513  -14.6275  -41.0284 H         1 UNK         0.0600 
    171 H171        0.4688  -14.6395  -38.5220 H         1 UNK         0.0600 
    172 H172        2.1753  -14.2136  -38.4681 H         1 UNK         0.0600 
    173 H173        1.0022  -13.0950  -39.1633 H         1 UNK         0.0600 
    174 H174        2.8087  -13.1964  -40.7812 H         1 UNK         0.3000 
    175 H175        3.6841  -12.3948  -42.7144 H         1 UNK         0.0600 
    176 H176        5.6965  -14.6773  -43.1561 H         1 UNK         0.0600 
    177 H177        6.0548  -12.9541  -43.2749 H         1 UNK         0.0600 
    178 H178        5.6128  -13.6551  -41.7265 H         1 UNK         0.0600 
    179 H179        4.4447  -13.8206  -45.0874 H         1 UNK         0.3000 
    180 H180        3.3624  -13.0451  -47.1154 H         1 UNK         0.0600 
    181 H181        1.4148  -15.3357  -46.4855 H         1 UNK         0.0600 
    182 H182        3.1660  -15.4695  -46.4591 H         1 UNK         0.0600 
    183 H183        2.3356  -15.1352  -47.9700 H         1 UNK         0.0600 
    184 H184        0.4354  -13.2706  -47.2682 H         1 UNK         0.3000 
    185 H185       -0.5316  -10.4080  -47.0989 H         1 UNK         0.0600 
    186 H186        0.5929   -8.9258  -48.6920 H         1 UNK         0.0600 
    187 H187        0.4884  -10.1259  -49.9705 H         1 UNK         0.0600 
    188 H188       -0.9757   -9.3717  -49.3406 H         1 UNK         0.0600 
    189 H189       -1.9112  -11.9716  -47.7963 H         1 UNK         0.3000 
    190 H190       -1.7035  -20.9805  -45.4214 H         1 UNK         0.3000 
    191 H191       -3.9372  -21.5846  -47.0601 H         1 UNK         0.0600 
    192 H192       -3.8206  -20.6738  -44.1403 H         1 UNK         0.0600 
    193 H193       -5.2581  -20.6455  -45.1564 H         1 UNK         0.0600 
    194 H194       -3.8857  -19.6266  -45.5569 H         1 UNK         0.0600 
    195 H195       -2.6804  -23.2132  -44.1324 H         1 UNK         0.3000 
    196 H196       -4.8125  -25.1023  -43.8784 H         1 UNK         0.0600 
    197 H197       -3.2050  -26.2967  -42.3859 H         1 UNK         0.0600 
    198 H198       -3.2755  -24.5809  -42.0141 H         1 UNK         0.0600 
    199 H199       -1.9072  -25.2320  -42.9126 H         1 UNK         0.0600 
    200 H200       -1.6908  -25.2019  -45.6326 H         1 UNK         0.3000 
    201 H201       -1.9559  -27.9040  -46.5705 H         1 UNK         0.0600 
    202 H202        0.2359  -26.7665  -46.4051 H         1 UNK         0.0600 
    203 H203       -0.2499  -25.5772  -47.6088 H         1 UNK         0.0600 
    204 H204       -0.0582  -27.2668  -48.0637 H         1 UNK         0.0600 
    205 H205       -2.5343  -24.7283  -48.1179 H         1 UNK         0.3000 
    206 H206       -3.6966  -23.9611  -49.7785 H         1 UNK         0.0600 
    207 H207       -5.8556  -24.9636  -50.4054 H         1 UNK         0.0600 
    208 H208       -5.4063  -26.4988  -49.6766 H         1 UNK         0.0600 
    209 H209       -5.6382  -25.0717  -48.6665 H         1 UNK         0.0600 
    210 H210       -1.5718  -26.2843  -50.2801 H         1 UNK         0.3000 
    211 H211       -2.0731  -27.3715  -52.8252 H         1 UNK         0.0600 
    212 H212        0.3452  -28.0057  -52.7167 H         1 UNK         0.0600 
    213 H213        0.5825  -26.9089  -51.3612 H         1 UNK         0.0600 
    214 H214       -0.4641  -28.3187  -51.1901 H         1 UNK         0.0600 
    215 H215       -0.9141  -24.2061  -52.0057 H         1 UNK         0.3000 
    216 H216        0.3711  -23.5683  -54.5168 H         1 UNK         0.0600 
    217 H217       -0.6886  -21.7525  -52.2925 H         1 UNK         0.0600 
    218 H218        0.4534  -21.3007  -53.5582 H         1 UNK         0.0600 
    219 H219        0.9251  -22.4639  -52.3354 H         1 UNK         0.0600 
    220 H220       -2.9099  -23.8483  -53.5896 H         1 UNK         0.3000 
    221 H221       -4.8426  -23.6024  -54.5532 H         1 UNK         0.0600 
    222 H222       -3.4612  -22.6932  -57.1370 H         1 UNK         0.0600 
    223 H223       -3.6832  -24.3771  -56.6659 H         1 UNK         0.0600 
    224 H224       -5.0767  -23.3619  -56.9832 H         1 UNK         0.0600 
    225 H225       -6.3802  -22.0347  -55.7053 H         1 UNK         0.3000 
    226 H226       -6.7434  -19.8874  -54.0308 H         1 UNK         0.0600 
    227 H227       -8.5575  -21.0170  -55.2640 H         1 UNK         0.0600 
    228 H228       -8.6152  -19.2915  -55.5813 H         1 UNK         0.0600 
    229 H229       -7.9583  -20.3810  -56.7970 H         1 UNK         0.0600 
    230 H230       -4.9654  -19.8537  -57.0429 H         1 UNK         0.3000 
    231 H231       -4.9029  -17.0511  -57.5573 H         1 UNK         0.0600 
    232 H232       -2.9270  -17.6568  -58.9696 H         1 UNK         0.0600 
    233 H233       -4.2683  -18.7566  -59.2457 H         1 UNK         0.0600 
    234 H234       -2.8982  -19.2655  -58.2570 H         1 UNK         0.0600 
    235 H235       -3.1110  -19.0762  -55.2605 H         1 UNK         0.3000 
    236 H236       -1.2457  -16.8891  -54.5424 H         1 UNK         0.0600 
    237 H237       -0.4052  -19.2442  -54.6541 H         1 UNK         0.0600 
    238 H238       -0.2714  -18.5675  -53.0362 H         1 UNK         0.0600 
    239 H239       -1.5581  -19.7101  -53.4033 H         1 UNK         0.0600 
    240 H240       -4.0838  -18.6952  -53.2863 H         1 UNK         0.3000 
    241 H241       -4.1176  -17.4853  -50.7376 H         1 UNK         0.0600 
    242 H242       -5.7465  -16.3442  -53.7644 H         1 UNK         0.3800 
    243 H243       -6.2486  -14.8279  -53.0503 H         1 UNK         0.3800 
    244 H244       -6.3255  -18.4235  -50.4016 H         1 UNK         0.0800 
    245 H245       -6.6148  -18.5588  -52.1097 H         1 UNK         0.0800 
    246 H246       -4.5916  -21.6729  -49.4594 H         1 UNK         0.0800 
    247 H247       -5.6356  -20.3611  -48.9743 H         1 UNK         0.0800 
@<TRIPOS>BOND
     1    1    2 1    
     2    1  127 1    
     3    1  128 1    
     4    1  129 1    
     5    2    3 2    
     6    2    4 am   BACKBONE|DICT|INTERRES
     7    4    5 1    
     8    4  130 1    
     9    5    6 1    
    10    5   65 1    
    11    5  131 1    
    12    6    7 1    
    13    6  132 1    
    14    6  133 1    
    15    7    8 1    
    16    8    9 1    
    17    8  134 1    
    18    8  135 1    
    19    9   10 ar   
    20    9   14 ar   
    21   10   11 ar   
    22   10  136 1    
    23   11   12 ar   
    24   11  126 1    
    25   12   13 ar   
    26   12  137 1    
    27   13   14 ar   
    28   13   15 1    
    29   14  138 1    
    30   15   16 1    
    31   15  139 1    
    32   15  140 1    
    33   16   17 1    
    34   17   18 1    
    35   17  141 1    
    36   17  142 1    
    37   18   19 1    
    38   18   67 1    
    39   18  143 1    
    40   19   20 am   BACKBONE|DICT|INTERRES
    41   19  144 1    
    42   20   21 2    
    43   20   22 1    
    44   22   23 1    
    45   22   24 1    
    46   22  145 1    
    47   23  146 1    
    48   23  147 1    
    49   23  148 1    
    50   24   25 am   BACKBONE|DICT|INTERRES
    51   24  149 1    
    52   25   26 2    
    53   25   27 1    
    54   27   28 1    
    55   27   29 1    
    56   27  150 1    
    57   28  151 1    
    58   28  152 1    
    59   28  153 1    
    60   29   30 am   BACKBONE|DICT|INTERRES
    61   29  154 1    
    62   30   31 2    
    63   30   32 1    
    64   32   33 1    
    65   32   34 1    
    66   32  155 1    
    67   33  156 1    
    68   33  157 1    
    69   33  158 1    
    70   34   35 am   BACKBONE|DICT|INTERRES
    71   34  159 1    
    72   35   36 2    
    73   35   37 1    
    74   37   38 1    
    75   37   39 1    
    76   37  160 1    
    77   38  161 1    
    78   38  162 1    
    79   38  163 1    
    80   39   40 am   BACKBONE|DICT|INTERRES
    81   39  164 1    
    82   40   41 2    
    83   40   42 1    
    84   42   43 1    
    85   42   44 1    
    86   42  165 1    
    87   43  166 1    
    88   43  167 1    
    89   43  168 1    
    90   44   45 am   BACKBONE|DICT|INTERRES
    91   44  169 1    
    92   45   46 2    
    93   45   47 1    
    94   47   48 1    
    95   47   49 1    
    96   47  170 1    
    97   48  171 1    
    98   48  172 1    
    99   48  173 1    
   100   49   50 am   BACKBONE|DICT|INTERRES
   101   49  174 1    
   102   50   51 2    
   103   50   52 1    
   104   52   53 1    
   105   52   54 1    
   106   52  175 1    
   107   53  176 1    
   108   53  177 1    
   109   53  178 1    
   110   54   55 am   BACKBONE|DICT|INTERRES
   111   54  179 1    
   112   55   56 2    
   113   55   57 1    
   114   57   58 1    
   115   57   59 1    
   116   57  180 1    
   117   58  181 1    
   118   58  182 1    
   119   58  183 1    
   120   59   60 am   BACKBONE|DICT|INTERRES
   121   59  184 1    
   122   60   61 2    
   123   60   62 1    
   124   62   63 1    
   125   62   64 1    
   126   62  185 1    
   127   63  186 1    
   128   63  187 1    
   129   63  188 1    
   130   64   65 am   BACKBONE|DICT|INTERRES
   131   64  189 1    
   132   65   66 2    
   133   67   68 2    
   134   67   69 am   BACKBONE|DICT|INTERRES
   135   69   70 1    
   136   69  190 1    
   137   70   71 1    
   138   70   72 1    
   139   70  191 1    
   140   71  192 1    
   141   71  193 1    
   142   71  194 1    
   143   72   73 2    
   144   72   74 am   BACKBONE|DICT|INTERRES
   145   74   75 1    
   146   74  195 1    
   147   75   76 1    
   148   75   77 1    
   149   75  196 1    
   150   76  197 1    
   151   76  198 1    
   152   76  199 1    
   153   77   78 2    
   154   77   79 am   BACKBONE|DICT|INTERRES
   155   79   80 1    
   156   79  200 1    
   157   80   81 1    
   158   80   82 1    
   159   80  201 1    
   160   81  202 1    
   161   81  203 1    
   162   81  204 1    
   163   82   83 2    
   164   82   84 am   BACKBONE|DICT|INTERRES
   165   84   85 1    
   166   84  205 1    
   167   85   86 1    
   168   85   87 1    
   169   85  206 1    
   170   86  207 1    
   171   86  208 1    
   172   86  209 1    
   173   87   88 2    
   174   87   89 am   BACKBONE|DICT|INTERRES
   175   89   90 1    
   176   89  210 1    
   177   90   91 1    
   178   90   92 1    
   179   90  211 1    
   180   91  212 1    
   181   91  213 1    
   182   91  214 1    
   183   92   93 2    
   184   92   94 am   BACKBONE|DICT|INTERRES
   185   94   95 1    
   186   94  215 1    
   187   95   96 1    
   188   95   97 1    
   189   95  216 1    
   190   96  217 1    
   191   96  218 1    
   192   96  219 1    
   193   97   98 2    
   194   97   99 am   BACKBONE|DICT|INTERRES
   195   99  100 1    
   196   99  220 1    
   197  100  101 1    
   198  100  102 1    
   199  100  221 1    
   200  101  222 1    
   201  101  223 1    
   202  101  224 1    
   203  102  103 2    
   204  102  104 am   BACKBONE|DICT|INTERRES
   205  104  105 1    
   206  104  225 1    
   207  105  106 1    
   208  105  107 1    
   209  105  226 1    
   210  106  227 1    
   211  106  228 1    
   212  106  229 1    
   213  107  108 2    
   214  107  109 am   BACKBONE|DICT|INTERRES
   215  109  110 1    
   216  109  230 1    
   217  110  111 1    
   218  110  112 1    
   219  110  231 1    
   220  111  232 1    
   221  111  233 1    
   222  111  234 1    
   223  112  113 2    
   224  112  114 am   BACKBONE|DICT|INTERRES
   225  114  115 1    
   226  114  235 1    
   227  115  116 1    
   228  115  117 1    
   229  115  236 1    
   230  116  237 1    
   231  116  238 1    
   232  116  239 1    
   233  117  118 2    
   234  117  119 am   BACKBONE|DICT|INTERRES
   235  119  120 1    
   236  119  240 1    
   237  120  121 1    
   238  120  124 1    
   239  120  241 1    
   240  121  122 am   BACKBONE|DICT|INTERRES
   241  121  123 2    
   242  122  242 1    
   243  122  243 1    
   244  124  125 1    
   245  124  244 1    
   246  124  245 1    
   247  125  126 1    
   248  126  246 1    
   249  126  247 1    
@<TRIPOS>SUBSTRUCTURE
     1 UNK         1 GROUP             0       ****    0 ROOT    
