@<TRIPOS>MOLECULE
3R540
247   249    1
SMALL
USER_CHARGES


@<TRIPOS>ATOM
      1 CA          2.1050   -6.9106  -48.2271 C.3       0 UNK        -0.1800 
      2 C           2.2746   -8.3784  -47.8614 C.2       0 UNK         0.5000 
      3 O           3.3999   -8.8306  -47.6506 O.2       0 UNK        -0.5000 
      4 N           1.1622   -9.1215  -47.7840 N.am      1 UNK        -0.5000 
      5 CA          1.1281  -10.5483  -47.4306 C.3       1 UNK         0.1400 
      6 C6         -0.1894  -11.2134  -47.9133 C.3       23 UNK        -0.0398 
      7 S7          0.0204  -12.9641  -48.3875 S.3       23 UNK        -0.2404 
      8 C8         -1.4704  -13.2192  -49.4004 C.3       23 UNK        -0.0205 
      9 C9         -1.5923  -14.6621  -49.8693 C.ar      23 UNK        -0.0193 
     10 C10        -0.9026  -15.0859  -51.0081 C.ar      23 UNK        -0.1150 
     11 C11        -1.0236  -16.4020  -51.4588 C.ar      23 UNK        -0.0193 
     12 C12        -1.8456  -17.2937  -50.7648 C.ar      23 UNK        -0.1150 
     13 C13        -2.5259  -16.8976  -49.6070 C.ar      23 UNK        -0.0193 
     14 C14        -2.4003  -15.5716  -49.1771 C.ar      23 UNK        -0.1150 
     15 C15        -3.3990  -17.8616  -48.7974 C.3       23 UNK        -0.0205 
     16 S16        -2.9238  -19.6267  -48.9097 S.3       23 UNK        -0.2404 
     17 C17        -3.2361  -20.1832  -47.2024 C.3       23 UNK        -0.0398 
     18 CA         -3.1788  -21.7177  -47.0214 C.3       11 UNK         0.1400 
     19 N          -1.8711  -22.2663  -47.3923 N.am      11 UNK        -0.5000 
     20 C          -1.5689  -23.5694  -47.4480 C.2       10 UNK         0.5000 
     21 O          -2.3800  -24.4699  -47.2279 O.2       10 UNK        -0.5000 
     22 CA         -0.1009  -23.9261  -47.7407 C.3       10 UNK         0.1400 
     23 CB          0.1160  -24.1254  -49.2469 C.3       10 UNK        -0.1800 
     24 N           0.8573  -22.9373  -47.2356 N.am      10 UNK        -0.5000 
     25 C           1.0206  -22.6027  -45.9490 C.2       9 UNK         0.5000 
     26 O           0.3260  -23.0524  -45.0389 O.2       9 UNK        -0.5000 
     27 CA          2.1180  -21.5816  -45.6161 C.3       9 UNK         0.1400 
     28 CB          3.5271  -22.1601  -45.8418 C.3       9 UNK        -0.1800 
     29 N           1.9430  -20.2927  -46.2869 N.am      9 UNK        -0.5000 
     30 C           2.0368  -19.9809  -47.5864 C.2       8 UNK         0.5000 
     31 O           2.2761  -20.7975  -48.4770 O.2       8 UNK        -0.5000 
     32 CA          1.8154  -18.4998  -47.9490 C.3       8 UNK         0.1400 
     33 CB          0.3810  -18.2879  -48.4353 C.3       8 UNK        -0.1800 
     34 N           2.0620  -17.5950  -46.8242 N.am      8 UNK        -0.5000 
     35 C           3.2788  -17.2773  -46.3620 C.2       7 UNK         0.5000 
     36 O           4.3299  -17.6405  -46.8913 O.2       7 UNK        -0.5000 
     37 CA          3.3273  -16.4514  -45.0643 C.3       7 UNK         0.1400 
     38 CB          3.0570  -14.9664  -45.3481 C.3       7 UNK        -0.1800 
     39 N           2.3818  -16.9352  -44.0578 N.am      7 UNK        -0.5000 
     40 C           2.4404  -18.1285  -43.4497 C.2       6 UNK         0.5000 
     41 O           3.3293  -18.9559  -43.6474 O.2       6 UNK        -0.5000 
     42 CA          1.3011  -18.4679  -42.4740 C.3       6 UNK         0.1400 
     43 CB          1.6093  -17.9305  -41.0682 C.3       6 UNK        -0.1800 
     44 N           0.0196  -17.9311  -42.9272 N.am      6 UNK        -0.5000 
     45 C          -0.7520  -18.4962  -43.8649 C.2       5 UNK         0.5000 
     46 O          -0.4815  -19.5537  -44.4341 O.2       5 UNK        -0.5000 
     47 CA         -2.0324  -17.7327  -44.2513 C.3       5 UNK         0.1400 
     48 CB         -3.2046  -18.1188  -43.3384 C.3       5 UNK        -0.1800 
     49 N          -1.8627  -16.2808  -44.2503 N.am      5 UNK        -0.5000 
     50 C          -1.0850  -15.6298  -45.1250 C.2       4 UNK         0.5000 
     51 O          -0.3926  -16.1899  -45.9749 O.2       4 UNK        -0.5000 
     52 CA         -1.0574  -14.0982  -45.0114 C.3       4 UNK         0.1400 
     53 CB         -2.3524  -13.4898  -45.5704 C.3       4 UNK        -0.1800 
     54 N          -0.8343  -13.5543  -43.6721 N.am      4 UNK        -0.5000 
     55 C           0.0797  -13.9353  -42.7718 C.2       3 UNK         0.5000 
     56 O           0.7203  -14.9848  -42.8317 O.2       3 UNK        -0.5000 
     57 CA          0.3637  -12.9142  -41.6514 C.3       3 UNK         0.1400 
     58 CB          1.2410  -13.4994  -40.5302 C.3       3 UNK        -0.1800 
     59 N           1.0309  -11.7343  -42.2083 N.am      3 UNK        -0.5000 
     60 C           0.4405  -10.7770  -42.9377 C.2       2 UNK         0.5000 
     61 O          -0.7799  -10.7105  -43.1049 O.2       2 UNK        -0.5000 
     62 CA          1.3450   -9.7359  -43.6299 C.3       2 UNK         0.1400 
     63 CB          2.8429   -9.8456  -43.2635 C.3       2 UNK        -0.1800 
     64 N           1.1669   -9.7593  -45.0872 N.am      2 UNK        -0.5000 
     65 C           1.3856  -10.7911  -45.9219 C.2       1 UNK         0.5000 
     66 O           1.7935  -11.8911  -45.5513 O.2       1 UNK        -0.5000 
     67 C          -3.5921  -22.0931  -45.5788 C.2       11 UNK         0.5000 
     68 O          -4.7878  -22.2078  -45.3111 O.2       11 UNK        -0.5000 
     69 N          -2.6105  -22.2870  -44.6858 N.am      12 UNK        -0.5000 
     70 CA         -2.8163  -22.7281  -43.3084 C.3       12 UNK         0.1400 
     71 CB         -1.8806  -21.9409  -42.3750 C.3       12 UNK        -0.1800 
     72 C          -2.5687  -24.2386  -43.1646 C.2       12 UNK         0.5000 
     73 O          -3.4095  -24.9408  -42.6036 O.2       12 UNK        -0.5000 
     74 N          -1.4114  -24.7067  -43.6516 N.am      13 UNK        -0.5000 
     75 CA         -0.8903  -26.0544  -43.4207 C.3       13 UNK         0.1400 
     76 CB          0.6011  -26.0892  -43.7900 C.3       13 UNK        -0.1800 
     77 C          -1.6549  -27.1542  -44.1734 C.2       13 UNK         0.5000 
     78 O          -1.9101  -28.2130  -43.5983 O.2       13 UNK        -0.5000 
     79 N          -2.0010  -26.8876  -45.4385 N.am      14 UNK        -0.5000 
     80 CA         -2.7364  -27.8119  -46.3053 C.3       14 UNK         0.1400 
     81 CB         -2.0521  -27.8462  -47.6831 C.3       14 UNK        -0.1800 
     82 C          -4.2177  -27.4160  -46.4436 C.2       14 UNK         0.5000 
     83 O          -4.9839  -28.1694  -47.0454 O.2       14 UNK        -0.5000 
     84 N          -4.5852  -26.2391  -45.9112 N.am      15 UNK        -0.5000 
     85 CA         -5.8794  -25.5628  -46.0504 C.3       15 UNK         0.1400 
     86 CB         -6.9945  -26.3498  -45.3308 C.3       15 UNK        -0.1800 
     87 C          -6.2141  -25.2372  -47.5233 C.2       15 UNK         0.5000 
     88 O          -7.3773  -25.3081  -47.9258 O.2       15 UNK        -0.5000 
     89 N          -5.1756  -24.9204  -48.3097 N.am      16 UNK        -0.5000 
     90 CA         -5.2641  -24.6393  -49.7402 C.3       16 UNK         0.1400 
     91 CB         -3.8422  -24.6217  -50.3261 C.3       16 UNK        -0.1800 
     92 C          -5.9758  -23.3089  -50.0427 C.2       16 UNK         0.5000 
     93 O          -5.9757  -22.3955  -49.2140 O.2       16 UNK        -0.5000 
     94 N          -6.5193  -23.2069  -51.2608 N.am      17 UNK        -0.5000 
     95 CA         -6.9340  -21.9397  -51.8591 C.3       17 UNK         0.1400 
     96 CB         -7.7929  -22.2309  -53.0993 C.3       17 UNK        -0.1800 
     97 C          -5.6920  -21.1231  -52.2539 C.2       17 UNK         0.5000 
     98 O          -4.6701  -21.7145  -52.6123 O.2       17 UNK        -0.5000 
     99 N          -5.8033  -19.7889  -52.2319 N.am      18 UNK        -0.5000 
    100 CA        -4.6994  -18.8721  -52.5348 C.3       18 UNK         0.1400 
    101 CB        -5.1603  -17.4199  -52.3452 C.3       18 UNK        -0.1800 
    102 C         -4.0989  -19.0761  -53.9379 C.2       18 UNK         0.5000 
    103 O         -2.8768  -19.0624  -54.0887 O.2       18 UNK        -0.5000 
    104 N         -4.9697  -19.3311  -54.9237 N.am      19 UNK        -0.5000 
    105 CA        -4.6094  -19.6296  -56.3111 C.3       19 UNK         0.1400 
    106 CB        -5.8832  -19.6085  -57.1696 C.3       19 UNK        -0.1800 
    107 C         -3.8651  -20.9688  -56.4883 C.2       19 UNK         0.5000 
    108 O         -3.0941  -21.1046  -57.4386 O.2       19 UNK        -0.5000 
    109 N         -4.1027  -21.9271  -55.5822 N.am      20 UNK        -0.5000 
    110 CA        -3.4102  -23.2147  -55.5493 C.3       20 UNK         0.1400 
    111 CB        -4.3225  -24.2724  -54.9067 C.3       20 UNK        -0.1800 
    112 C         -2.0746  -23.1098  -54.7936 C.2       20 UNK         0.5000 
    113 O         -1.0913  -23.7210  -55.2132 O.2       20 UNK        -0.5000 
    114 N         -2.0673  -22.3384  -53.6979 N.am      21 UNK        -0.5000 
    115 CA        -0.9072  -22.0956  -52.8443 C.3       21 UNK         0.1400 
    116 CB        -1.3645  -21.3726  -51.5699 C.3       21 UNK        -0.1800 
    117 C          0.2103  -21.3062  -53.5491 C.2       21 UNK         0.5000 
    118 O          1.3642  -21.7373  -53.5173 O.2       21 UNK        -0.5000 
    119 N         -0.1455  -20.1746  -54.1699 N.am      22 UNK        -0.5000 
    120 CA         0.8078  -19.2615  -54.8257 C.3       22 UNK         0.1400 
    121 C          0.1963  -18.3038  -55.8872 C.2       22 UNK         0.5000 
    122 N         -1.1161  -18.1549  -55.9994 N.am      22 UNK        -0.7600 
    123 O          0.9365  -17.6938  -56.6541 O.2       22 UNK        -0.5000 
    124 C124        1.7684  -18.5252  -53.8368 C.3       23 UNK        -0.0398 
    125 S125        1.0744  -18.0141  -52.2215 S.3       23 UNK        -0.2404 
    126 C126       -0.2640  -16.8745  -52.6873 C.3       23 UNK        -0.0205 
    127 H127        1.0583   -6.6497  -48.3857 H         1 UNK         0.0600 
    128 H128        2.6533   -6.6863  -49.1421 H         1 UNK         0.0600 
    129 H129        2.4961   -6.2779  -47.4303 H         1 UNK         0.0600 
    130 H130        0.2683   -8.6902  -47.9735 H         1 UNK         0.3000 
    131 H131        1.9560  -11.0196  -47.9653 H         1 UNK         0.0600 
    132 H132       -0.9821  -11.1258  -47.1689 H         1 UNK         0.0800 
    133 H133       -0.5593  -10.6943  -48.7988 H         1 UNK         0.0800 
    134 H134       -2.3543  -12.9324  -48.8292 H         1 UNK         0.0800 
    135 H135       -1.4368  -12.5554  -50.2657 H         1 UNK         0.0800 
    136 H136       -0.2685  -14.3902  -51.5394 H         1 UNK         0.1150 
    137 H137       -1.9165  -18.3090  -51.1187 H         1 UNK         0.1150 
    138 H138       -2.9316  -15.2497  -48.2943 H         1 UNK         0.1150 
    139 H139       -3.3691  -17.5598  -47.7493 H         1 UNK         0.0800 
    140 H140       -4.4352  -17.7571  -49.1193 H         1 UNK         0.0800 
    141 H141       -4.2083  -19.7960  -46.8909 H         1 UNK         0.0800 
    142 H142       -2.4861  -19.7195  -46.5652 H         1 UNK         0.0800 
    143 H143       -3.9145  -22.1671  -47.6885 H         1 UNK         0.0600 
    144 H144       -1.1445  -21.5955  -47.5928 H         1 UNK         0.3000 
    145 H145        0.1063  -24.8735  -47.2392 H         1 UNK         0.0600 
    146 H146       -0.0022  -23.1915  -49.7950 H         1 UNK         0.0600 
    147 H147        1.1156  -24.5083  -49.4527 H         1 UNK         0.0600 
    148 H148       -0.5973  -24.8422  -49.6566 H         1 UNK         0.0600 
    149 H149        1.4371  -22.4563  -47.9178 H         1 UNK         0.3000 
    150 H150        2.0256  -21.3662  -44.5503 H         1 UNK         0.0600 
    151 H151        4.2939  -21.4532  -45.5242 H         1 UNK         0.0600 
    152 H152        3.7110  -22.4060  -46.8877 H         1 UNK         0.0600 
    153 H153        3.6677  -23.0740  -45.2633 H         1 UNK         0.0600 
    154 H154        1.6865  -19.5383  -45.6656 H         1 UNK         0.3000 
    155 H155        2.4963  -18.2466  -48.7642 H         1 UNK         0.0600 
    156 H156        0.1557  -18.9276  -49.2894 H         1 UNK         0.0600 
    157 H157       -0.3466  -18.5075  -47.6532 H         1 UNK         0.0600 
    158 H158        0.2300  -17.2555  -48.7502 H         1 UNK         0.0600 
    159 H159        1.2419  -17.1965  -46.3736 H         1 UNK         0.3000 
    160 H160        4.3325  -16.5405  -44.6476 H         1 UNK         0.0600 
    161 H161        3.1414  -14.3674  -44.4411 H         1 UNK         0.0600 
    162 H162        2.0588  -14.8080  -45.7572 H         1 UNK         0.0600 
    163 H163        3.7719  -14.5681  -46.0689 H         1 UNK         0.0600 
    164 H164        1.6468  -16.2894  -43.7793 H         1 UNK         0.3000 
    165 H165        1.2247  -19.5559  -42.4116 H         1 UNK         0.0600 
    166 H166        0.8280  -18.2081  -40.3605 H         1 UNK         0.0600 
    167 H167        2.5484  -18.3390  -40.6927 H         1 UNK         0.0600 
    168 H168        1.6983  -16.8436  -41.0603 H         1 UNK         0.0600 
    169 H169       -0.2310  -17.0140  -42.5817 H         1 UNK         0.3000 
    170 H170       -2.2941  -18.0134  -45.2697 H         1 UNK         0.0600 
    171 H171       -2.9960  -17.8879  -42.2930 H         1 UNK         0.0600 
    172 H172       -4.1168  -17.5944  -43.6237 H         1 UNK         0.0600 
    173 H173       -3.4147  -19.1866  -43.4074 H         1 UNK         0.0600 
    174 H174       -2.3794  -15.7501  -43.5644 H         1 UNK         0.3000 
    175 H175       -0.2239  -13.7513  -45.6216 H         1 UNK         0.0600 
    176 H176       -2.2986  -12.4017  -45.5970 H         1 UNK         0.0600 
    177 H177       -3.2199  -13.7651  -44.9695 H         1 UNK         0.0600 
    178 H178       -2.5372  -13.8293  -46.5875 H         1 UNK         0.0600 
    179 H179       -1.2416  -12.6390  -43.5133 H         1 UNK         0.3000 
    180 H180       -0.5916  -12.6170  -41.2137 H         1 UNK         0.0600 
    181 H181        2.2227  -13.7999  -40.8989 H         1 UNK         0.0600 
    182 H182        0.7728  -14.3799  -40.0883 H         1 UNK         0.0600 
    183 H183        1.3913  -12.7753  -39.7293 H         1 UNK         0.0600 
    184 H184        2.0393  -11.7348  -42.1610 H         1 UNK         0.3000 
    185 H185        0.9954   -8.7597  -43.2911 H         1 UNK         0.0600 
    186 H186        3.4174   -9.0551  -43.7466 H         1 UNK         0.0600 
    187 H187        2.9949   -9.7379  -42.1888 H         1 UNK         0.0600 
    188 H188        3.2771  -10.7980  -43.5695 H         1 UNK         0.0600 
    189 H189        0.8156   -8.9041  -45.4931 H         1 UNK         0.3000 
    190 H190       -1.6471  -22.1965  -44.9857 H         1 UNK         0.3000 
    191 H191       -3.8425  -22.5266  -42.9940 H         1 UNK         0.0600 
    192 H192       -2.1261  -20.8803  -42.3740 H         1 UNK         0.0600 
    193 H193       -1.9667  -22.2918  -41.3459 H         1 UNK         0.0600 
    194 H194       -0.8347  -22.0370  -42.6695 H         1 UNK         0.0600 
    195 H195       -0.7763  -24.0583  -44.1156 H         1 UNK         0.3000 
    196 H196       -0.9756  -26.2662  -42.3526 H         1 UNK         0.0600 
    197 H197        1.0309  -27.0719  -43.5919 H         1 UNK         0.0600 
    198 H198        1.1681  -25.3627  -43.2077 H         1 UNK         0.0600 
    199 H199        0.7606  -25.8673  -44.8459 H         1 UNK         0.0600 
    200 H200       -1.7862  -25.9808  -45.8346 H         1 UNK         0.3000 
    201 H201       -2.7108  -28.8238  -45.8960 H         1 UNK         0.0600 
    202 H202       -1.0034  -28.1301  -47.5951 H         1 UNK         0.0600 
    203 H203       -2.0963  -26.8805  -48.1861 H         1 UNK         0.0600 
    204 H204       -2.5307  -28.5752  -48.3381 H         1 UNK         0.0600 
    205 H205       -3.8650  -25.7052  -45.4472 H         1 UNK         0.3000 
    206 H206       -5.7803  -24.6050  -45.5412 H         1 UNK         0.0600 
    207 H207       -6.7215  -26.5626  -44.2972 H         1 UNK         0.0600 
    208 H208       -7.9229  -25.7781  -45.3089 H         1 UNK         0.0600 
    209 H209       -7.2077  -27.2983  -45.8244 H         1 UNK         0.0600 
    210 H210       -4.2521  -24.8595  -47.8942 H         1 UNK         0.3000 
    211 H211       -5.8254  -25.4502  -50.2091 H         1 UNK         0.0600 
    212 H212       -3.2492  -23.8098  -49.9052 H         1 UNK         0.0600 
    213 H213       -3.8618  -24.4796  -51.4074 H         1 UNK         0.0600 
    214 H214       -3.3189  -25.5575  -50.1297 H         1 UNK         0.0600 
    215 H215       -6.4461  -23.9905  -51.8921 H         1 UNK         0.3000 
    216 H216       -7.5259  -21.3746  -51.1360 H         1 UNK         0.0600 
    217 H217       -8.1414  -21.3059  -53.5604 H         1 UNK         0.0600 
    218 H218       -8.6757  -22.8149  -52.8385 H         1 UNK         0.0600 
    219 H219       -7.2358  -22.7852  -53.8561 H         1 UNK         0.0600 
    220 H220       -6.6752  -19.3695  -51.9428 H         1 UNK         0.3000 
    221 H221       -3.9125  -19.0778  -51.8100 H         1 UNK         0.0600 
    222 H222       -5.9736  -17.1617  -53.0242 H         1 UNK         0.0600 
    223 H223       -5.5044  -17.2442  -51.3262 H         1 UNK         0.0600 
    224 H224       -4.3408  -16.7242  -52.5324 H         1 UNK         0.0600 
    225 H225       -5.9540  -19.3380  -54.7007 H         1 UNK         0.3000 
    226 H226       -3.9474  -18.8370  -56.6650 H         1 UNK         0.0600 
    227 H227       -6.3770  -18.6378  -57.1198 H         1 UNK         0.0600 
    228 H228       -5.6512  -19.7997  -58.2182 H         1 UNK         0.0600 
    229 H229       -6.5979  -20.3671  -56.8477 H         1 UNK         0.0600 
    230 H230       -4.6994  -21.7170  -54.7935 H         1 UNK         0.3000 
    231 H231       -3.1956  -23.5366  -56.5706 H         1 UNK         0.0600 
    232 H232       -4.5639  -24.0303  -53.8720 H         1 UNK         0.0600 
    233 H233       -3.8418  -25.2514  -54.9084 H         1 UNK         0.0600 
    234 H234       -5.2596  -24.3694  -55.4551 H         1 UNK         0.0600 
    235 H235       -2.9444  -21.9257  -53.3938 H         1 UNK         0.3000 
    236 H236       -0.4961  -23.0643  -52.5526 H         1 UNK         0.0600 
    237 H237       -2.0356  -21.9958  -50.9795 H         1 UNK         0.0600 
    238 H238       -0.5180  -21.1057  -50.9357 H         1 UNK         0.0600 
    239 H239       -1.8956  -20.4531  -51.8087 H         1 UNK         0.0600 
    240 H240       -1.1161  -19.8814  -54.1459 H         1 UNK         0.3000 
    241 H241        1.4411  -19.9056  -55.4393 H         1 UNK         0.0600 
    242 H242       -1.4680  -17.5357  -56.7112 H         1 UNK         0.3800 
    243 H243       -1.7647  -18.5728  -55.3365 H         1 UNK         0.3800 
    244 H244        2.5960  -19.1965  -53.6046 H         1 UNK         0.0800 
    245 H245        2.2405  -17.6579  -54.3015 H         1 UNK         0.0800 
    246 H246       -0.9648  -17.3775  -53.3504 H         1 UNK         0.0800 
    247 H247        0.1495  -16.0319  -53.2433 H         1 UNK         0.0800 
@<TRIPOS>BOND
     1    1    2 1    
     2    1  127 1    
     3    1  128 1    
     4    1  129 1    
     5    2    3 2    
     6    2    4 am   BACKBONE|DICT|INTERRES
     7    4    5 1    
     8    4  130 1    
     9    5    6 1    
    10    5   65 1    
    11    5  131 1    
    12    6    7 1    
    13    6  132 1    
    14    6  133 1    
    15    7    8 1    
    16    8    9 1    
    17    8  134 1    
    18    8  135 1    
    19    9   10 ar   
    20    9   14 ar   
    21   10   11 ar   
    22   10  136 1    
    23   11   12 ar   
    24   11  126 1    
    25   12   13 ar   
    26   12  137 1    
    27   13   14 ar   
    28   13   15 1    
    29   14  138 1    
    30   15   16 1    
    31   15  139 1    
    32   15  140 1    
    33   16   17 1    
    34   17   18 1    
    35   17  141 1    
    36   17  142 1    
    37   18   19 1    
    38   18   67 1    
    39   18  143 1    
    40   19   20 am   BACKBONE|DICT|INTERRES
    41   19  144 1    
    42   20   21 2    
    43   20   22 1    
    44   22   23 1    
    45   22   24 1    
    46   22  145 1    
    47   23  146 1    
    48   23  147 1    
    49   23  148 1    
    50   24   25 am   BACKBONE|DICT|INTERRES
    51   24  149 1    
    52   25   26 2    
    53   25   27 1    
    54   27   28 1    
    55   27   29 1    
    56   27  150 1    
    57   28  151 1    
    58   28  152 1    
    59   28  153 1    
    60   29   30 am   BACKBONE|DICT|INTERRES
    61   29  154 1    
    62   30   31 2    
    63   30   32 1    
    64   32   33 1    
    65   32   34 1    
    66   32  155 1    
    67   33  156 1    
    68   33  157 1    
    69   33  158 1    
    70   34   35 am   BACKBONE|DICT|INTERRES
    71   34  159 1    
    72   35   36 2    
    73   35   37 1    
    74   37   38 1    
    75   37   39 1    
    76   37  160 1    
    77   38  161 1    
    78   38  162 1    
    79   38  163 1    
    80   39   40 am   BACKBONE|DICT|INTERRES
    81   39  164 1    
    82   40   41 2    
    83   40   42 1    
    84   42   43 1    
    85   42   44 1    
    86   42  165 1    
    87   43  166 1    
    88   43  167 1    
    89   43  168 1    
    90   44   45 am   BACKBONE|DICT|INTERRES
    91   44  169 1    
    92   45   46 2    
    93   45   47 1    
    94   47   48 1    
    95   47   49 1    
    96   47  170 1    
    97   48  171 1    
    98   48  172 1    
    99   48  173 1    
   100   49   50 am   BACKBONE|DICT|INTERRES
   101   49  174 1    
   102   50   51 2    
   103   50   52 1    
   104   52   53 1    
   105   52   54 1    
   106   52  175 1    
   107   53  176 1    
   108   53  177 1    
   109   53  178 1    
   110   54   55 am   BACKBONE|DICT|INTERRES
   111   54  179 1    
   112   55   56 2    
   113   55   57 1    
   114   57   58 1    
   115   57   59 1    
   116   57  180 1    
   117   58  181 1    
   118   58  182 1    
   119   58  183 1    
   120   59   60 am   BACKBONE|DICT|INTERRES
   121   59  184 1    
   122   60   61 2    
   123   60   62 1    
   124   62   63 1    
   125   62   64 1    
   126   62  185 1    
   127   63  186 1    
   128   63  187 1    
   129   63  188 1    
   130   64   65 am   BACKBONE|DICT|INTERRES
   131   64  189 1    
   132   65   66 2    
   133   67   68 2    
   134   67   69 am   BACKBONE|DICT|INTERRES
   135   69   70 1    
   136   69  190 1    
   137   70   71 1    
   138   70   72 1    
   139   70  191 1    
   140   71  192 1    
   141   71  193 1    
   142   71  194 1    
   143   72   73 2    
   144   72   74 am   BACKBONE|DICT|INTERRES
   145   74   75 1    
   146   74  195 1    
   147   75   76 1    
   148   75   77 1    
   149   75  196 1    
   150   76  197 1    
   151   76  198 1    
   152   76  199 1    
   153   77   78 2    
   154   77   79 am   BACKBONE|DICT|INTERRES
   155   79   80 1    
   156   79  200 1    
   157   80   81 1    
   158   80   82 1    
   159   80  201 1    
   160   81  202 1    
   161   81  203 1    
   162   81  204 1    
   163   82   83 2    
   164   82   84 am   BACKBONE|DICT|INTERRES
   165   84   85 1    
   166   84  205 1    
   167   85   86 1    
   168   85   87 1    
   169   85  206 1    
   170   86  207 1    
   171   86  208 1    
   172   86  209 1    
   173   87   88 2    
   174   87   89 am   BACKBONE|DICT|INTERRES
   175   89   90 1    
   176   89  210 1    
   177   90   91 1    
   178   90   92 1    
   179   90  211 1    
   180   91  212 1    
   181   91  213 1    
   182   91  214 1    
   183   92   93 2    
   184   92   94 am   BACKBONE|DICT|INTERRES
   185   94   95 1    
   186   94  215 1    
   187   95   96 1    
   188   95   97 1    
   189   95  216 1    
   190   96  217 1    
   191   96  218 1    
   192   96  219 1    
   193   97   98 2    
   194   97   99 am   BACKBONE|DICT|INTERRES
   195   99  100 1    
   196   99  220 1    
   197  100  101 1    
   198  100  102 1    
   199  100  221 1    
   200  101  222 1    
   201  101  223 1    
   202  101  224 1    
   203  102  103 2    
   204  102  104 am   BACKBONE|DICT|INTERRES
   205  104  105 1    
   206  104  225 1    
   207  105  106 1    
   208  105  107 1    
   209  105  226 1    
   210  106  227 1    
   211  106  228 1    
   212  106  229 1    
   213  107  108 2    
   214  107  109 am   BACKBONE|DICT|INTERRES
   215  109  110 1    
   216  109  230 1    
   217  110  111 1    
   218  110  112 1    
   219  110  231 1    
   220  111  232 1    
   221  111  233 1    
   222  111  234 1    
   223  112  113 2    
   224  112  114 am   BACKBONE|DICT|INTERRES
   225  114  115 1    
   226  114  235 1    
   227  115  116 1    
   228  115  117 1    
   229  115  236 1    
   230  116  237 1    
   231  116  238 1    
   232  116  239 1    
   233  117  118 2    
   234  117  119 am   BACKBONE|DICT|INTERRES
   235  119  120 1    
   236  119  240 1    
   237  120  121 1    
   238  120  124 1    
   239  120  241 1    
   240  121  122 am   BACKBONE|DICT|INTERRES
   241  121  123 2    
   242  122  242 1    
   243  122  243 1    
   244  124  125 1    
   245  124  244 1    
   246  124  245 1    
   247  125  126 1    
   248  126  246 1    
   249  126  247 1    
@<TRIPOS>SUBSTRUCTURE
     1 UNK         1 GROUP             0       ****    0 ROOT    
