@<TRIPOS>MOLECULE
3R540
247   249    1
SMALL
USER_CHARGES


@<TRIPOS>ATOM
      1 CA         -1.9027  -13.0289  -54.9552 C.3       0 UNK        -0.1800 
      2 C          -0.8163  -12.7927  -53.9154 C.2       0 UNK         0.5000 
      3 O          -0.3588  -11.6608  -53.7541 O.2       0 UNK        -0.5000 
      4 N          -0.4018  -13.8533  -53.2149 N.am      1 UNK        -0.5000 
      5 CA          0.5447  -13.8017  -52.0986 C.3       1 UNK         0.1400 
      6 C6          1.3064  -15.1464  -51.9510 C.3       23 UNK        -0.0398 
      7 S7          3.0471  -14.9608  -51.4175 S.3       23 UNK        -0.2404 
      8 C8          3.0028  -15.0914  -49.5969 C.3       23 UNK        -0.0205 
      9 C9          2.2844  -16.3361  -49.1006 C.ar      23 UNK        -0.0193 
     10 C10         0.9583  -16.2448  -48.6785 C.ar      23 UNK        -0.1150 
     11 C11         0.2724  -17.3799  -48.2543 C.ar      23 UNK        -0.0193 
     12 C12         0.9299  -18.6122  -48.2217 C.ar      23 UNK        -0.1150 
     13 C13         2.2726  -18.7222  -48.6098 C.ar      23 UNK        -0.0193 
     14 C14         2.9378  -17.5716  -49.0524 C.ar      23 UNK        -0.1150 
     15 C15         3.0600  -20.0371  -48.5538 C.3       23 UNK        -0.0205 
     16 S16         2.0867  -21.5839  -48.4622 S.3       23 UNK        -0.2404 
     17 C17         1.6309  -21.6220  -46.6994 C.3       23 UNK        -0.0398 
     18 CA          0.4693  -22.5772  -46.3335 C.3       11 UNK         0.1400 
     19 N           0.3283  -22.6501  -44.8788 N.am      11 UNK        -0.5000 
     20 C          -0.4165  -23.5359  -44.2076 C.2       10 UNK         0.5000 
     21 O          -1.0438  -24.4472  -44.7459 O.2       10 UNK        -0.5000 
     22 CA         -0.5099  -23.3323  -42.6828 C.3       10 UNK         0.1400 
     23 CB          0.7254  -23.9072  -41.9742 C.3       10 UNK        -0.1800 
     24 N          -0.6707  -21.9215  -42.3204 N.am      10 UNK        -0.5000 
     25 C          -1.7462  -21.1841  -42.6324 C.2       9 UNK         0.5000 
     26 O          -2.7441  -21.6437  -43.1890 O.2       9 UNK        -0.5000 
     27 CA         -1.6749  -19.6756  -42.3215 C.3       9 UNK         0.1400 
     28 CB         -2.0110  -19.3966  -40.8493 C.3       9 UNK        -0.1800 
     29 N          -0.3725  -19.0911  -42.6500 N.am      9 UNK        -0.5000 
     30 C           0.1301  -19.0139  -43.8900 C.2       8 UNK         0.5000 
     31 O          -0.4767  -19.3807  -44.8916 O.2       8 UNK        -0.5000 
     32 CA          1.5717  -18.5019  -44.0388 C.3       8 UNK         0.1400 
     33 CB          1.6117  -16.9703  -44.1027 C.3       8 UNK        -0.1800 
     34 N           2.4398  -18.9945  -42.9698 N.am      8 UNK        -0.5000 
     35 C           2.8135  -20.2759  -42.8376 C.2       7 UNK         0.5000 
     36 O           2.4977  -21.1622  -43.6296 O.2       7 UNK        -0.5000 
     37 CA          3.6360  -20.6372  -41.5877 C.3       7 UNK         0.1400 
     38 CB          5.1280  -20.3606  -41.8237 C.3       7 UNK        -0.1800 
     39 N           3.1897  -19.9101  -40.3998 N.am      7 UNK        -0.5000 
     40 C           1.9924  -20.0683  -39.8168 C.2       6 UNK         0.5000 
     41 O           1.1639  -20.9059  -40.1742 O.2       6 UNK        -0.5000 
     42 CA          1.6445  -19.0749  -38.6899 C.3       6 UNK         0.1400 
     43 CB          2.1482  -19.5938  -37.3353 C.3       6 UNK        -0.1800 
     44 N           2.1871  -17.7323  -38.9331 N.am      6 UNK        -0.5000 
     45 C           1.8311  -16.9550  -39.9648 C.2       5 UNK         0.5000 
     46 O           0.9741  -17.2801  -40.7888 O.2       5 UNK        -0.5000 
     47 CA          2.6286  -15.6491  -40.1510 C.3       5 UNK         0.1400 
     48 CB          3.9813  -15.9487  -40.8185 C.3       5 UNK        -0.1800 
     49 N           1.9233  -14.6590  -40.9675 N.am      5 UNK        -0.5000 
     50 C           0.8070  -14.0155  -40.6017 C.2       4 UNK         0.5000 
     51 O           0.2608  -14.1774  -39.5089 O.2       4 UNK        -0.5000 
     52 CA          0.2100  -12.9999  -41.5972 C.3       4 UNK         0.1400 
     53 CB          0.0831  -11.6118  -40.9446 C.3       4 UNK        -0.1800 
     54 N           0.9972  -12.8556  -42.8294 N.am      4 UNK        -0.5000 
     55 C           0.5981  -13.2676  -44.0385 C.2       3 UNK         0.5000 
     56 O          -0.4292  -13.9211  -44.2402 O.2       3 UNK        -0.5000 
     57 CA          1.4778  -12.8609  -45.2322 C.3       3 UNK         0.1400 
     58 CB          2.6273  -13.8597  -45.4649 C.3       3 UNK        -0.1800 
     59 N           0.6178  -12.7830  -46.4077 N.am      3 UNK        -0.5000 
     60 C           0.9245  -12.2478  -47.5914 C.2       2 UNK         0.5000 
     61 O           2.0194  -11.7533  -47.8697 O.2       2 UNK        -0.5000 
     62 CA         -0.1896  -12.2597  -48.6441 C.3       2 UNK         0.1400 
     63 CB         -0.8621  -10.8820  -48.7587 C.3       2 UNK        -0.1800 
     64 N           0.3765  -12.6396  -49.9354 N.am      2 UNK        -0.5000 
     65 C          -0.2312  -13.4409  -50.8156 C.2       1 UNK         0.5000 
     66 O          -1.3566  -13.9123  -50.6348 O.2       1 UNK        -0.5000 
     67 C          -0.8762  -22.2428  -47.0280 C.2       11 UNK         0.5000 
     68 O          -1.1897  -22.8416  -48.0563 O.2       11 UNK        -0.5000 
     69 N          -1.6862  -21.3568  -46.4285 N.am      12 UNK        -0.5000 
     70 CA         -3.0480  -21.0372  -46.8653 C.3       12 UNK         0.1400 
     71 CB         -3.6104  -19.8558  -46.0583 C.3       12 UNK        -0.1800 
     72 C          -3.9977  -22.2392  -46.7655 C.2       12 UNK         0.5000 
     73 O          -4.7357  -22.5040  -47.7144 O.2       12 UNK        -0.5000 
     74 N          -3.9311  -22.9710  -45.6438 N.am      13 UNK        -0.5000 
     75 CA         -4.6904  -24.2028  -45.4094 C.3       13 UNK         0.1400 
     76 CB         -4.5070  -24.6474  -43.9506 C.3       13 UNK        -0.1800 
     77 C          -4.3160  -25.3375  -46.3849 C.2       13 UNK         0.5000 
     78 O          -5.1801  -26.1329  -46.7545 O.2       13 UNK        -0.5000 
     79 N          -3.0485  -25.3620  -46.8172 N.am      14 UNK        -0.5000 
     80 CA         -2.5217  -26.2537  -47.8512 C.3       14 UNK         0.1400 
     81 CB         -1.0009  -26.3788  -47.6619 C.3       14 UNK        -0.1800 
     82 C          -2.8615  -25.8060  -49.2916 C.2       14 UNK         0.5000 
     83 O          -2.5520  -26.5476  -50.2247 O.2       14 UNK        -0.5000 
     84 N          -3.4821  -24.6251  -49.4498 N.am      15 UNK        -0.5000 
     85 CA         -3.8486  -23.9541  -50.7001 C.3       15 UNK         0.1400 
     86 CB         -4.9105  -24.7571  -51.4797 C.3       15 UNK        -0.1800 
     87 C          -2.6101  -23.6100  -51.5473 C.2       15 UNK         0.5000 
     88 O          -2.3668  -24.2357  -52.5798 O.2       15 UNK        -0.5000 
     89 N          -1.8494  -22.6143  -51.0758 N.am      16 UNK        -0.5000 
     90 CA         -0.6066  -22.0892  -51.6502 C.3       16 UNK         0.1400 
     91 CB         -0.2430  -20.7958  -50.9065 C.3       16 UNK        -0.1800 
     92 C          -0.6394  -21.8108  -53.1669 C.2       16 UNK         0.5000 
     93 O           0.3380  -22.1042  -53.8563 O.2       16 UNK        -0.5000 
     94 N          -1.7583  -21.2611  -53.6550 N.am      17 UNK        -0.5000 
     95 CA         -1.9883  -20.9277  -55.0617 C.3       17 UNK         0.1400 
     96 CB         -2.6389  -19.5363  -55.1306 C.3       17 UNK        -0.1800 
     97 C          -2.8382  -21.9862  -55.7949 C.2       17 UNK         0.5000 
     98 O          -3.2780  -21.7284  -56.9156 O.2       17 UNK        -0.5000 
     99 N          -3.0819  -23.1427  -55.1586 N.am      18 UNK        -0.5000 
    100 CA        -3.8880  -24.2963  -55.5902 C.3       18 UNK         0.1400 
    101 CB        -3.3926  -24.8735  -56.9301 C.3       18 UNK        -0.1800 
    102 C         -5.4099  -24.0460  -55.6138 C.2       18 UNK         0.5000 
    103 O         -6.1745  -24.9657  -55.3203 O.2       18 UNK        -0.5000 
    104 N         -5.8256  -22.8168  -55.9242 N.am      19 UNK        -0.5000 
    105 CA        -7.1908  -22.3156  -55.8529 C.3       19 UNK         0.1400 
    106 CB        -7.8322  -22.3733  -57.2485 C.3       19 UNK        -0.1800 
    107 C         -7.1373  -20.8760  -55.3235 C.2       19 UNK         0.5000 
    108 O         -6.1238  -20.1982  -55.5085 O.2       19 UNK        -0.5000 
    109 N         -8.2268  -20.4407  -54.6744 N.am      20 UNK        -0.5000 
    110 CA        -8.3948  -19.1294  -54.0298 C.3       20 UNK         0.1400 
    111 CB        -8.4249  -17.9988  -55.0804 C.3       20 UNK        -0.1800 
    112 C         -7.3696  -18.8777  -52.9007 C.2       20 UNK         0.5000 
    113 O         -6.8814  -17.7557  -52.7445 O.2       20 UNK        -0.5000 
    114 N         -7.0658  -19.9433  -52.1417 N.am      21 UNK        -0.5000 
    115 CA        -6.0974  -20.0220  -51.0445 C.3       21 UNK         0.1400 
    116 CB        -6.5987  -19.2447  -49.8076 C.3       21 UNK        -0.1800 
    117 C         -4.6814  -19.6151  -51.4947 C.2       21 UNK         0.5000 
    118 O         -3.9557  -20.4589  -52.0218 O.2       21 UNK        -0.5000 
    119 N         -4.3300  -18.3436  -51.2795 N.am      22 UNK        -0.5000 
    120 CA        -3.0344  -17.7361  -51.6185 C.3       22 UNK         0.1400 
    121 C         -3.1114  -16.7506  -52.8189 C.2       22 UNK         0.5000 
    122 N         -4.2707  -16.5271  -53.4281 N.am      22 UNK        -0.7600 
    123 O         -2.0923  -16.1975  -53.2246 O.2       22 UNK        -0.5000 
    124 C124       -2.3783  -17.0637  -50.3829 C.3       23 UNK        -0.0398 
    125 S125       -2.2852  -18.1781  -48.9421 S.3       23 UNK        -0.2404 
    126 C126       -1.1781  -17.2717  -47.8215 C.3       23 UNK        -0.0205 
    127 H127       -2.8075  -12.4861  -54.6820 H         1 UNK         0.0600 
    128 H128       -2.1539  -14.0860  -55.0451 H         1 UNK         0.0600 
    129 H129       -1.5722  -12.6754  -55.9319 H         1 UNK         0.0600 
    130 H130       -0.9017  -14.7343  -53.3205 H         1 UNK         0.3000 
    131 H131        1.2690  -13.0102  -52.3036 H         1 UNK         0.0600 
    132 H132        0.7708  -15.8633  -51.3302 H         1 UNK         0.0800 
    133 H133        1.3668  -15.6324  -52.9260 H         1 UNK         0.0800 
    134 H134        2.5445  -14.1961  -49.1801 H         1 UNK         0.0800 
    135 H135        4.0280  -15.0958  -49.2240 H         1 UNK         0.0800 
    136 H136        0.4512  -15.2921  -48.6969 H         1 UNK         0.1150 
    137 H137        0.3700  -19.4744  -47.8965 H         1 UNK         0.1150 
    138 H138        3.9707  -17.6360  -49.3650 H         1 UNK         0.1150 
    139 H139        3.6832  -20.1049  -49.4467 H         1 UNK         0.0800 
    140 H140        3.7462  -19.9992  -47.7067 H         1 UNK         0.0800 
    141 H141        1.4135  -20.6161  -46.3499 H         1 UNK         0.0800 
    142 H142        2.5282  -21.9288  -46.1606 H         1 UNK         0.0800 
    143 H143        0.7542  -23.5761  -46.6701 H         1 UNK         0.0600 
    144 H144        0.8614  -21.9695  -44.3463 H         1 UNK         0.3000 
    145 H145       -1.3889  -23.8744  -42.3278 H         1 UNK         0.0600 
    146 H146        0.6350  -23.8174  -40.8915 H         1 UNK         0.0600 
    147 H147        1.6396  -23.3954  -42.2754 H         1 UNK         0.0600 
    148 H148        0.8497  -24.9659  -42.2048 H         1 UNK         0.0600 
    149 H149        0.0891  -21.4865  -41.8072 H         1 UNK         0.3000 
    150 H150       -2.4250  -19.1762  -42.9383 H         1 UNK         0.0600 
    151 H151       -3.0075  -19.7643  -40.6021 H         1 UNK         0.0600 
    152 H152       -1.9954  -18.3273  -40.6371 H         1 UNK         0.0600 
    153 H153       -1.3069  -19.8815  -40.1737 H         1 UNK         0.0600 
    154 H154        0.1673  -18.6998  -41.8843 H         1 UNK         0.3000 
    155 H155        1.9658  -18.8735  -44.9860 H         1 UNK         0.0600 
    156 H156        1.0372  -16.6124  -44.9581 H         1 UNK         0.0600 
    157 H157        2.6334  -16.6093  -44.2172 H         1 UNK         0.0600 
    158 H158        1.1850  -16.5061  -43.2151 H         1 UNK         0.0600 
    159 H159        2.6829  -18.3386  -42.2441 H         1 UNK         0.3000 
    160 H160        3.5094  -21.7058  -41.4014 H         1 UNK         0.0600 
    161 H161        5.3214  -19.3004  -41.9926 H         1 UNK         0.0600 
    162 H162        5.4915  -20.9040  -42.6969 H         1 UNK         0.0600 
    163 H163        5.7277  -20.6799  -40.9711 H         1 UNK         0.0600 
    164 H164        3.8139  -19.2075  -40.0332 H         1 UNK         0.3000 
    165 H165        0.5564  -18.9955  -38.6429 H         1 UNK         0.0600 
    166 H166        1.8399  -18.9366  -36.5220 H         1 UNK         0.0600 
    167 H167        1.7432  -20.5841  -37.1224 H         1 UNK         0.0600 
    168 H168        3.2359  -19.6717  -37.3111 H         1 UNK         0.0600 
    169 H169        2.8997  -17.4099  -38.2938 H         1 UNK         0.3000 
    170 H170        2.8095  -15.2136  -39.1661 H         1 UNK         0.0600 
    171 H171        4.5820  -15.0436  -40.9119 H         1 UNK         0.0600 
    172 H172        4.5647  -16.6600  -40.2327 H         1 UNK         0.0600 
    173 H173        3.8557  -16.3693  -41.8169 H         1 UNK         0.0600 
    174 H174        2.2863  -14.4906  -41.8926 H         1 UNK         0.3000 
    175 H175       -0.7980  -13.3508  -41.8277 H         1 UNK         0.0600 
    176 H176        1.0556  -11.2145  -40.6513 H         1 UNK         0.0600 
    177 H177       -0.3793  -10.8976  -41.6262 H         1 UNK         0.0600 
    178 H178       -0.5396  -11.6505  -40.0499 H         1 UNK         0.0600 
    179 H179        1.8550  -12.3272  -42.7480 H         1 UNK         0.3000 
    180 H180        1.8910  -11.8701  -45.0324 H         1 UNK         0.0600 
    181 H181        3.3554  -13.4632  -46.1724 H         1 UNK         0.0600 
    182 H182        2.2617  -14.8029  -45.8698 H         1 UNK         0.0600 
    183 H183        3.1637  -14.0749  -44.5401 H         1 UNK         0.0600 
    184 H184       -0.3082  -13.1604  -46.2424 H         1 UNK         0.3000 
    185 H185       -0.9407  -12.9897  -48.3333 H         1 UNK         0.0600 
    186 H186       -0.1536  -10.1136  -49.0708 H         1 UNK         0.0600 
    187 H187       -1.6759  -10.9011  -49.4838 H         1 UNK         0.0600 
    188 H188       -1.2849  -10.5724  -47.8022 H         1 UNK         0.0600 
    189 H189        1.3161  -12.3059  -50.1073 H         1 UNK         0.3000 
    190 H190       -1.3294  -20.8267  -45.6371 H         1 UNK         0.3000 
    191 H191       -2.9962  -20.7481  -47.9156 H         1 UNK         0.0600 
    192 H192       -2.9417  -18.9989  -46.0789 H         1 UNK         0.0600 
    193 H193       -3.7774  -20.1150  -45.0138 H         1 UNK         0.0600 
    194 H194       -4.5664  -19.5295  -46.4692 H         1 UNK         0.0600 
    195 H195       -3.3225  -22.6579  -44.8941 H         1 UNK         0.3000 
    196 H196       -5.7468  -23.9736  -45.5633 H         1 UNK         0.0600 
    197 H197       -4.8207  -23.8661  -43.2580 H         1 UNK         0.0600 
    198 H198       -3.4682  -24.8917  -43.7296 H         1 UNK         0.0600 
    199 H199       -5.1050  -25.5336  -43.7352 H         1 UNK         0.0600 
    200 H200       -2.3913  -24.7063  -46.4103 H         1 UNK         0.3000 
    201 H201       -2.9599  -27.2437  -47.7098 H         1 UNK         0.0600 
    202 H202       -0.7539  -26.7156  -46.6549 H         1 UNK         0.0600 
    203 H203       -0.4950  -25.4284  -47.8304 H         1 UNK         0.0600 
    204 H204       -0.5771  -27.1025  -48.3591 H         1 UNK         0.0600 
    205 H205       -3.6806  -24.0897  -48.6131 H         1 UNK         0.3000 
    206 H206       -4.3087  -23.0064  -50.4169 H         1 UNK         0.0600 
    207 H207       -4.5310  -25.7205  -51.8209 H         1 UNK         0.0600 
    208 H208       -5.7916  -24.9426  -50.8655 H         1 UNK         0.0600 
    209 H209       -5.2389  -24.2069  -52.3622 H         1 UNK         0.0600 
    210 H210       -2.0993  -22.2243  -50.1778 H         1 UNK         0.3000 
    211 H211        0.1697  -22.8315  -51.4568 H         1 UNK         0.0600 
    212 H212       -0.9191  -19.9821  -51.1576 H         1 UNK         0.0600 
    213 H213        0.7683  -20.4698  -51.1520 H         1 UNK         0.0600 
    214 H214       -0.2967  -20.9273  -49.8279 H         1 UNK         0.0600 
    215 H215       -2.5250  -21.0571  -53.0148 H         1 UNK         0.3000 
    216 H216       -1.0366  -20.8714  -55.5934 H         1 UNK         0.0600 
    217 H217       -2.8198  -19.2297  -56.1613 H         1 UNK         0.0600 
    218 H218       -1.9916  -18.7830  -54.6826 H         1 UNK         0.0600 
    219 H219       -3.5963  -19.5119  -54.6090 H         1 UNK         0.0600 
    220 H220       -2.6797  -23.2564  -54.2321 H         1 UNK         0.3000 
    221 H221       -3.7197  -25.0612  -54.8306 H         1 UNK         0.0600 
    222 H222       -3.5751  -24.1937  -57.7625 H         1 UNK         0.0600 
    223 H223       -2.3243  -25.0874  -56.8968 H         1 UNK         0.0600 
    224 H224       -3.9044  -25.8086  -57.1601 H         1 UNK         0.0600 
    225 H225       -5.1277  -22.1132  -56.1479 H         1 UNK         0.3000 
    226 H226       -7.7746  -22.9204  -55.1557 H         1 UNK         0.0600 
    227 H227       -7.8682  -23.3966  -57.6228 H         1 UNK         0.0600 
    228 H228       -8.8561  -21.9985  -57.2253 H         1 UNK         0.0600 
    229 H229       -7.2770  -21.7723  -57.9699 H         1 UNK         0.0600 
    230 H230       -9.0130  -21.0697  -54.5836 H         1 UNK         0.3000 
    231 H231       -9.3725  -19.1494  -53.5463 H         1 UNK         0.0600 
    232 H232       -8.6924  -17.0464  -54.6212 H         1 UNK         0.0600 
    233 H233       -9.1621  -18.2016  -55.8571 H         1 UNK         0.0600 
    234 H234       -7.4562  -17.8662  -55.5631 H         1 UNK         0.0600 
    235 H235       -7.5083  -20.8176  -52.3849 H         1 UNK         0.3000 
    236 H236       -6.0353  -21.0737  -50.7606 H         1 UNK         0.0600 
    237 H237       -6.7873  -18.1926  -50.0223 H         1 UNK         0.0600 
    238 H238       -7.5277  -19.6735  -49.4320 H         1 UNK         0.0600 
    239 H239       -5.8715  -19.2929  -48.9956 H         1 UNK         0.0600 
    240 H240       -5.0179  -17.7190  -50.8852 H         1 UNK         0.3000 
    241 H241       -2.3593  -18.5189  -51.9607 H         1 UNK         0.0600 
    242 H242       -4.3015  -15.8970  -54.2121 H         1 UNK         0.3800 
    243 H243       -5.1217  -16.9945  -53.1287 H         1 UNK         0.3800 
    244 H244       -2.9354  -16.1724  -50.0899 H         1 UNK         0.0800 
    245 H245       -1.3689  -16.7318  -50.6271 H         1 UNK         0.0800 
    246 H246       -1.2667  -17.6788  -46.8154 H         1 UNK         0.0800 
    247 H247       -1.4990  -16.2307  -47.7588 H         1 UNK         0.0800 
@<TRIPOS>BOND
     1    1    2 1    
     2    1  127 1    
     3    1  128 1    
     4    1  129 1    
     5    2    3 2    
     6    2    4 am   BACKBONE|DICT|INTERRES
     7    4    5 1    
     8    4  130 1    
     9    5    6 1    
    10    5   65 1    
    11    5  131 1    
    12    6    7 1    
    13    6  132 1    
    14    6  133 1    
    15    7    8 1    
    16    8    9 1    
    17    8  134 1    
    18    8  135 1    
    19    9   10 ar   
    20    9   14 ar   
    21   10   11 ar   
    22   10  136 1    
    23   11   12 ar   
    24   11  126 1    
    25   12   13 ar   
    26   12  137 1    
    27   13   14 ar   
    28   13   15 1    
    29   14  138 1    
    30   15   16 1    
    31   15  139 1    
    32   15  140 1    
    33   16   17 1    
    34   17   18 1    
    35   17  141 1    
    36   17  142 1    
    37   18   19 1    
    38   18   67 1    
    39   18  143 1    
    40   19   20 am   BACKBONE|DICT|INTERRES
    41   19  144 1    
    42   20   21 2    
    43   20   22 1    
    44   22   23 1    
    45   22   24 1    
    46   22  145 1    
    47   23  146 1    
    48   23  147 1    
    49   23  148 1    
    50   24   25 am   BACKBONE|DICT|INTERRES
    51   24  149 1    
    52   25   26 2    
    53   25   27 1    
    54   27   28 1    
    55   27   29 1    
    56   27  150 1    
    57   28  151 1    
    58   28  152 1    
    59   28  153 1    
    60   29   30 am   BACKBONE|DICT|INTERRES
    61   29  154 1    
    62   30   31 2    
    63   30   32 1    
    64   32   33 1    
    65   32   34 1    
    66   32  155 1    
    67   33  156 1    
    68   33  157 1    
    69   33  158 1    
    70   34   35 am   BACKBONE|DICT|INTERRES
    71   34  159 1    
    72   35   36 2    
    73   35   37 1    
    74   37   38 1    
    75   37   39 1    
    76   37  160 1    
    77   38  161 1    
    78   38  162 1    
    79   38  163 1    
    80   39   40 am   BACKBONE|DICT|INTERRES
    81   39  164 1    
    82   40   41 2    
    83   40   42 1    
    84   42   43 1    
    85   42   44 1    
    86   42  165 1    
    87   43  166 1    
    88   43  167 1    
    89   43  168 1    
    90   44   45 am   BACKBONE|DICT|INTERRES
    91   44  169 1    
    92   45   46 2    
    93   45   47 1    
    94   47   48 1    
    95   47   49 1    
    96   47  170 1    
    97   48  171 1    
    98   48  172 1    
    99   48  173 1    
   100   49   50 am   BACKBONE|DICT|INTERRES
   101   49  174 1    
   102   50   51 2    
   103   50   52 1    
   104   52   53 1    
   105   52   54 1    
   106   52  175 1    
   107   53  176 1    
   108   53  177 1    
   109   53  178 1    
   110   54   55 am   BACKBONE|DICT|INTERRES
   111   54  179 1    
   112   55   56 2    
   113   55   57 1    
   114   57   58 1    
   115   57   59 1    
   116   57  180 1    
   117   58  181 1    
   118   58  182 1    
   119   58  183 1    
   120   59   60 am   BACKBONE|DICT|INTERRES
   121   59  184 1    
   122   60   61 2    
   123   60   62 1    
   124   62   63 1    
   125   62   64 1    
   126   62  185 1    
   127   63  186 1    
   128   63  187 1    
   129   63  188 1    
   130   64   65 am   BACKBONE|DICT|INTERRES
   131   64  189 1    
   132   65   66 2    
   133   67   68 2    
   134   67   69 am   BACKBONE|DICT|INTERRES
   135   69   70 1    
   136   69  190 1    
   137   70   71 1    
   138   70   72 1    
   139   70  191 1    
   140   71  192 1    
   141   71  193 1    
   142   71  194 1    
   143   72   73 2    
   144   72   74 am   BACKBONE|DICT|INTERRES
   145   74   75 1    
   146   74  195 1    
   147   75   76 1    
   148   75   77 1    
   149   75  196 1    
   150   76  197 1    
   151   76  198 1    
   152   76  199 1    
   153   77   78 2    
   154   77   79 am   BACKBONE|DICT|INTERRES
   155   79   80 1    
   156   79  200 1    
   157   80   81 1    
   158   80   82 1    
   159   80  201 1    
   160   81  202 1    
   161   81  203 1    
   162   81  204 1    
   163   82   83 2    
   164   82   84 am   BACKBONE|DICT|INTERRES
   165   84   85 1    
   166   84  205 1    
   167   85   86 1    
   168   85   87 1    
   169   85  206 1    
   170   86  207 1    
   171   86  208 1    
   172   86  209 1    
   173   87   88 2    
   174   87   89 am   BACKBONE|DICT|INTERRES
   175   89   90 1    
   176   89  210 1    
   177   90   91 1    
   178   90   92 1    
   179   90  211 1    
   180   91  212 1    
   181   91  213 1    
   182   91  214 1    
   183   92   93 2    
   184   92   94 am   BACKBONE|DICT|INTERRES
   185   94   95 1    
   186   94  215 1    
   187   95   96 1    
   188   95   97 1    
   189   95  216 1    
   190   96  217 1    
   191   96  218 1    
   192   96  219 1    
   193   97   98 2    
   194   97   99 am   BACKBONE|DICT|INTERRES
   195   99  100 1    
   196   99  220 1    
   197  100  101 1    
   198  100  102 1    
   199  100  221 1    
   200  101  222 1    
   201  101  223 1    
   202  101  224 1    
   203  102  103 2    
   204  102  104 am   BACKBONE|DICT|INTERRES
   205  104  105 1    
   206  104  225 1    
   207  105  106 1    
   208  105  107 1    
   209  105  226 1    
   210  106  227 1    
   211  106  228 1    
   212  106  229 1    
   213  107  108 2    
   214  107  109 am   BACKBONE|DICT|INTERRES
   215  109  110 1    
   216  109  230 1    
   217  110  111 1    
   218  110  112 1    
   219  110  231 1    
   220  111  232 1    
   221  111  233 1    
   222  111  234 1    
   223  112  113 2    
   224  112  114 am   BACKBONE|DICT|INTERRES
   225  114  115 1    
   226  114  235 1    
   227  115  116 1    
   228  115  117 1    
   229  115  236 1    
   230  116  237 1    
   231  116  238 1    
   232  116  239 1    
   233  117  118 2    
   234  117  119 am   BACKBONE|DICT|INTERRES
   235  119  120 1    
   236  119  240 1    
   237  120  121 1    
   238  120  124 1    
   239  120  241 1    
   240  121  122 am   BACKBONE|DICT|INTERRES
   241  121  123 2    
   242  122  242 1    
   243  122  243 1    
   244  124  125 1    
   245  124  244 1    
   246  124  245 1    
   247  125  126 1    
   248  126  246 1    
   249  126  247 1    
@<TRIPOS>SUBSTRUCTURE
     1 UNK         1 GROUP             0       ****    0 ROOT    
