@<TRIPOS>MOLECULE
3R540
247   249    1
SMALL
USER_CHARGES


@<TRIPOS>ATOM
      1 CA          5.7498  -12.9161  -51.7070 C.3       0 UNK        -0.1800 
      2 C           5.1581  -12.7403  -50.3154 C.2       0 UNK         0.5000 
      3 O           3.9366  -12.7751  -50.1739 O.2       0 UNK        -0.5000 
      4 N           6.0297  -12.5615  -49.3098 N.am      1 UNK        -0.5000 
      5 CA          5.7506  -12.3733  -47.8772 C.3       1 UNK         0.1400 
      6 C6          5.6884  -13.7103  -47.0716 C.3       23 UNK        -0.0398 
      7 S7          4.2726  -14.8201  -47.3962 S.3       23 UNK        -0.2404 
      8 C8          4.9645  -15.9798  -48.6205 C.3       23 UNK        -0.0205 
      9 C9          3.8875  -16.7747  -49.3516 C.ar      23 UNK        -0.0193 
     10 C10         2.7576  -16.1338  -49.8714 C.ar      23 UNK        -0.1150 
     11 C11         1.7824  -16.8518  -50.5663 C.ar      23 UNK        -0.0193 
     12 C12         1.9515  -18.2248  -50.7640 C.ar      23 UNK        -0.1150 
     13 C13         3.0893  -18.8754  -50.2771 C.ar      23 UNK        -0.0193 
     14 C14         4.0463  -18.1483  -49.5610 C.ar      23 UNK        -0.1150 
     15 C15         3.3123  -20.3521  -50.5702 C.3       23 UNK        -0.0205 
     16 S16         2.8761  -21.4137  -49.1617 S.3       23 UNK        -0.2404 
     17 C17         1.0597  -21.2616  -49.1447 C.3       23 UNK        -0.0398 
     18 CA          0.4101  -22.3389  -48.2464 C.3       11 UNK         0.1400 
     19 N           0.7163  -22.1482  -46.8246 N.am      11 UNK        -0.5000 
     20 C           0.4296  -23.0354  -45.8621 C.2       10 UNK         0.5000 
     21 O          -0.0908  -24.1293  -46.0763 O.2       10 UNK        -0.5000 
     22 CA          0.7262  -22.6200  -44.4112 C.3       10 UNK         0.1400 
     23 CB          2.2131  -22.8118  -44.0782 C.3       10 UNK        -0.1800 
     24 N           0.3185  -21.2444  -44.1244 N.am      10 UNK        -0.5000 
     25 C          -0.9488  -20.8075  -44.1611 C.2       9 UNK         0.5000 
     26 O          -1.9134  -21.5330  -44.4001 O.2       9 UNK        -0.5000 
     27 CA         -1.1798  -19.3017  -43.9408 C.3       9 UNK         0.1400 
     28 CB         -1.1337  -18.9502  -42.4467 C.3       9 UNK        -0.1800 
     29 N          -0.2251  -18.4705  -44.6710 N.am      9 UNK        -0.5000 
     30 C          -0.0945  -18.4506  -46.0054 C.2       8 UNK         0.5000 
     31 O          -0.7902  -19.1116  -46.7772 O.2       8 UNK        -0.5000 
     32 CA          1.0442  -17.5827  -46.5644 C.3       8 UNK         0.1400 
     33 CB          0.6432  -16.1032  -46.5527 C.3       8 UNK        -0.1800 
     34 N           2.2950  -17.7551  -45.8255 N.am      8 UNK        -0.5000 
     35 C           2.9592  -18.9134  -45.7126 C.2       7 UNK         0.5000 
     36 O           2.5975  -19.9661  -46.2344 O.2       7 UNK        -0.5000 
     37 CA          4.1995  -18.9076  -44.8026 C.3       7 UNK         0.1400 
     38 CB          5.3788  -18.1905  -45.4768 C.3       7 UNK        -0.1800 
     39 N           3.9267  -18.2909  -43.5040 N.am      7 UNK        -0.5000 
     40 C           3.0722  -18.7826  -42.5944 C.2       6 UNK         0.5000 
     41 O           2.4595  -19.8400  -42.7313 O.2       6 UNK        -0.5000 
     42 CA          2.8285  -17.9289  -41.3361 C.3       6 UNK         0.1400 
     43 CB          3.8572  -18.2664  -40.2467 C.3       6 UNK        -0.1800 
     44 N           2.8541  -16.4880  -41.5995 N.am      6 UNK        -0.5000 
     45 C           2.0053  -15.8484  -42.4148 C.2       5 UNK         0.5000 
     46 O           1.1102  -16.4125  -43.0489 O.2       5 UNK        -0.5000 
     47 CA          2.2499  -14.3388  -42.5849 C.3       5 UNK         0.1400 
     48 CB          3.3931  -14.1014  -43.5852 C.3       5 UNK        -0.1800 
     49 N           1.0512  -13.6275  -43.0345 N.am      5 UNK        -0.5000 
     50 C          -0.0213  -13.3988  -42.2602 C.2       4 UNK         0.5000 
     51 O          -0.0883  -13.7598  -41.0835 O.2       4 UNK        -0.5000 
     52 CA         -1.2057  -12.6076  -42.8562 C.3       4 UNK         0.1400 
     53 CB         -1.3809  -11.2678  -42.1216 C.3       4 UNK        -0.1800 
     54 N          -1.0609  -12.3278  -44.2836 N.am      4 UNK        -0.5000 
     55 C          -1.4770  -13.1259  -45.2751 C.2       3 UNK         0.5000 
     56 O          -2.0841  -14.1810  -45.0932 O.2       3 UNK        -0.5000 
     57 CA         -1.1511  -12.6693  -46.7153 C.3       3 UNK         0.1400 
     58 CB         -2.3786  -12.0101  -47.3617 C.3       3 UNK        -0.1800 
     59 N          -0.0064  -11.7524  -46.8235 N.am      3 UNK        -0.5000 
     60 C           1.2430  -12.0620  -46.4567 C.2       2 UNK         0.5000 
     61 O           1.5421  -13.1234  -45.9104 O.2       2 UNK        -0.5000 
     62 CA          2.3350  -11.0116  -46.6831 C.3       2 UNK         0.1400 
     63 CB          2.4619  -10.0767  -45.4685 C.3       2 UNK        -0.1800 
     64 N           3.5786  -11.7416  -46.8835 N.am      2 UNK        -0.5000 
     65 C           4.6244  -11.3416  -47.6081 C.2       1 UNK         0.5000 
     66 O           4.7320  -10.2027  -48.0703 O.2       1 UNK        -0.5000 
     67 C          -1.1078  -22.4304  -48.4996 C.2       11 UNK         0.5000 
     68 O          -1.5428  -23.3199  -49.2315 O.2       11 UNK        -0.5000 
     69 N          -1.8907  -21.5482  -47.8618 N.am      12 UNK        -0.5000 
     70 CA         -3.3532  -21.5617  -47.9104 C.3       12 UNK         0.1400 
     71 CB         -3.9074  -20.3021  -47.2300 C.3       12 UNK        -0.1800 
     72 C          -3.9574  -22.8363  -47.2948 C.2       12 UNK         0.5000 
     73 O          -4.8768  -23.4078  -47.8809 O.2       12 UNK        -0.5000 
     74 N          -3.4077  -23.2789  -46.1548 N.am      13 UNK        -0.5000 
     75 CA         -3.7843  -24.5175  -45.4735 C.3       13 UNK         0.1400 
     76 CB         -3.1234  -24.5740  -44.0883 C.3       13 UNK        -0.1800 
     77 C          -3.4457  -25.7748  -46.2933 C.2       13 UNK         0.5000 
     78 O          -4.2806  -26.6743  -46.3833 O.2       13 UNK        -0.5000 
     79 N          -2.2566  -25.8026  -46.9129 N.am      14 UNK        -0.5000 
     80 CA         -1.8049  -26.8735  -47.8070 C.3       14 UNK         0.1400 
     81 CB         -0.3278  -26.6558  -48.1676 C.3       14 UNK        -0.1800 
     82 C          -2.6638  -26.9914  -49.0803 C.2       14 UNK         0.5000 
     83 O          -2.9384  -28.1038  -49.5311 O.2       14 UNK        -0.5000 
     84 N          -3.1081  -25.8433  -49.6071 N.am      15 UNK        -0.5000 
     85 CA         -4.0543  -25.7368  -50.7186 C.3       15 UNK         0.1400 
     86 CB         -3.9118  -24.3393  -51.3408 C.3       15 UNK        -0.1800 
     87 C          -5.5204  -25.9924  -50.3060 C.2       15 UNK         0.5000 
     88 O          -6.3920  -26.0187  -51.1765 O.2       15 UNK        -0.5000 
     89 N          -5.7817  -26.1194  -48.9945 N.am      16 UNK        -0.5000 
     90 CA         -7.0878  -26.2733  -48.3388 C.3       16 UNK         0.1400 
     91 CB         -7.6905  -27.6534  -48.6714 C.3       16 UNK        -0.1800 
     92 C          -8.0690  -25.1156  -48.6316 C.2       16 UNK         0.5000 
     93 O          -9.2835  -25.3041  -48.5446 O.2       16 UNK        -0.5000 
     94 N          -7.5191  -23.9519  -49.0136 N.am      17 UNK        -0.5000 
     95 CA         -8.1910  -22.7597  -49.5411 C.3       17 UNK         0.1400 
     96 CB         -8.9674  -22.0467  -48.4157 C.3       17 UNK        -0.1800 
     97 C          -9.0656  -23.0225  -50.7930 C.2       17 UNK         0.5000 
     98 O          -9.9658  -22.2308  -51.0787 O.2       17 UNK        -0.5000 
     99 N          -8.8085  -24.1258  -51.5132 N.am      18 UNK        -0.5000 
    100 CA        -9.6254  -24.5827  -52.6387 C.3       18 UNK         0.1400 
    101 CB        -9.3707  -26.0796  -52.8739 C.3       18 UNK        -0.1800 
    102 C         -9.3699  -23.7797  -53.9246 C.2       18 UNK         0.5000 
    103 O        -10.3148  -23.4897  -54.6599 O.2       18 UNK        -0.5000 
    104 N         -8.1027  -23.4308  -54.1647 N.am      19 UNK        -0.5000 
    105 CA        -7.6177  -22.6633  -55.3057 C.3       19 UNK         0.1400 
    106 CB        -7.6580  -23.5184  -56.5876 C.3       19 UNK        -0.1800 
    107 C         -6.1837  -22.2114  -55.0024 C.2       19 UNK         0.5000 
    108 O         -5.5145  -22.8351  -54.1748 O.2       19 UNK        -0.5000 
    109 N         -5.7367  -21.1560  -55.6956 N.am      20 UNK        -0.5000 
    110 CA        -4.4130  -20.5318  -55.5834 C.3       20 UNK         0.1400 
    111 CB        -3.3178  -21.4929  -56.1016 C.3       20 UNK        -0.1800 
    112 C         -4.1313  -19.9693  -54.1696 C.2       20 UNK         0.5000 
    113 O         -5.0730  -19.5994  -53.4629 O.2       20 UNK        -0.5000 
    114 N         -2.8434  -19.8809  -53.8039 N.am      21 UNK        -0.5000 
    115 CA        -2.3116  -19.3030  -52.5650 C.3       21 UNK         0.1400 
    116 CB        -2.6646  -20.1935  -51.3510 C.3       21 UNK        -0.1800 
    117 C         -2.7046  -17.8162  -52.3998 C.2       21 UNK         0.5000 
    118 O         -2.7615  -17.0895  -53.3950 O.2       21 UNK        -0.5000 
    119 N         -2.9316  -17.3799  -51.1584 N.am      22 UNK        -0.5000 
    120 CA        -3.2565  -15.9929  -50.7907 C.3       22 UNK         0.1400 
    121 C         -4.1053  -15.8857  -49.4897 C.2       22 UNK         0.5000 
    122 N         -4.7531  -16.9522  -49.0333 N.am      22 UNK        -0.7600 
    123 O         -4.2090  -14.8167  -48.8955 O.2       22 UNK        -0.5000 
    124 C124       -2.0116  -15.0606  -50.8154 C.3       23 UNK        -0.0398 
    125 S125       -0.6115  -15.6832  -49.8220 S.3       23 UNK        -0.2404 
    126 C126        0.5684  -16.1321  -51.1308 C.3       23 UNK        -0.0205 
    127 H127        6.8392  -12.8722  -51.6956 H         1 UNK         0.0600 
    128 H128        5.3846  -12.1333  -52.3717 H         1 UNK         0.0600 
    129 H129        5.4532  -13.8808  -52.1192 H         1 UNK         0.0600 
    130 H130        7.0110  -12.5201  -49.5454 H         1 UNK         0.3000 
    131 H131        6.6439  -11.8668  -47.5084 H         1 UNK         0.0600 
    132 H132        5.6869  -13.4882  -46.0033 H         1 UNK         0.0800 
    133 H133        6.6084  -14.2721  -47.2375 H         1 UNK         0.0800 
    134 H134        5.5459  -15.4330  -49.3616 H         1 UNK         0.0800 
    135 H135        5.6611  -16.6479  -48.1132 H         1 UNK         0.0800 
    136 H136        2.6315  -15.0692  -49.7322 H         1 UNK         0.1150 
    137 H137        1.2096  -18.7833  -51.3168 H         1 UNK         0.1150 
    138 H138        4.9257  -18.6526  -49.1857 H         1 UNK         0.1150 
    139 H139        2.7474  -20.6614  -51.4509 H         1 UNK         0.0800 
    140 H140        4.3628  -20.5145  -50.8156 H         1 UNK         0.0800 
    141 H141        0.7046  -21.3530  -50.1730 H         1 UNK         0.0800 
    142 H142        0.7889  -20.2596  -48.8073 H         1 UNK         0.0800 
    143 H143        0.8272  -23.3063  -48.5351 H         1 UNK         0.0600 
    144 H144        1.2006  -21.2894  -46.5758 H         1 UNK         0.3000 
    145 H145        0.1501  -23.2772  -43.7568 H         1 UNK         0.0600 
    146 H146        2.5304  -23.8349  -44.2832 H         1 UNK         0.0600 
    147 H147        2.8481  -22.1472  -44.6640 H         1 UNK         0.0600 
    148 H148        2.4080  -22.6166  -43.0237 H         1 UNK         0.0600 
    149 H149        1.0599  -20.5945  -43.8800 H         1 UNK         0.3000 
    150 H150       -2.1767  -19.0608  -44.3152 H         1 UNK         0.0600 
    151 H151       -1.3477  -17.8938  -42.2831 H         1 UNK         0.0600 
    152 H152       -0.1570  -19.1642  -42.0131 H         1 UNK         0.0600 
    153 H153       -1.8740  -19.5243  -41.8883 H         1 UNK         0.0600 
    154 H154        0.3677  -17.8583  -44.1166 H         1 UNK         0.3000 
    155 H155        1.2162  -17.8846  -47.5999 H         1 UNK         0.0600 
    156 H156       -0.3630  -15.9655  -46.9478 H         1 UNK         0.0600 
    157 H157        1.3187  -15.5103  -47.1684 H         1 UNK         0.0600 
    158 H158        0.6490  -15.6854  -45.5464 H         1 UNK         0.0600 
    159 H159        2.6410  -16.9444  -45.3362 H         1 UNK         0.3000 
    160 H160        4.4886  -19.9465  -44.6296 H         1 UNK         0.0600 
    161 H161        5.5825  -18.6162  -46.4602 H         1 UNK         0.0600 
    162 H162        6.2891  -18.2889  -44.8854 H         1 UNK         0.0600 
    163 H163        5.1813  -17.1270  -45.6118 H         1 UNK         0.0600 
    164 H164        4.3855  -17.4143  -43.3073 H         1 UNK         0.3000 
    165 H165        1.8362  -18.1784  -40.9555 H         1 UNK         0.0600 
    166 H166        3.6415  -17.7328  -39.3209 H         1 UNK         0.0600 
    167 H167        3.8448  -19.3325  -40.0159 H         1 UNK         0.0600 
    168 H168        4.8713  -18.0092  -40.5554 H         1 UNK         0.0600 
    169 H169        3.5679  -15.9575  -41.1210 H         1 UNK         0.3000 
    170 H170        2.5462  -13.9234  -41.6194 H         1 UNK         0.0600 
    171 H171        3.5395  -13.0387  -43.7793 H         1 UNK         0.0600 
    172 H172        4.3367  -14.4938  -43.2050 H         1 UNK         0.0600 
    173 H173        3.1989  -14.5938  -44.5382 H         1 UNK         0.0600 
    174 H174        1.0265  -13.3710  -44.0161 H         1 UNK         0.3000 
    175 H175       -2.1068  -13.2024  -42.6925 H         1 UNK         0.0600 
    176 H176       -0.5026  -10.6305  -42.2322 H         1 UNK         0.0600 
    177 H177       -2.2437  -10.7199  -42.5010 H         1 UNK         0.0600 
    178 H178       -1.5420  -11.4222  -41.0539 H         1 UNK         0.0600 
    179 H179       -0.5668  -11.4833  -44.5301 H         1 UNK         0.3000 
    180 H180       -0.9087  -13.5661  -47.2891 H         1 UNK         0.0600 
    181 H181       -2.1997  -11.7889  -48.4140 H         1 UNK         0.0600 
    182 H182       -2.6469  -11.0795  -46.8601 H         1 UNK         0.0600 
    183 H183       -3.2458  -12.6703  -47.3153 H         1 UNK         0.0600 
    184 H184       -0.1882  -10.8538  -47.2470 H         1 UNK         0.3000 
    185 H185        2.0950  -10.4359  -47.5794 H         1 UNK         0.0600 
    186 H186        2.6872  -10.6315  -44.5567 H         1 UNK         0.0600 
    187 H187        3.2533   -9.3420  -45.6168 H         1 UNK         0.0600 
    188 H188        1.5355   -9.5266  -45.2997 H         1 UNK         0.0600 
    189 H189        3.5206  -12.7143  -46.5984 H         1 UNK         0.3000 
    190 H190       -1.4593  -20.8148  -47.3039 H         1 UNK         0.3000 
    191 H191       -3.6511  -21.5365  -48.9599 H         1 UNK         0.0600 
    192 H192       -3.6309  -20.2588  -46.1763 H         1 UNK         0.0600 
    193 H193       -4.9962  -20.2737  -47.2869 H         1 UNK         0.0600 
    194 H194       -3.5309  -19.3982  -47.7090 H         1 UNK         0.0600 
    195 H195       -2.6909  -22.7152  -45.7055 H         1 UNK         0.3000 
    196 H196       -4.8666  -24.4995  -45.3292 H         1 UNK         0.0600 
    197 H197       -3.4048  -25.4842  -43.5574 H         1 UNK         0.0600 
    198 H198       -3.4307  -23.7296  -43.4712 H         1 UNK         0.0600 
    199 H199       -2.0357  -24.5574  -44.1591 H         1 UNK         0.0600 
    200 H200       -1.5964  -25.0477  -46.7415 H         1 UNK         0.3000 
    201 H201       -1.8869  -27.8173  -47.2641 H         1 UNK         0.0600 
    202 H202        0.2995  -26.6575  -47.2762 H         1 UNK         0.0600 
    203 H203       -0.1752  -25.7066  -48.6820 H         1 UNK         0.0600 
    204 H204        0.0362  -27.4480  -48.8230 H         1 UNK         0.0600 
    205 H205       -2.7772  -24.9682  -49.2130 H         1 UNK         0.3000 
    206 H206       -3.7935  -26.4779  -51.4767 H         1 UNK         0.0600 
    207 H207       -4.5647  -24.2319  -52.2060 H         1 UNK         0.0600 
    208 H208       -4.1725  -23.5524  -50.6323 H         1 UNK         0.0600 
    209 H209       -2.8920  -24.1582  -51.6809 H         1 UNK         0.0600 
    210 H210       -4.9973  -26.0619  -48.3575 H         1 UNK         0.3000 
    211 H211       -6.8963  -26.2420  -47.2656 H         1 UNK         0.0600 
    212 H212       -7.9703  -27.7292  -49.7227 H         1 UNK         0.0600 
    213 H213       -8.5863  -27.8443  -48.0796 H         1 UNK         0.0600 
    214 H214       -6.9834  -28.4538  -48.4533 H         1 UNK         0.0600 
    215 H215       -6.5074  -23.8868  -48.9506 H         1 UNK         0.3000 
    216 H216       -7.3953  -22.0892  -49.8688 H         1 UNK         0.0600 
    217 H217       -9.3524  -21.0832  -48.7515 H         1 UNK         0.0600 
    218 H218       -8.3254  -21.8548  -47.5559 H         1 UNK         0.0600 
    219 H219       -9.8173  -22.6386  -48.0747 H         1 UNK         0.0600 
    220 H220       -8.0392  -24.7273  -51.2378 H         1 UNK         0.3000 
    221 H221      -10.6778  -24.4611  -52.3728 H         1 UNK         0.0600 
    222 H222       -8.3342  -26.2735  -53.1527 H         1 UNK         0.0600 
    223 H223       -9.5903  -26.6620  -51.9787 H         1 UNK         0.0600 
    224 H224      -10.0035  -26.4619  -53.6758 H         1 UNK         0.0600 
    225 H225       -7.3783  -23.6829  -53.5028 H         1 UNK         0.3000 
    226 H226       -8.2452  -21.7783  -55.4293 H         1 UNK         0.0600 
    227 H227       -8.6760  -23.8116  -56.8434 H         1 UNK         0.0600 
    228 H228       -7.2603  -22.9670  -57.4403 H         1 UNK         0.0600 
    229 H229       -7.0652  -24.4276  -56.4794 H         1 UNK         0.0600 
    230 H230       -6.3741  -20.6989  -56.3323 H         1 UNK         0.3000 
    231 H231       -4.4330  -19.6679  -56.2492 H         1 UNK         0.0600 
    232 H232       -3.1465  -22.3225  -55.4146 H         1 UNK         0.0600 
    233 H233       -3.5935  -21.9155  -57.0680 H         1 UNK         0.0600 
    234 H234       -2.3678  -20.9771  -56.2439 H         1 UNK         0.0600 
    235 H235       -2.1478  -20.1822  -54.4710 H         1 UNK         0.3000 
    236 H236       -1.2259  -19.3123  -52.6705 H         1 UNK         0.0600 
    237 H237       -3.7313  -20.1696  -51.1257 H         1 UNK         0.0600 
    238 H238       -2.3919  -21.2331  -51.5352 H         1 UNK         0.0600 
    239 H239       -2.1247  -19.8815  -50.4562 H         1 UNK         0.0600 
    240 H240       -2.8224  -18.0164  -50.3831 H         1 UNK         0.3000 
    241 H241       -3.9388  -15.6155  -51.5545 H         1 UNK         0.0600 
    242 H242       -5.3052  -16.8600  -48.1954 H         1 UNK         0.3800 
    243 H243       -4.7755  -17.8145  -49.5511 H         1 UNK         0.3800 
    244 H244       -1.6847  -14.9257  -51.8470 H         1 UNK         0.0800 
    245 H245       -2.2650  -14.0582  -50.4669 H         1 UNK         0.0800 
    246 H246        0.8908  -15.2287  -51.6506 H         1 UNK         0.0800 
    247 H247        0.0701  -16.7557  -51.8736 H         1 UNK         0.0800 
@<TRIPOS>BOND
     1    1    2 1    
     2    1  127 1    
     3    1  128 1    
     4    1  129 1    
     5    2    3 2    
     6    2    4 am   BACKBONE|DICT|INTERRES
     7    4    5 1    
     8    4  130 1    
     9    5    6 1    
    10    5   65 1    
    11    5  131 1    
    12    6    7 1    
    13    6  132 1    
    14    6  133 1    
    15    7    8 1    
    16    8    9 1    
    17    8  134 1    
    18    8  135 1    
    19    9   10 ar   
    20    9   14 ar   
    21   10   11 ar   
    22   10  136 1    
    23   11   12 ar   
    24   11  126 1    
    25   12   13 ar   
    26   12  137 1    
    27   13   14 ar   
    28   13   15 1    
    29   14  138 1    
    30   15   16 1    
    31   15  139 1    
    32   15  140 1    
    33   16   17 1    
    34   17   18 1    
    35   17  141 1    
    36   17  142 1    
    37   18   19 1    
    38   18   67 1    
    39   18  143 1    
    40   19   20 am   BACKBONE|DICT|INTERRES
    41   19  144 1    
    42   20   21 2    
    43   20   22 1    
    44   22   23 1    
    45   22   24 1    
    46   22  145 1    
    47   23  146 1    
    48   23  147 1    
    49   23  148 1    
    50   24   25 am   BACKBONE|DICT|INTERRES
    51   24  149 1    
    52   25   26 2    
    53   25   27 1    
    54   27   28 1    
    55   27   29 1    
    56   27  150 1    
    57   28  151 1    
    58   28  152 1    
    59   28  153 1    
    60   29   30 am   BACKBONE|DICT|INTERRES
    61   29  154 1    
    62   30   31 2    
    63   30   32 1    
    64   32   33 1    
    65   32   34 1    
    66   32  155 1    
    67   33  156 1    
    68   33  157 1    
    69   33  158 1    
    70   34   35 am   BACKBONE|DICT|INTERRES
    71   34  159 1    
    72   35   36 2    
    73   35   37 1    
    74   37   38 1    
    75   37   39 1    
    76   37  160 1    
    77   38  161 1    
    78   38  162 1    
    79   38  163 1    
    80   39   40 am   BACKBONE|DICT|INTERRES
    81   39  164 1    
    82   40   41 2    
    83   40   42 1    
    84   42   43 1    
    85   42   44 1    
    86   42  165 1    
    87   43  166 1    
    88   43  167 1    
    89   43  168 1    
    90   44   45 am   BACKBONE|DICT|INTERRES
    91   44  169 1    
    92   45   46 2    
    93   45   47 1    
    94   47   48 1    
    95   47   49 1    
    96   47  170 1    
    97   48  171 1    
    98   48  172 1    
    99   48  173 1    
   100   49   50 am   BACKBONE|DICT|INTERRES
   101   49  174 1    
   102   50   51 2    
   103   50   52 1    
   104   52   53 1    
   105   52   54 1    
   106   52  175 1    
   107   53  176 1    
   108   53  177 1    
   109   53  178 1    
   110   54   55 am   BACKBONE|DICT|INTERRES
   111   54  179 1    
   112   55   56 2    
   113   55   57 1    
   114   57   58 1    
   115   57   59 1    
   116   57  180 1    
   117   58  181 1    
   118   58  182 1    
   119   58  183 1    
   120   59   60 am   BACKBONE|DICT|INTERRES
   121   59  184 1    
   122   60   61 2    
   123   60   62 1    
   124   62   63 1    
   125   62   64 1    
   126   62  185 1    
   127   63  186 1    
   128   63  187 1    
   129   63  188 1    
   130   64   65 am   BACKBONE|DICT|INTERRES
   131   64  189 1    
   132   65   66 2    
   133   67   68 2    
   134   67   69 am   BACKBONE|DICT|INTERRES
   135   69   70 1    
   136   69  190 1    
   137   70   71 1    
   138   70   72 1    
   139   70  191 1    
   140   71  192 1    
   141   71  193 1    
   142   71  194 1    
   143   72   73 2    
   144   72   74 am   BACKBONE|DICT|INTERRES
   145   74   75 1    
   146   74  195 1    
   147   75   76 1    
   148   75   77 1    
   149   75  196 1    
   150   76  197 1    
   151   76  198 1    
   152   76  199 1    
   153   77   78 2    
   154   77   79 am   BACKBONE|DICT|INTERRES
   155   79   80 1    
   156   79  200 1    
   157   80   81 1    
   158   80   82 1    
   159   80  201 1    
   160   81  202 1    
   161   81  203 1    
   162   81  204 1    
   163   82   83 2    
   164   82   84 am   BACKBONE|DICT|INTERRES
   165   84   85 1    
   166   84  205 1    
   167   85   86 1    
   168   85   87 1    
   169   85  206 1    
   170   86  207 1    
   171   86  208 1    
   172   86  209 1    
   173   87   88 2    
   174   87   89 am   BACKBONE|DICT|INTERRES
   175   89   90 1    
   176   89  210 1    
   177   90   91 1    
   178   90   92 1    
   179   90  211 1    
   180   91  212 1    
   181   91  213 1    
   182   91  214 1    
   183   92   93 2    
   184   92   94 am   BACKBONE|DICT|INTERRES
   185   94   95 1    
   186   94  215 1    
   187   95   96 1    
   188   95   97 1    
   189   95  216 1    
   190   96  217 1    
   191   96  218 1    
   192   96  219 1    
   193   97   98 2    
   194   97   99 am   BACKBONE|DICT|INTERRES
   195   99  100 1    
   196   99  220 1    
   197  100  101 1    
   198  100  102 1    
   199  100  221 1    
   200  101  222 1    
   201  101  223 1    
   202  101  224 1    
   203  102  103 2    
   204  102  104 am   BACKBONE|DICT|INTERRES
   205  104  105 1    
   206  104  225 1    
   207  105  106 1    
   208  105  107 1    
   209  105  226 1    
   210  106  227 1    
   211  106  228 1    
   212  106  229 1    
   213  107  108 2    
   214  107  109 am   BACKBONE|DICT|INTERRES
   215  109  110 1    
   216  109  230 1    
   217  110  111 1    
   218  110  112 1    
   219  110  231 1    
   220  111  232 1    
   221  111  233 1    
   222  111  234 1    
   223  112  113 2    
   224  112  114 am   BACKBONE|DICT|INTERRES
   225  114  115 1    
   226  114  235 1    
   227  115  116 1    
   228  115  117 1    
   229  115  236 1    
   230  116  237 1    
   231  116  238 1    
   232  116  239 1    
   233  117  118 2    
   234  117  119 am   BACKBONE|DICT|INTERRES
   235  119  120 1    
   236  119  240 1    
   237  120  121 1    
   238  120  124 1    
   239  120  241 1    
   240  121  122 am   BACKBONE|DICT|INTERRES
   241  121  123 2    
   242  122  242 1    
   243  122  243 1    
   244  124  125 1    
   245  124  244 1    
   246  124  245 1    
   247  125  126 1    
   248  126  246 1    
   249  126  247 1    
@<TRIPOS>SUBSTRUCTURE
     1 UNK         1 GROUP             0       ****    0 ROOT    
