@<TRIPOS>MOLECULE
3R540
247   249    1
SMALL
USER_CHARGES


@<TRIPOS>ATOM
      1 CA          4.9425  -18.2774  -45.3908 C.3       0 UNK        -0.1800 
      2 C           5.1934  -17.1287  -46.3571 C.2       0 UNK         0.5000 
      3 O           6.2443  -16.4927  -46.2862 O.2       0 UNK        -0.5000 
      4 N           4.2383  -16.8750  -47.2624 N.am      1 UNK        -0.5000 
      5 CA          4.2991  -15.8536  -48.3170 C.3       1 UNK         0.1400 
      6 C6          5.4369  -16.1203  -49.3434 C.3       23 UNK        -0.0398 
      7 S7          5.0818  -15.3908  -50.9808 S.3       23 UNK        -0.2404 
      8 C8          4.9077  -16.8649  -52.0338 C.3       23 UNK        -0.0205 
      9 C9          3.7216  -17.7309  -51.6355 C.ar      23 UNK        -0.0193 
     10 C10         2.4156  -17.2663  -51.8223 C.ar      23 UNK        -0.1150 
     11 C11         1.3223  -18.0706  -51.4902 C.ar      23 UNK        -0.0193 
     12 C12         1.5470  -19.3484  -50.9698 C.ar      23 UNK        -0.1150 
     13 C13         2.8464  -19.8274  -50.7802 C.ar      23 UNK        -0.0193 
     14 C14         3.9303  -19.0107  -51.1112 C.ar      23 UNK        -0.1150 
     15 C15         3.0770  -21.2447  -50.2703 C.3       23 UNK        -0.0205 
     16 S16         3.6031  -21.3159  -48.5237 S.3       23 UNK        -0.2404 
     17 C17         2.1738  -20.6133  -47.6331 C.3       23 UNK        -0.0398 
     18 CA          1.1504  -21.6483  -47.0987 C.3       11 UNK         0.1400 
     19 N           0.2150  -21.0303  -46.1541 N.am      11 UNK        -0.5000 
     20 C          -0.7499  -21.6643  -45.4714 C.2       10 UNK         0.5000 
     21 O          -0.9309  -22.8803  -45.5084 O.2       10 UNK        -0.5000 
     22 CA         -1.7100  -20.7852  -44.6482 C.3       10 UNK         0.1400 
     23 CB         -1.0754  -20.3838  -43.3089 C.3       10 UNK        -0.1800 
     24 N          -2.1357  -19.5856  -45.3702 N.am      10 UNK        -0.5000 
     25 C          -2.8343  -19.5919  -46.5148 C.2       9 UNK         0.5000 
     26 O          -3.2363  -20.6132  -47.0705 O.2       9 UNK        -0.5000 
     27 CA         -3.0699  -18.2283  -47.1852 C.3       9 UNK         0.1400 
     28 CB         -4.2524  -17.4883  -46.5429 C.3       9 UNK        -0.1800 
     29 N          -1.8771  -17.3844  -47.1454 N.am      9 UNK        -0.5000 
     30 C          -0.7397  -17.6691  -47.7923 C.2       8 UNK         0.5000 
     31 O          -0.5838  -18.6724  -48.4887 O.2       8 UNK        -0.5000 
     32 CA          0.4345  -16.6978  -47.5740 C.3       8 UNK         0.1400 
     33 CB          0.2235  -15.3994  -48.3673 C.3       8 UNK        -0.1800 
     34 N           0.6427  -16.3737  -46.1605 N.am      8 UNK        -0.5000 
     35 C           0.9531  -17.2639  -45.2087 C.2       7 UNK         0.5000 
     36 O           1.1873  -18.4468  -45.4422 O.2       7 UNK        -0.5000 
     37 CA          0.9726  -16.7684  -43.7512 C.3       7 UNK         0.1400 
     38 CB          2.3546  -16.2115  -43.3858 C.3       7 UNK        -0.1800 
     39 N          -0.0541  -15.7710  -43.4439 N.am      7 UNK        -0.5000 
     40 C          -1.3764  -15.9611  -43.5714 C.2       6 UNK         0.5000 
     41 O          -1.8700  -16.9926  -44.0311 O.2       6 UNK        -0.5000 
     42 CA         -2.2910  -14.8081  -43.1013 C.3       6 UNK         0.1400 
     43 CB         -3.7594  -15.2391  -42.9092 C.3       6 UNK        -0.1800 
     44 N          -1.7885  -14.1369  -41.8986 N.am      6 UNK        -0.5000 
     45 C          -1.5240  -14.6931  -40.7039 C.2       5 UNK         0.5000 
     46 O          -1.7822  -15.8650  -40.4251 O.2       5 UNK        -0.5000 
     47 CA         -0.8504  -13.7925  -39.6408 C.3       5 UNK         0.1400 
     48 CB          0.1518  -14.5746  -38.7657 C.3       5 UNK        -0.1800 
     49 N          -0.2175  -12.5833  -40.1866 N.am      5 UNK        -0.5000 
     50 C           0.7713  -12.5249  -41.0899 C.2       4 UNK         0.5000 
     51 O           1.3182  -13.5101  -41.5897 O.2       4 UNK        -0.5000 
     52 CA          1.1642  -11.1177  -41.5702 C.3       4 UNK         0.1400 
     53 CB          2.6248  -10.8044  -41.2104 C.3       4 UNK        -0.1800 
     54 N           0.9882  -10.9835  -43.0155 N.am      4 UNK        -0.5000 
     55 C          -0.1564  -11.1667  -43.6920 C.2       3 UNK         0.5000 
     56 O          -1.2371  -11.4213  -43.1577 O.2       3 UNK        -0.5000 
     57 CA         -0.0726  -11.0662  -45.2274 C.3       3 UNK         0.1400 
     58 CB         -0.4377   -9.6495  -45.6953 C.3       3 UNK        -0.1800 
     59 N           1.2573  -11.4144  -45.7348 N.am      3 UNK        -0.5000 
     60 C           1.7251  -12.6663  -45.7979 C.2       2 UNK         0.5000 
     61 O           1.0536  -13.6636  -45.5236 O.2       2 UNK        -0.5000 
     62 CA          3.1951  -12.8232  -46.2037 C.3       2 UNK         0.1400 
     63 CB          4.1211  -12.6467  -44.9870 C.3       2 UNK        -0.1800 
     64 N           3.3995  -14.1417  -46.7973 N.am      2 UNK        -0.5000 
     65 C           4.3104  -14.4157  -47.7391 C.2       1 UNK         0.5000 
     66 O           5.1279  -13.5851  -48.1410 O.2       1 UNK        -0.5000 
     67 C           0.4002  -22.3569  -48.2433 C.2       11 UNK         0.5000 
     68 O           0.6544  -23.5333  -48.5017 O.2       11 UNK        -0.5000 
     69 N          -0.5343  -21.6418  -48.8841 N.am      12 UNK        -0.5000 
     70 CA         -1.3551  -22.1677  -49.9732 C.3       12 UNK         0.1400 
     71 CB         -2.1207  -21.0233  -50.6422 C.3       12 UNK        -0.1800 
     72 C          -2.2989  -23.2982  -49.5308 C.2       12 UNK         0.5000 
     73 O          -2.3955  -24.3048  -50.2308 O.2       12 UNK        -0.5000 
     74 N          -2.9342  -23.1468  -48.3612 N.am      13 UNK        -0.5000 
     75 CA         -3.7907  -24.1683  -47.7582 C.3       13 UNK         0.1400 
     76 CB         -4.5330  -23.5755  -46.5528 C.3       13 UNK        -0.1800 
     77 C          -3.0279  -25.4484  -47.3668 C.2       13 UNK         0.5000 
     78 O          -3.5758  -26.5405  -47.5076 O.2       13 UNK        -0.5000 
     79 N          -1.7765  -25.3029  -46.9104 N.am      14 UNK        -0.5000 
     80 CA         -0.8744  -26.4183  -46.6259 C.3       14 UNK         0.1400 
     81 CB          0.3125  -25.9223  -45.7858 C.3       14 UNK        -0.1800 
     82 C          -0.3834  -27.1187  -47.9068 C.2       14 UNK         0.5000 
     83 O          -0.3028  -28.3474  -47.9294 O.2       14 UNK        -0.5000 
     84 N          -0.0605  -26.3309  -48.9423 N.am      15 UNK        -0.5000 
     85 CA          0.4139  -26.8141  -50.2390 C.3       15 UNK         0.1400 
     86 CB          0.9985  -25.6404  -51.0411 C.3       15 UNK        -0.1800 
     87 C          -0.6786  -27.5384  -51.0470 C.2       15 UNK         0.5000 
     88 O          -0.4186  -28.6165  -51.5837 O.2       15 UNK        -0.5000 
     89 N          -1.8692  -26.9320  -51.1208 N.am      16 UNK        -0.5000 
     90 CA         -3.0431  -27.4590  -51.8075 C.3       16 UNK         0.1400 
     91 CB         -3.6598  -26.3442  -52.6778 C.3       16 UNK        -0.1800 
     92 C          -4.0128  -28.0439  -50.7660 C.2       16 UNK         0.5000 
     93 O          -3.7926  -29.1630  -50.3000 O.2       16 UNK        -0.5000 
     94 N          -5.0646  -27.2908  -50.4263 N.am      17 UNK        -0.5000 
     95 CA         -6.0861  -27.6564  -49.4431 C.3       17 UNK         0.1400 
     96 CB         -7.0800  -28.6697  -50.0405 C.3       17 UNK        -0.1800 
     97 C          -6.8185  -26.4057  -48.9362 C.2       17 UNK         0.5000 
     98 O          -7.1083  -26.3091  -47.7436 O.2       17 UNK        -0.5000 
     99 N          -7.0779  -25.4602  -49.8469 N.am      18 UNK        -0.5000 
    100 CA        -7.6085  -24.1296  -49.5664 C.3       18 UNK         0.1400 
    101 CB        -8.9964  -23.9986  -50.2145 C.3       18 UNK        -0.1800 
    102 C         -6.6412  -23.0863  -50.1438 C.2       18 UNK         0.5000 
    103 O         -5.8485  -23.4126  -51.0314 O.2       18 UNK        -0.5000 
    104 N         -6.7247  -21.8526  -49.6312 N.am      19 UNK        -0.5000 
    105 CA        -5.8737  -20.7344  -50.0428 C.3       19 UNK         0.1400 
    106 CB        -6.0468  -19.5757  -49.0524 C.3       19 UNK        -0.1800 
    107 C         -6.1445  -20.2562  -51.4811 C.2       19 UNK         0.5000 
    108 O         -5.2030  -19.9025  -52.1924 O.2       19 UNK        -0.5000 
    109 N         -7.4283  -20.2645  -51.8730 N.am      20 UNK        -0.5000 
    110 CA        -7.9557  -19.8578  -53.1790 C.3       20 UNK         0.1400 
    111 CB        -7.6007  -20.9231  -54.2411 C.3       20 UNK        -0.1800 
    112 C         -7.5325  -18.4192  -53.5578 C.2       20 UNK         0.5000 
    113 O         -7.5766  -17.5287  -52.7049 O.2       20 UNK        -0.5000 
    114 N         -7.1053  -18.2145  -54.8112 N.am      21 UNK        -0.5000 
    115 CA        -6.6223  -16.9385  -55.3493 C.3       21 UNK         0.1400 
    116 CB        -6.4427  -17.0808  -56.8688 C.3       21 UNK        -0.1800 
    117 C         -5.3198  -16.4272  -54.6967 C.2       21 UNK         0.5000 
    118 O         -5.0125  -15.2406  -54.8178 O.2       21 UNK        -0.5000 
    119 N         -4.5875  -17.3167  -54.0140 N.am      22 UNK        -0.5000 
    120 CA        -3.4033  -16.9927  -53.2056 C.3       22 UNK         0.1400 
    121 C         -3.7410  -16.3272  -51.8350 C.2       22 UNK         0.5000 
    122 N         -4.9934  -16.3071  -51.3887 N.am      22 UNK        -0.7600 
    123 O         -2.8517  -15.8096  -51.1667 O.2       22 UNK        -0.5000 
    124 C124       -2.5015  -18.2451  -53.0235 C.3       23 UNK        -0.0398 
    125 S125       -0.7284  -17.9507  -53.3516 S.3       23 UNK        -0.2404 
    126 C126       -0.0990  -17.5638  -51.6900 C.3       23 UNK        -0.0205 
    127 H127        3.8967  -18.5809  -45.3834 H         1 UNK         0.0600 
    128 H128        5.2175  -17.9858  -44.3773 H         1 UNK         0.0600 
    129 H129        5.5459  -19.1403  -45.6724 H         1 UNK         0.0600 
    130 H130        3.4094  -17.4504  -47.2610 H         1 UNK         0.3000 
    131 H131        3.3525  -15.9510  -48.8507 H         1 UNK         0.0600 
    132 H132        5.5800  -17.1941  -49.4669 H         1 UNK         0.0800 
    133 H133        6.3954  -15.7431  -48.9829 H         1 UNK         0.0800 
    134 H134        5.8367  -17.4367  -52.0064 H         1 UNK         0.0800 
    135 H135        4.7793  -16.5439  -53.0684 H         1 UNK         0.0800 
    136 H136        2.2516  -16.2797  -52.2328 H         1 UNK         0.1150 
    137 H137        0.7072  -19.9754  -50.7162 H         1 UNK         0.1150 
    138 H138        4.9365  -19.3815  -50.9743 H         1 UNK         0.1150 
    139 H139        2.1836  -21.8531  -50.4124 H         1 UNK         0.0800 
    140 H140        3.8500  -21.7157  -50.8792 H         1 UNK         0.0800 
    141 H141        1.6903  -19.8508  -48.2405 H         1 UNK         0.0800 
    142 H142        2.6029  -20.0794  -46.7868 H         1 UNK         0.0800 
    143 H143        1.6986  -22.4124  -46.5438 H         1 UNK         0.0600 
    144 H144        0.3248  -20.0296  -46.0143 H         1 UNK         0.3000 
    145 H145       -2.6036  -21.3760  -44.4367 H         1 UNK         0.0600 
    146 H146       -1.7592  -19.7795  -42.7123 H         1 UNK         0.0600 
    147 H147       -0.1606  -19.8098  -43.4530 H         1 UNK         0.0600 
    148 H148       -0.8192  -21.2655  -42.7204 H         1 UNK         0.0600 
    149 H149       -1.8799  -18.6887  -44.9659 H         1 UNK         0.3000 
    150 H150       -3.3099  -18.4112  -48.2344 H         1 UNK         0.0600 
    151 H151       -5.1641  -18.0830  -46.5955 H         1 UNK         0.0600 
    152 H152       -4.4504  -16.5441  -47.0504 H         1 UNK         0.0600 
    153 H153       -4.0699  -17.2744  -45.4908 H         1 UNK         0.0600 
    154 H154       -1.9029  -16.5849  -46.5305 H         1 UNK         0.3000 
    155 H155        1.3338  -17.1875  -47.9510 H         1 UNK         0.0600 
    156 H156        0.0218  -15.6082  -49.4170 H         1 UNK         0.0600 
    157 H157        1.1043  -14.7604  -48.3308 H         1 UNK         0.0600 
    158 H158       -0.6194  -14.8243  -47.9822 H         1 UNK         0.0600 
    159 H159        0.5026  -15.4054  -45.8791 H         1 UNK         0.3000 
    160 H160        0.7809  -17.6313  -43.1115 H         1 UNK         0.0600 
    161 H161        2.6036  -15.3329  -43.9794 H         1 UNK         0.0600 
    162 H162        3.1327  -16.9556  -43.5514 H         1 UNK         0.0600 
    163 H163        2.4000  -15.9289  -42.3341 H         1 UNK         0.0600 
    164 H164        0.2774  -14.8985  -43.0498 H         1 UNK         0.3000 
    165 H165       -2.2677  -14.0621  -43.8968 H         1 UNK         0.0600 
    166 H166       -4.3709  -14.4092  -42.5551 H         1 UNK         0.0600 
    167 H167       -4.1929  -15.5789  -43.8493 H         1 UNK         0.0600 
    168 H168       -3.8521  -16.0548  -42.1916 H         1 UNK         0.0600 
    169 H169       -1.5428  -13.1615  -42.0304 H         1 UNK         0.3000 
    170 H170       -1.6550  -13.4462  -38.9907 H         1 UNK         0.0600 
    171 H171        0.9484  -15.0200  -39.3626 H         1 UNK         0.0600 
    172 H172        0.6131  -13.9278  -38.0195 H         1 UNK         0.0600 
    173 H173       -0.3435  -15.3838  -38.2280 H         1 UNK         0.0600 
    174 H174       -0.6223  -11.7123  -39.8714 H         1 UNK         0.3000 
    175 H175        0.5237  -10.3782  -41.0855 H         1 UNK         0.0600 
    176 H176        3.3165  -11.4919  -41.6995 H         1 UNK         0.0600 
    177 H177        2.8956   -9.7901  -41.5039 H         1 UNK         0.0600 
    178 H178        2.7871  -10.8856  -40.1349 H         1 UNK         0.0600 
    179 H179        1.8246  -10.8040  -43.5485 H         1 UNK         0.3000 
    180 H180       -0.8025  -11.7627  -45.6460 H         1 UNK         0.0600 
    181 H181       -0.4402   -9.5824  -46.7834 H         1 UNK         0.0600 
    182 H182        0.2620   -8.9049  -45.3137 H         1 UNK         0.0600 
    183 H183       -1.4345   -9.3700  -45.3514 H         1 UNK         0.0600 
    184 H184        1.8585  -10.6454  -45.9946 H         1 UNK         0.3000 
    185 H185        3.4207  -12.0521  -46.9436 H         1 UNK         0.0600 
    186 H186        3.9086  -13.3778  -44.2067 H         1 UNK         0.0600 
    187 H187        5.1685  -12.7559  -45.2689 H         1 UNK         0.0600 
    188 H188        4.0074  -11.6558  -44.5463 H         1 UNK         0.0600 
    189 H189        2.7357  -14.8466  -46.5084 H         1 UNK         0.3000 
    190 H190       -0.6878  -20.6740  -48.6157 H         1 UNK         0.3000 
    191 H191       -0.6813  -22.5911  -50.7209 H         1 UNK         0.0600 
    192 H192       -2.6395  -20.4004  -49.9134 H         1 UNK         0.0600 
    193 H193       -2.8558  -21.3989  -51.3555 H         1 UNK         0.0600 
    194 H194       -1.4359  -20.3873  -51.1979 H         1 UNK         0.0600 
    195 H195       -2.8403  -22.2704  -47.8527 H         1 UNK         0.3000 
    196 H196       -4.5337  -24.4526  -48.5043 H         1 UNK         0.0600 
    197 H197       -5.1422  -22.7209  -46.8479 H         1 UNK         0.0600 
    198 H198       -3.8397  -23.2426  -45.7797 H         1 UNK         0.0600 
    199 H199       -5.2008  -24.3127  -46.1051 H         1 UNK         0.0600 
    200 H200       -1.4133  -24.3684  -46.7496 H         1 UNK         0.3000 
    201 H201       -1.4196  -27.1551  -46.0322 H         1 UNK         0.0600 
    202 H202       -0.0253  -25.5010  -44.8388 H         1 UNK         0.0600 
    203 H203        0.8841  -25.1540  -46.3072 H         1 UNK         0.0600 
    204 H204        0.9957  -26.7399  -45.5530 H         1 UNK         0.0600 
    205 H205       -0.0910  -25.3234  -48.8167 H         1 UNK         0.3000 
    206 H206        1.2199  -27.5280  -50.0564 H         1 UNK         0.0600 
    207 H207        1.8308  -25.1766  -50.5111 H         1 UNK         0.0600 
    208 H208        1.3750  -25.9763  -52.0080 H         1 UNK         0.0600 
    209 H209        0.2515  -24.8688  -51.2288 H         1 UNK         0.0600 
    210 H210       -1.9947  -26.0355  -50.6537 H         1 UNK         0.3000 
    211 H211       -2.7618  -28.2757  -52.4755 H         1 UNK         0.0600 
    212 H212       -3.9246  -25.4591  -52.0985 H         1 UNK         0.0600 
    213 H213       -4.5601  -26.6941  -53.1847 H         1 UNK         0.0600 
    214 H214       -2.9597  -26.0277  -53.4510 H         1 UNK         0.0600 
    215 H215       -5.1150  -26.3538  -50.7992 H         1 UNK         0.3000 
    216 H216       -5.5938  -28.1144  -48.5825 H         1 UNK         0.0600 
    217 H217       -7.8637  -28.9166  -49.3233 H         1 UNK         0.0600 
    218 H218       -6.5843  -29.6025  -50.3093 H         1 UNK         0.0600 
    219 H219       -7.5640  -28.2779  -50.9357 H         1 UNK         0.0600 
    220 H220       -6.8055  -25.6058  -50.8081 H         1 UNK         0.3000 
    221 H221       -7.6933  -23.9626  -48.4904 H         1 UNK         0.0600 
    222 H222       -8.9490  -24.1201  -51.2976 H         1 UNK         0.0600 
    223 H223       -9.6836  -24.7494  -49.8239 H         1 UNK         0.0600 
    224 H224       -9.4353  -23.0210  -50.0118 H         1 UNK         0.0600 
    225 H225       -7.4010  -21.6628  -48.9057 H         1 UNK         0.3000 
    226 H226       -4.8400  -21.0740  -49.9904 H         1 UNK         0.0600 
    227 H227       -5.7694  -19.8825  -48.0444 H         1 UNK         0.0600 
    228 H228       -5.4148  -18.7307  -49.3274 H         1 UNK         0.0600 
    229 H229       -7.0763  -19.2171  -49.0240 H         1 UNK         0.0600 
    230 H230       -8.1198  -20.5468  -51.1941 H         1 UNK         0.3000 
    231 H231       -9.0418  -19.8365  -53.0800 H         1 UNK         0.0600 
    232 H232       -8.1039  -20.7267  -55.1885 H         1 UNK         0.0600 
    233 H233       -7.9167  -21.9146  -53.9160 H         1 UNK         0.0600 
    234 H234       -6.5275  -20.9689  -54.4313 H         1 UNK         0.0600 
    235 H235       -7.0859  -19.0014  -55.4437 H         1 UNK         0.3000 
    236 H236       -7.3918  -16.1861  -55.1647 H         1 UNK         0.0600 
    237 H237       -5.6962  -17.8367  -57.1159 H         1 UNK         0.0600 
    238 H238       -7.3785  -17.3601  -57.3532 H         1 UNK         0.0600 
    239 H239       -6.1169  -16.1400  -57.3147 H         1 UNK         0.0600 
    240 H240       -4.9368  -18.2612  -53.9215 H         1 UNK         0.3000 
    241 H241       -2.8389  -16.2447  -53.7656 H         1 UNK         0.0600 
    242 H242       -5.1927  -15.8584  -50.5097 H         1 UNK         0.3800 
    243 H243       -5.7469  -16.7259  -51.9199 H         1 UNK         0.3800 
    244 H244       -2.6419  -18.6893  -52.0390 H         1 UNK         0.0800 
    245 H245       -2.7983  -19.0312  -53.7195 H         1 UNK         0.0800 
    246 H246       -0.7534  -17.9936  -50.9334 H         1 UNK         0.0800 
    247 H247       -0.1384  -16.4837  -51.5488 H         1 UNK         0.0800 
@<TRIPOS>BOND
     1    1    2 1    
     2    1  127 1    
     3    1  128 1    
     4    1  129 1    
     5    2    3 2    
     6    2    4 am   BACKBONE|DICT|INTERRES
     7    4    5 1    
     8    4  130 1    
     9    5    6 1    
    10    5   65 1    
    11    5  131 1    
    12    6    7 1    
    13    6  132 1    
    14    6  133 1    
    15    7    8 1    
    16    8    9 1    
    17    8  134 1    
    18    8  135 1    
    19    9   10 ar   
    20    9   14 ar   
    21   10   11 ar   
    22   10  136 1    
    23   11   12 ar   
    24   11  126 1    
    25   12   13 ar   
    26   12  137 1    
    27   13   14 ar   
    28   13   15 1    
    29   14  138 1    
    30   15   16 1    
    31   15  139 1    
    32   15  140 1    
    33   16   17 1    
    34   17   18 1    
    35   17  141 1    
    36   17  142 1    
    37   18   19 1    
    38   18   67 1    
    39   18  143 1    
    40   19   20 am   BACKBONE|DICT|INTERRES
    41   19  144 1    
    42   20   21 2    
    43   20   22 1    
    44   22   23 1    
    45   22   24 1    
    46   22  145 1    
    47   23  146 1    
    48   23  147 1    
    49   23  148 1    
    50   24   25 am   BACKBONE|DICT|INTERRES
    51   24  149 1    
    52   25   26 2    
    53   25   27 1    
    54   27   28 1    
    55   27   29 1    
    56   27  150 1    
    57   28  151 1    
    58   28  152 1    
    59   28  153 1    
    60   29   30 am   BACKBONE|DICT|INTERRES
    61   29  154 1    
    62   30   31 2    
    63   30   32 1    
    64   32   33 1    
    65   32   34 1    
    66   32  155 1    
    67   33  156 1    
    68   33  157 1    
    69   33  158 1    
    70   34   35 am   BACKBONE|DICT|INTERRES
    71   34  159 1    
    72   35   36 2    
    73   35   37 1    
    74   37   38 1    
    75   37   39 1    
    76   37  160 1    
    77   38  161 1    
    78   38  162 1    
    79   38  163 1    
    80   39   40 am   BACKBONE|DICT|INTERRES
    81   39  164 1    
    82   40   41 2    
    83   40   42 1    
    84   42   43 1    
    85   42   44 1    
    86   42  165 1    
    87   43  166 1    
    88   43  167 1    
    89   43  168 1    
    90   44   45 am   BACKBONE|DICT|INTERRES
    91   44  169 1    
    92   45   46 2    
    93   45   47 1    
    94   47   48 1    
    95   47   49 1    
    96   47  170 1    
    97   48  171 1    
    98   48  172 1    
    99   48  173 1    
   100   49   50 am   BACKBONE|DICT|INTERRES
   101   49  174 1    
   102   50   51 2    
   103   50   52 1    
   104   52   53 1    
   105   52   54 1    
   106   52  175 1    
   107   53  176 1    
   108   53  177 1    
   109   53  178 1    
   110   54   55 am   BACKBONE|DICT|INTERRES
   111   54  179 1    
   112   55   56 2    
   113   55   57 1    
   114   57   58 1    
   115   57   59 1    
   116   57  180 1    
   117   58  181 1    
   118   58  182 1    
   119   58  183 1    
   120   59   60 am   BACKBONE|DICT|INTERRES
   121   59  184 1    
   122   60   61 2    
   123   60   62 1    
   124   62   63 1    
   125   62   64 1    
   126   62  185 1    
   127   63  186 1    
   128   63  187 1    
   129   63  188 1    
   130   64   65 am   BACKBONE|DICT|INTERRES
   131   64  189 1    
   132   65   66 2    
   133   67   68 2    
   134   67   69 am   BACKBONE|DICT|INTERRES
   135   69   70 1    
   136   69  190 1    
   137   70   71 1    
   138   70   72 1    
   139   70  191 1    
   140   71  192 1    
   141   71  193 1    
   142   71  194 1    
   143   72   73 2    
   144   72   74 am   BACKBONE|DICT|INTERRES
   145   74   75 1    
   146   74  195 1    
   147   75   76 1    
   148   75   77 1    
   149   75  196 1    
   150   76  197 1    
   151   76  198 1    
   152   76  199 1    
   153   77   78 2    
   154   77   79 am   BACKBONE|DICT|INTERRES
   155   79   80 1    
   156   79  200 1    
   157   80   81 1    
   158   80   82 1    
   159   80  201 1    
   160   81  202 1    
   161   81  203 1    
   162   81  204 1    
   163   82   83 2    
   164   82   84 am   BACKBONE|DICT|INTERRES
   165   84   85 1    
   166   84  205 1    
   167   85   86 1    
   168   85   87 1    
   169   85  206 1    
   170   86  207 1    
   171   86  208 1    
   172   86  209 1    
   173   87   88 2    
   174   87   89 am   BACKBONE|DICT|INTERRES
   175   89   90 1    
   176   89  210 1    
   177   90   91 1    
   178   90   92 1    
   179   90  211 1    
   180   91  212 1    
   181   91  213 1    
   182   91  214 1    
   183   92   93 2    
   184   92   94 am   BACKBONE|DICT|INTERRES
   185   94   95 1    
   186   94  215 1    
   187   95   96 1    
   188   95   97 1    
   189   95  216 1    
   190   96  217 1    
   191   96  218 1    
   192   96  219 1    
   193   97   98 2    
   194   97   99 am   BACKBONE|DICT|INTERRES
   195   99  100 1    
   196   99  220 1    
   197  100  101 1    
   198  100  102 1    
   199  100  221 1    
   200  101  222 1    
   201  101  223 1    
   202  101  224 1    
   203  102  103 2    
   204  102  104 am   BACKBONE|DICT|INTERRES
   205  104  105 1    
   206  104  225 1    
   207  105  106 1    
   208  105  107 1    
   209  105  226 1    
   210  106  227 1    
   211  106  228 1    
   212  106  229 1    
   213  107  108 2    
   214  107  109 am   BACKBONE|DICT|INTERRES
   215  109  110 1    
   216  109  230 1    
   217  110  111 1    
   218  110  112 1    
   219  110  231 1    
   220  111  232 1    
   221  111  233 1    
   222  111  234 1    
   223  112  113 2    
   224  112  114 am   BACKBONE|DICT|INTERRES
   225  114  115 1    
   226  114  235 1    
   227  115  116 1    
   228  115  117 1    
   229  115  236 1    
   230  116  237 1    
   231  116  238 1    
   232  116  239 1    
   233  117  118 2    
   234  117  119 am   BACKBONE|DICT|INTERRES
   235  119  120 1    
   236  119  240 1    
   237  120  121 1    
   238  120  124 1    
   239  120  241 1    
   240  121  122 am   BACKBONE|DICT|INTERRES
   241  121  123 2    
   242  122  242 1    
   243  122  243 1    
   244  124  125 1    
   245  124  244 1    
   246  124  245 1    
   247  125  126 1    
   248  126  246 1    
   249  126  247 1    
@<TRIPOS>SUBSTRUCTURE
     1 UNK         1 GROUP             0       ****    0 ROOT    
