@<TRIPOS>MOLECULE
3R540
247   249    1
SMALL
USER_CHARGES


@<TRIPOS>ATOM
      1 CA          6.3700  -15.9631  -48.7981 C.3       0 UNK        -0.1800 
      2 C           4.9229  -16.1977  -48.3898 C.2       0 UNK         0.5000 
      3 O           4.5722  -15.9756  -47.2332 O.2       0 UNK        -0.5000 
      4 N           4.0914  -16.6662  -49.3298 N.am      1 UNK        -0.5000 
      5 CA          2.6470  -16.9426  -49.2157 C.3       1 UNK         0.1400 
      6 C6          1.7912  -15.7330  -48.7509 C.3       23 UNK        -0.0398 
      7 S7          2.0537  -14.2442  -49.7774 S.3       23 UNK        -0.2404 
      8 C8          0.5660  -13.2620  -49.4061 C.3       23 UNK        -0.0205 
      9 C9         -0.6721  -13.8318  -50.0810 C.ar      23 UNK        -0.0193 
     10 C10        -0.8504  -13.6900  -51.4607 C.ar      23 UNK        -0.1150 
     11 C11        -1.9704  -14.2398  -52.0913 C.ar      23 UNK        -0.0193 
     12 C12        -2.9205  -14.9242  -51.3285 C.ar      23 UNK        -0.1150 
     13 C13        -2.7592  -15.0627  -49.9477 C.ar      23 UNK        -0.0193 
     14 C14        -1.6382  -14.5041  -49.3282 C.ar      23 UNK        -0.1150 
     15 C15        -3.7935  -15.8242  -49.1330 C.3       23 UNK        -0.0205 
     16 S16        -3.5733  -17.6231  -49.2944 S.3       23 UNK        -0.2404 
     17 C17        -2.0626  -17.8934  -48.2988 C.3       23 UNK        -0.0398 
     18 CA         -2.2239  -18.7315  -47.0042 C.3       11 UNK         0.1400 
     19 N          -2.8304  -18.0160  -45.8720 N.am      11 UNK        -0.5000 
     20 C          -4.0893  -17.6167  -45.6425 C.2       10 UNK         0.5000 
     21 O          -5.0332  -17.8174  -46.4043 O.2       10 UNK        -0.5000 
     22 CA         -4.3499  -16.9187  -44.2975 C.3       10 UNK         0.1400 
     23 CB         -4.6644  -17.9630  -43.2146 C.3       10 UNK        -0.1800 
     24 N          -3.2009  -16.1213  -43.8679 N.am      10 UNK        -0.5000 
     25 C          -3.0707  -14.8029  -44.0672 C.2       9 UNK         0.5000 
     26 O          -3.9299  -14.1025  -44.6036 O.2       9 UNK        -0.5000 
     27 CA         -1.7586  -14.1503  -43.5859 C.3       9 UNK         0.1400 
     28 CB         -1.9018  -13.6581  -42.1378 C.3       9 UNK        -0.1800 
     29 N          -0.6045  -15.0448  -43.6672 N.am      9 UNK        -0.5000 
     30 C          -0.0688  -15.4992  -44.8075 C.2       8 UNK         0.5000 
     31 O          -0.4511  -15.1664  -45.9288 O.2       8 UNK        -0.5000 
     32 CA          1.0718  -16.5221  -44.6748 C.3       8 UNK         0.1400 
     33 CB          2.4277  -15.8043  -44.6908 C.3       8 UNK        -0.1800 
     34 N           1.0027  -17.3715  -43.4807 N.am      8 UNK        -0.5000 
     35 C          -0.0162  -18.1680  -43.1271 C.2       7 UNK         0.5000 
     36 O          -1.0835  -18.2209  -43.7344 O.2       7 UNK        -0.5000 
     37 CA          0.1782  -19.0355  -41.8737 C.3       7 UNK         0.1400 
     38 CB          0.8661  -20.3630  -42.2287 C.3       7 UNK        -0.1800 
     39 N           0.9547  -18.3404  -40.8495 N.am      7 UNK        -0.5000 
     40 C           0.4526  -17.4139  -40.0213 C.2       6 UNK         0.5000 
     41 O          -0.7336  -17.0843  -39.9995 O.2       6 UNK        -0.5000 
     42 CA          1.4506  -16.7267  -39.0704 C.3       6 UNK         0.1400 
     43 CB          1.6143  -17.5413  -37.7783 C.3       6 UNK        -0.1800 
     44 N           2.7645  -16.5280  -39.6842 N.am      6 UNK        -0.5000 
     45 C           3.0106  -15.6686  -40.6828 C.2       5 UNK         0.5000 
     46 O           2.1639  -14.9101  -41.1557 O.2       5 UNK        -0.5000 
     47 CA          4.4354  -15.6804  -41.2708 C.3       5 UNK         0.1400 
     48 CB          5.3227  -14.6586  -40.5443 C.3       5 UNK        -0.1800 
     49 N           5.0867  -16.9948  -41.2356 N.am      5 UNK        -0.5000 
     50 C           4.6498  -18.0878  -41.8743 C.2       4 UNK         0.5000 
     51 O           3.5963  -18.1372  -42.5135 O.2       4 UNK        -0.5000 
     52 CA          5.5065  -19.3501  -41.7353 C.3       4 UNK         0.1400 
     53 CB          5.0819  -20.1584  -40.4979 C.3       4 UNK        -0.1800 
     54 N           5.3397  -20.1697  -42.9312 N.am      4 UNK        -0.5000 
     55 C           6.2990  -20.9074  -43.5023 C.2       3 UNK         0.5000 
     56 O           7.4431  -20.9962  -43.0538 O.2       3 UNK        -0.5000 
     57 CA          5.9350  -21.6957  -44.7787 C.3       3 UNK         0.1400 
     58 CB          5.8173  -23.1956  -44.4632 C.3       3 UNK        -0.1800 
     59 N           4.6963  -21.2598  -45.4296 N.am      3 UNK        -0.5000 
     60 C           4.5535  -20.1273  -46.1291 C.2       2 UNK         0.5000 
     61 O           5.4569  -19.3020  -46.2881 O.2       2 UNK        -0.5000 
     62 CA          3.1673  -19.8863  -46.7497 C.3       2 UNK         0.1400 
     63 CB          2.0608  -19.8980  -45.6787 C.3       2 UNK        -0.1800 
     64 N           3.1864  -18.6195  -47.4740 N.am      2 UNK        -0.5000 
     65 C           2.3140  -18.2180  -48.4045 C.2       1 UNK         0.5000 
     66 O           1.2867  -18.8397  -48.6739 O.2       1 UNK        -0.5000 
     67 C          -2.7715  -20.1472  -47.2797 C.2       11 UNK         0.5000 
     68 O          -2.0100  -20.9877  -47.7554 O.2       11 UNK        -0.5000 
     69 N          -4.0484  -20.4039  -46.9675 N.am      12 UNK        -0.5000 
     70 CA         -4.8258  -21.6105  -47.2668 C.3       12 UNK         0.1400 
     71 CB         -6.1990  -21.4844  -46.5917 C.3       12 UNK        -0.1800 
     72 C          -4.1677  -22.9538  -46.8958 C.2       12 UNK         0.5000 
     73 O          -4.4109  -23.9481  -47.5803 O.2       12 UNK        -0.5000 
     74 N          -3.3304  -22.9552  -45.8504 N.am      13 UNK        -0.5000 
     75 CA         -2.5346  -24.1043  -45.4142 C.3       13 UNK         0.1400 
     76 CB         -1.8685  -23.7645  -44.0716 C.3       13 UNK        -0.1800 
     77 C          -1.4723  -24.5462  -46.4426 C.2       13 UNK         0.5000 
     78 O          -1.1735  -25.7379  -46.5253 O.2       13 UNK        -0.5000 
     79 N          -0.9305  -23.5865  -47.2035 N.am      14 UNK        -0.5000 
     80 CA          0.0485  -23.8073  -48.2680 C.3       14 UNK         0.1400 
     81 CB          1.1641  -22.7597  -48.1379 C.3       14 UNK        -0.1800 
     82 C          -0.6080  -23.7193  -49.6564 C.2       14 UNK         0.5000 
     83 O          -0.2246  -24.4612  -50.5601 O.2       14 UNK        -0.5000 
     84 N          -1.6021  -22.8329  -49.7963 N.am      15 UNK        -0.5000 
     85 CA         -2.3374  -22.5387  -51.0266 C.3       15 UNK         0.1400 
     86 CB         -2.8612  -21.0940  -50.9482 C.3       15 UNK        -0.1800 
     87 C          -3.4716  -23.5385  -51.3388 C.2       15 UNK         0.5000 
     88 O          -4.3407  -23.2155  -52.1490 O.2       15 UNK        -0.5000 
     89 N          -3.4586  -24.7187  -50.7015 N.am      16 UNK        -0.5000 
     90 CA         -4.3458  -25.8658  -50.9291 C.3       16 UNK         0.1400 
     91 CB         -4.0600  -26.4883  -52.3123 C.3       16 UNK        -0.1800 
     92 C          -5.8331  -25.5147  -50.7321 C.2       16 UNK         0.5000 
     93 O          -6.6238  -25.6058  -51.6715 O.2       16 UNK        -0.5000 
     94 N          -6.1702  -25.0524  -49.5199 N.am      17 UNK        -0.5000 
     95 CA         -7.4868  -24.5410  -49.1119 C.3       17 UNK         0.1400 
     96 CB         -8.5686  -25.6391  -49.1879 C.3       17 UNK        -0.1800 
     97 C          -7.8781  -23.2498  -49.8645 C.2       17 UNK         0.5000 
     98 O          -9.0628  -22.9807  -50.0656 O.2       17 UNK        -0.5000 
     99 N          -6.8517  -22.4868  -50.2676 N.am      18 UNK        -0.5000 
    100 CA        -6.8888  -21.2536  -51.0571 C.3       18 UNK         0.1400 
    101 CB        -7.6750  -20.1397  -50.3357 C.3       18 UNK        -0.1800 
    102 C         -7.3269  -21.4589  -52.5231 C.2       18 UNK         0.5000 
    103 O         -7.6925  -20.4890  -53.1880 O.2       18 UNK        -0.5000 
    104 N         -7.2378  -22.6973  -53.0307 N.am      19 UNK        -0.5000 
    105 CA        -7.4578  -23.0249  -54.4410 C.3       19 UNK         0.1400 
    106 CB        -7.6443  -24.5417  -54.5890 C.3       19 UNK        -0.1800 
    107 C         -6.3084  -22.5372  -55.3447 C.2       19 UNK         0.5000 
    108 O         -6.5466  -22.2268  -56.5122 O.2       19 UNK        -0.5000 
    109 N         -5.0934  -22.4643  -54.7862 N.am      20 UNK        -0.5000 
    110 CA        -3.8692  -22.0159  -55.4474 C.3       20 UNK         0.1400 
    111 CB        -2.8082  -23.1246  -55.3236 C.3       20 UNK        -0.1800 
    112 C         -3.3810  -20.6751  -54.8629 C.2       20 UNK         0.5000 
    113 O         -2.1781  -20.4069  -54.8655 O.2       20 UNK        -0.5000 
    114 N         -4.3114  -19.8461  -54.3666 N.am      21 UNK        -0.5000 
    115 CA        -4.0557  -18.5223  -53.7916 C.3       21 UNK         0.1400 
    116 CB        -5.2422  -18.1280  -52.8958 C.3       21 UNK        -0.1800 
    117 C         -3.7570  -17.4708  -54.8810 C.2       21 UNK         0.5000 
    118 O         -4.5719  -16.5816  -55.1321 O.2       21 UNK        -0.5000 
    119 N         -2.5910  -17.6181  -55.5194 N.am      22 UNK        -0.5000 
    120 CA        -2.0275  -16.7495  -56.5706 C.3       22 UNK         0.1400 
    121 C         -2.7315  -16.8531  -57.9585 C.2       22 UNK         0.5000 
    122 N         -3.6255  -17.8081  -58.1829 N.am      22 UNK        -0.7600 
    123 O         -2.4406  -16.0747  -58.8630 O.2       22 UNK        -0.5000 
    124 C124       -1.8245  -15.2699  -56.1294 C.3       23 UNK        -0.0398 
    125 S125       -0.9648  -15.1026  -54.5244 S.3       23 UNK        -0.2404 
    126 C126       -2.1615  -14.0946  -53.5926 C.3       23 UNK        -0.0205 
    127 H127        6.6391  -14.9189  -48.6390 H         1 UNK         0.0600 
    128 H128        6.5401  -16.2022  -49.8482 H         1 UNK         0.0600 
    129 H129        7.0335  -16.5835  -48.1955 H         1 UNK         0.0600 
    130 H130        4.4719  -16.8449  -50.2485 H         1 UNK         0.3000 
    131 H131        2.3333  -17.1691  -50.2361 H         1 UNK         0.0600 
    132 H132        2.0045  -15.4776  -47.7148 H         1 UNK         0.0800 
    133 H133        0.7331  -15.9959  -48.7845 H         1 UNK         0.0800 
    134 H134        0.7228  -12.2393  -49.7518 H         1 UNK         0.0800 
    135 H135        0.4302  -13.2030  -48.3246 H         1 UNK         0.0800 
    136 H136       -0.1070  -13.1685  -52.0474 H         1 UNK         0.1150 
    137 H137       -3.7867  -15.3550  -51.8088 H         1 UNK         0.1150 
    138 H138       -1.5089  -14.6056  -48.2600 H         1 UNK         0.1150 
    139 H139       -3.7472  -15.5419  -48.0797 H         1 UNK         0.0800 
    140 H140       -4.7945  -15.5599  -49.4765 H         1 UNK         0.0800 
    141 H141       -1.6077  -16.9389  -48.0402 H         1 UNK         0.0800 
    142 H142       -1.3404  -18.3812  -48.9551 H         1 UNK         0.0800 
    143 H143       -1.2067  -18.9097  -46.6518 H         1 UNK         0.0600 
    144 H144       -2.1818  -17.8888  -45.0982 H         1 UNK         0.3000 
    145 H145       -5.2284  -16.2808  -44.4161 H         1 UNK         0.0600 
    146 H146       -4.9041  -17.4841  -42.2651 H         1 UNK         0.0600 
    147 H147       -5.5238  -18.5726  -43.4972 H         1 UNK         0.0600 
    148 H148       -3.8240  -18.6377  -43.0459 H         1 UNK         0.0600 
    149 H149       -2.4253  -16.6307  -43.4626 H         1 UNK         0.3000 
    150 H150       -1.5635  -13.2868  -44.2252 H         1 UNK         0.0600 
    151 H151       -2.7416  -12.9689  -42.0400 H         1 UNK         0.0600 
    152 H152       -1.0068  -13.1280  -41.8111 H         1 UNK         0.0600 
    153 H153       -2.0721  -14.4852  -41.4469 H         1 UNK         0.0600 
    154 H154       -0.2060  -15.3607  -42.7941 H         1 UNK         0.3000 
    155 H155        1.0177  -17.1729  -45.5488 H         1 UNK         0.0600 
    156 H156        2.5588  -15.1857  -43.8047 H         1 UNK         0.0600 
    157 H157        2.5210  -15.1439  -45.5518 H         1 UNK         0.0600 
    158 H158        3.2528  -16.5155  -44.7362 H         1 UNK         0.0600 
    159 H159        1.8654  -17.4514  -42.9505 H         1 UNK         0.3000 
    160 H160       -0.8116  -19.2670  -41.4742 H         1 UNK         0.0600 
    161 H161        0.9227  -21.0193  -41.3603 H         1 UNK         0.0600 
    162 H162        1.8805  -20.2114  -42.5970 H         1 UNK         0.0600 
    163 H163        0.3114  -20.8958  -43.0023 H         1 UNK         0.0600 
    164 H164        1.9496  -18.5120  -40.8414 H         1 UNK         0.3000 
    165 H165        1.0423  -15.7481  -38.8086 H         1 UNK         0.0600 
    166 H166        2.2641  -17.0287  -37.0688 H         1 UNK         0.0600 
    167 H167        0.6519  -17.6904  -37.2869 H         1 UNK         0.0600 
    168 H168        2.0398  -18.5266  -37.9730 H         1 UNK         0.0600 
    169 H169        3.5212  -17.1049  -39.3478 H         1 UNK         0.3000 
    170 H170        4.3628  -15.3792  -42.3169 H         1 UNK         0.0600 
    171 H171        4.8776  -13.6631  -40.5747 H         1 UNK         0.0600 
    172 H172        5.4657  -14.9224  -39.4956 H         1 UNK         0.0600 
    173 H173        6.3056  -14.5869  -41.0104 H         1 UNK         0.0600 
    174 H174        5.9516  -17.0476  -40.7167 H         1 UNK         0.3000 
    175 H175        6.5501  -19.0454  -41.6324 H         1 UNK         0.0600 
    176 H176        4.0405  -20.4766  -40.5635 H         1 UNK         0.0600 
    177 H177        5.6966  -21.0512  -40.3820 H         1 UNK         0.0600 
    178 H178        5.1908  -19.5696  -39.5863 H         1 UNK         0.0600 
    179 H179        4.4406  -20.0831  -43.3844 H         1 UNK         0.3000 
    180 H180        6.7568  -21.5616  -45.4853 H         1 UNK         0.0600 
    181 H181        5.0027  -23.3971  -43.7664 H         1 UNK         0.0600 
    182 H182        6.7355  -23.5749  -44.0125 H         1 UNK         0.0600 
    183 H183        5.6387  -23.7771  -45.3679 H         1 UNK         0.0600 
    184 H184        3.9089  -21.8857  -45.3441 H         1 UNK         0.3000 
    185 H185        2.9867  -20.6840  -47.4711 H         1 UNK         0.0600 
    186 H186        1.9347  -20.8918  -45.2490 H         1 UNK         0.0600 
    187 H187        2.3093  -19.2199  -44.8647 H         1 UNK         0.0600 
    188 H188        1.0929  -19.6066  -46.0842 H         1 UNK         0.0600 
    189 H189        4.0083  -18.0501  -47.2957 H         1 UNK         0.3000 
    190 H190       -4.5845  -19.6049  -46.6389 H         1 UNK         0.3000 
    191 H191       -4.9802  -21.6218  -48.3455 H         1 UNK         0.0600 
    192 H192       -6.8279  -22.3488  -46.8029 H         1 UNK         0.0600 
    193 H193       -6.7330  -20.6024  -46.9459 H         1 UNK         0.0600 
    194 H194       -6.1052  -21.4042  -45.5080 H         1 UNK         0.0600 
    195 H195       -3.1904  -22.0889  -45.3523 H         1 UNK         0.3000 
    196 H196       -3.2143  -24.9447  -45.2588 H         1 UNK         0.0600 
    197 H197       -1.2842  -24.6078  -43.7008 H         1 UNK         0.0600 
    198 H198       -2.6121  -23.5268  -43.3106 H         1 UNK         0.0600 
    199 H199       -1.1939  -22.9119  -44.1609 H         1 UNK         0.0600 
    200 H200       -1.2759  -22.6366  -47.1072 H         1 UNK         0.3000 
    201 H201        0.5004  -24.7969  -48.1732 H         1 UNK         0.0600 
    202 H202        1.6714  -22.8481  -47.1773 H         1 UNK         0.0600 
    203 H203        0.7750  -21.7434  -48.2198 H         1 UNK         0.0600 
    204 H204        1.9162  -22.8883  -48.9172 H         1 UNK         0.0600 
    205 H205       -1.8173  -22.2315  -49.0039 H         1 UNK         0.3000 
    206 H206       -1.6404  -22.5908  -51.8653 H         1 UNK         0.0600 
    207 H207       -2.0476  -20.3877  -50.7813 H         1 UNK         0.0600 
    208 H208       -3.3547  -20.7992  -51.8726 H         1 UNK         0.0600 
    209 H209       -3.5805  -20.9678  -50.1406 H         1 UNK         0.0600 
    210 H210       -2.7215  -24.8649  -50.0272 H         1 UNK         0.3000 
    211 H211       -4.0978  -26.6113  -50.1722 H         1 UNK         0.0600 
    212 H212       -3.0123  -26.7739  -52.4061 H         1 UNK         0.0600 
    213 H213       -4.2920  -25.7991  -53.1254 H         1 UNK         0.0600 
    214 H214       -4.6571  -27.3878  -52.4664 H         1 UNK         0.0600 
    215 H215       -5.4339  -24.9364  -48.8261 H         1 UNK         0.3000 
    216 H216       -7.3863  -24.2620  -48.0630 H         1 UNK         0.0600 
    217 H217       -9.4966  -25.3036  -48.7237 H         1 UNK         0.0600 
    218 H218       -8.2527  -26.5409  -48.6638 H         1 UNK         0.0600 
    219 H219       -8.8023  -25.9123  -50.2172 H         1 UNK         0.0600 
    220 H220       -5.9281  -22.8587  -50.1018 H         1 UNK         0.3000 
    221 H221       -5.8522  -20.9232  -51.1154 H         1 UNK         0.0600 
    222 H222       -8.7415  -20.3595  -50.2873 H         1 UNK         0.0600 
    223 H223       -7.3125  -19.9975  -49.3180 H         1 UNK         0.0600 
    224 H224       -7.5648  -19.1851  -50.8511 H         1 UNK         0.0600 
    225 H225       -6.9047  -23.4488  -52.4389 H         1 UNK         0.3000 
    226 H226       -8.3765  -22.5349  -54.7703 H         1 UNK         0.0600 
    227 H227       -7.8905  -24.8056  -55.6181 H         1 UNK         0.0600 
    228 H228       -6.7379  -25.0854  -54.3197 H         1 UNK         0.0600 
    229 H229       -8.4540  -24.9050  -53.9557 H         1 UNK         0.0600 
    230 H230       -4.9863  -22.7366  -53.8102 H         1 UNK         0.3000 
    231 H231       -4.0509  -21.8446  -56.5099 H         1 UNK         0.0600 
    232 H232       -3.1767  -24.0681  -55.7263 H         1 UNK         0.0600 
    233 H233       -2.5215  -23.2944  -54.2858 H         1 UNK         0.0600 
    234 H234       -1.9041  -22.8686  -55.8773 H         1 UNK         0.0600 
    235 H235       -5.2795  -20.1297  -54.4219 H         1 UNK         0.3000 
    236 H236       -3.1728  -18.5807  -53.1510 H         1 UNK         0.0600 
    237 H237       -5.3382  -18.8101  -52.0529 H         1 UNK         0.0600 
    238 H238       -5.1092  -17.1294  -52.4805 H         1 UNK         0.0600 
    239 H239       -6.1841  -18.1318  -53.4454 H         1 UNK         0.0600 
    240 H240       -2.0363  -18.4341  -55.2820 H         1 UNK         0.3000 
    241 H241       -1.0320  -17.1568  -56.7496 H         1 UNK         0.0600 
    242 H242       -3.8795  -18.4512  -57.4515 H         1 UNK         0.3800 
    243 H243       -4.0667  -17.8728  -59.0871 H         1 UNK         0.3800 
    244 H244       -1.2285  -14.7365  -56.8716 H         1 UNK         0.0800 
    245 H245       -2.7843  -14.7529  -56.0970 H         1 UNK         0.0800 
    246 H246       -3.1778  -14.3848  -53.8639 H         1 UNK         0.0800 
    247 H247       -2.0524  -13.0475  -53.8784 H         1 UNK         0.0800 
@<TRIPOS>BOND
     1    1    2 1    
     2    1  127 1    
     3    1  128 1    
     4    1  129 1    
     5    2    3 2    
     6    2    4 am   BACKBONE|DICT|INTERRES
     7    4    5 1    
     8    4  130 1    
     9    5    6 1    
    10    5   65 1    
    11    5  131 1    
    12    6    7 1    
    13    6  132 1    
    14    6  133 1    
    15    7    8 1    
    16    8    9 1    
    17    8  134 1    
    18    8  135 1    
    19    9   10 ar   
    20    9   14 ar   
    21   10   11 ar   
    22   10  136 1    
    23   11   12 ar   
    24   11  126 1    
    25   12   13 ar   
    26   12  137 1    
    27   13   14 ar   
    28   13   15 1    
    29   14  138 1    
    30   15   16 1    
    31   15  139 1    
    32   15  140 1    
    33   16   17 1    
    34   17   18 1    
    35   17  141 1    
    36   17  142 1    
    37   18   19 1    
    38   18   67 1    
    39   18  143 1    
    40   19   20 am   BACKBONE|DICT|INTERRES
    41   19  144 1    
    42   20   21 2    
    43   20   22 1    
    44   22   23 1    
    45   22   24 1    
    46   22  145 1    
    47   23  146 1    
    48   23  147 1    
    49   23  148 1    
    50   24   25 am   BACKBONE|DICT|INTERRES
    51   24  149 1    
    52   25   26 2    
    53   25   27 1    
    54   27   28 1    
    55   27   29 1    
    56   27  150 1    
    57   28  151 1    
    58   28  152 1    
    59   28  153 1    
    60   29   30 am   BACKBONE|DICT|INTERRES
    61   29  154 1    
    62   30   31 2    
    63   30   32 1    
    64   32   33 1    
    65   32   34 1    
    66   32  155 1    
    67   33  156 1    
    68   33  157 1    
    69   33  158 1    
    70   34   35 am   BACKBONE|DICT|INTERRES
    71   34  159 1    
    72   35   36 2    
    73   35   37 1    
    74   37   38 1    
    75   37   39 1    
    76   37  160 1    
    77   38  161 1    
    78   38  162 1    
    79   38  163 1    
    80   39   40 am   BACKBONE|DICT|INTERRES
    81   39  164 1    
    82   40   41 2    
    83   40   42 1    
    84   42   43 1    
    85   42   44 1    
    86   42  165 1    
    87   43  166 1    
    88   43  167 1    
    89   43  168 1    
    90   44   45 am   BACKBONE|DICT|INTERRES
    91   44  169 1    
    92   45   46 2    
    93   45   47 1    
    94   47   48 1    
    95   47   49 1    
    96   47  170 1    
    97   48  171 1    
    98   48  172 1    
    99   48  173 1    
   100   49   50 am   BACKBONE|DICT|INTERRES
   101   49  174 1    
   102   50   51 2    
   103   50   52 1    
   104   52   53 1    
   105   52   54 1    
   106   52  175 1    
   107   53  176 1    
   108   53  177 1    
   109   53  178 1    
   110   54   55 am   BACKBONE|DICT|INTERRES
   111   54  179 1    
   112   55   56 2    
   113   55   57 1    
   114   57   58 1    
   115   57   59 1    
   116   57  180 1    
   117   58  181 1    
   118   58  182 1    
   119   58  183 1    
   120   59   60 am   BACKBONE|DICT|INTERRES
   121   59  184 1    
   122   60   61 2    
   123   60   62 1    
   124   62   63 1    
   125   62   64 1    
   126   62  185 1    
   127   63  186 1    
   128   63  187 1    
   129   63  188 1    
   130   64   65 am   BACKBONE|DICT|INTERRES
   131   64  189 1    
   132   65   66 2    
   133   67   68 2    
   134   67   69 am   BACKBONE|DICT|INTERRES
   135   69   70 1    
   136   69  190 1    
   137   70   71 1    
   138   70   72 1    
   139   70  191 1    
   140   71  192 1    
   141   71  193 1    
   142   71  194 1    
   143   72   73 2    
   144   72   74 am   BACKBONE|DICT|INTERRES
   145   74   75 1    
   146   74  195 1    
   147   75   76 1    
   148   75   77 1    
   149   75  196 1    
   150   76  197 1    
   151   76  198 1    
   152   76  199 1    
   153   77   78 2    
   154   77   79 am   BACKBONE|DICT|INTERRES
   155   79   80 1    
   156   79  200 1    
   157   80   81 1    
   158   80   82 1    
   159   80  201 1    
   160   81  202 1    
   161   81  203 1    
   162   81  204 1    
   163   82   83 2    
   164   82   84 am   BACKBONE|DICT|INTERRES
   165   84   85 1    
   166   84  205 1    
   167   85   86 1    
   168   85   87 1    
   169   85  206 1    
   170   86  207 1    
   171   86  208 1    
   172   86  209 1    
   173   87   88 2    
   174   87   89 am   BACKBONE|DICT|INTERRES
   175   89   90 1    
   176   89  210 1    
   177   90   91 1    
   178   90   92 1    
   179   90  211 1    
   180   91  212 1    
   181   91  213 1    
   182   91  214 1    
   183   92   93 2    
   184   92   94 am   BACKBONE|DICT|INTERRES
   185   94   95 1    
   186   94  215 1    
   187   95   96 1    
   188   95   97 1    
   189   95  216 1    
   190   96  217 1    
   191   96  218 1    
   192   96  219 1    
   193   97   98 2    
   194   97   99 am   BACKBONE|DICT|INTERRES
   195   99  100 1    
   196   99  220 1    
   197  100  101 1    
   198  100  102 1    
   199  100  221 1    
   200  101  222 1    
   201  101  223 1    
   202  101  224 1    
   203  102  103 2    
   204  102  104 am   BACKBONE|DICT|INTERRES
   205  104  105 1    
   206  104  225 1    
   207  105  106 1    
   208  105  107 1    
   209  105  226 1    
   210  106  227 1    
   211  106  228 1    
   212  106  229 1    
   213  107  108 2    
   214  107  109 am   BACKBONE|DICT|INTERRES
   215  109  110 1    
   216  109  230 1    
   217  110  111 1    
   218  110  112 1    
   219  110  231 1    
   220  111  232 1    
   221  111  233 1    
   222  111  234 1    
   223  112  113 2    
   224  112  114 am   BACKBONE|DICT|INTERRES
   225  114  115 1    
   226  114  235 1    
   227  115  116 1    
   228  115  117 1    
   229  115  236 1    
   230  116  237 1    
   231  116  238 1    
   232  116  239 1    
   233  117  118 2    
   234  117  119 am   BACKBONE|DICT|INTERRES
   235  119  120 1    
   236  119  240 1    
   237  120  121 1    
   238  120  124 1    
   239  120  241 1    
   240  121  122 am   BACKBONE|DICT|INTERRES
   241  121  123 2    
   242  122  242 1    
   243  122  243 1    
   244  124  125 1    
   245  124  244 1    
   246  124  245 1    
   247  125  126 1    
   248  126  246 1    
   249  126  247 1    
@<TRIPOS>SUBSTRUCTURE
     1 UNK         1 GROUP             0       ****    0 ROOT    
