@<TRIPOS>MOLECULE
3R540
247   249    1
SMALL
USER_CHARGES


@<TRIPOS>ATOM
      1 CA          1.4680  -12.6213  -42.2121 C.3       0 UNK        -0.1800 
      2 C          -0.0230  -12.7637  -42.4813 C.2       0 UNK         0.5000 
      3 O          -0.8234  -12.7298  -41.5468 O.2       0 UNK        -0.5000 
      4 N          -0.3950  -12.9133  -43.7570 N.am      1 UNK        -0.5000 
      5 CA         -1.7833  -13.0027  -44.2272 C.3       1 UNK         0.1400 
      6 C6         -1.8814  -13.7644  -45.5706 C.3       23 UNK        -0.0398 
      7 S7         -1.3668  -15.5046  -45.3740 S.3       23 UNK        -0.2404 
      8 C8         -2.9074  -16.4035  -45.7373 C.3       23 UNK        -0.0205 
      9 C9         -2.9137  -16.9308  -47.1633 C.ar      23 UNK        -0.0193 
     10 C10        -3.1096  -16.0655  -48.2438 C.ar      23 UNK        -0.1150 
     11 C11        -3.0871  -16.5527  -49.5543 C.ar      23 UNK        -0.0193 
     12 C12        -2.8900  -17.9164  -49.7768 C.ar      23 UNK        -0.1150 
     13 C13        -2.6790  -18.7899  -48.7075 C.ar      23 UNK        -0.0193 
     14 C14        -2.7005  -18.2903  -47.4041 C.ar      23 UNK        -0.1150 
     15 C15        -2.3646  -20.2537  -48.9695 C.3       23 UNK        -0.0205 
     16 S16        -3.7452  -21.3543  -48.5388 S.3       23 UNK        -0.2404 
     17 C17        -3.2445  -21.9593  -46.8921 C.3       23 UNK        -0.0398 
     18 CA         -2.3793  -23.2428  -46.9962 C.3       11 UNK         0.1400 
     19 N          -0.9401  -22.9648  -46.9305 N.am      11 UNK        -0.5000 
     20 C           0.0156  -23.8665  -47.1978 C.2       10 UNK         0.5000 
     21 O          -0.2150  -25.0120  -47.5764 O.2       10 UNK        -0.5000 
     22 CA          1.4683  -23.4450  -46.9364 C.3       10 UNK         0.1400 
     23 CB          2.0194  -22.6029  -48.0980 C.3       10 UNK        -0.1800 
     24 N           1.5924  -22.7187  -45.6732 N.am      10 UNK        -0.5000 
     25 C           1.4760  -23.2883  -44.4650 C.2       9 UNK         0.5000 
     26 O           1.2909  -24.4939  -44.2961 O.2       9 UNK        -0.5000 
     27 CA          1.5457  -22.3539  -43.2417 C.3       9 UNK         0.1400 
     28 CB          3.0034  -22.1451  -42.8058 C.3       9 UNK        -0.1800 
     29 N           0.9216  -21.0507  -43.4773 N.am      9 UNK        -0.5000 
     30 C          -0.3919  -20.8627  -43.6658 C.2       8 UNK         0.5000 
     31 O          -1.2236  -21.7697  -43.6422 O.2       8 UNK        -0.5000 
     32 CA         -0.8430  -19.4285  -44.0053 C.3       8 UNK         0.1400 
     33 CB         -1.0039  -18.5923  -42.7274 C.3       8 UNK        -0.1800 
     34 N           0.0459  -18.7217  -44.9348 N.am      8 UNK        -0.5000 
     35 C           0.4633  -19.1779  -46.1242 C.2       7 UNK         0.5000 
     36 O           0.1487  -20.2849  -46.5581 O.2       7 UNK        -0.5000 
     37 CA          1.3825  -18.2774  -46.9752 C.3       7 UNK         0.1400 
     38 CB          0.8640  -18.1420  -48.4172 C.3       7 UNK        -0.1800 
     39 N           1.5855  -16.9332  -46.4348 N.am      7 UNK        -0.5000 
     40 C           2.4122  -16.5966  -45.4364 C.2       6 UNK         0.5000 
     41 O           3.0577  -17.4157  -44.7819 O.2       6 UNK        -0.5000 
     42 CA          2.5452  -15.0868  -45.1640 C.3       6 UNK         0.1400 
     43 CB          3.7847  -14.7260  -44.3250 C.3       6 UNK        -0.1800 
     44 N           2.5886  -14.3784  -46.4428 N.am      6 UNK        -0.5000 
     45 C           2.0046  -13.2097  -46.7163 C.2       5 UNK         0.5000 
     46 O           1.3846  -12.5303  -45.8927 O.2       5 UNK        -0.5000 
     47 CA          2.0970  -12.7499  -48.1755 C.3       5 UNK         0.1400 
     48 CB          1.0135  -13.4319  -49.0299 C.3       5 UNK        -0.1800 
     49 N           1.9284  -11.3033  -48.2349 N.am      5 UNK        -0.5000 
     50 C           2.5133  -10.4922  -49.1232 C.2       4 UNK         0.5000 
     51 O           3.2593  -10.8900  -50.0192 O.2       4 UNK        -0.5000 
     52 CA          2.2157   -8.9829  -49.0127 C.3       4 UNK         0.1400 
     53 CB          1.2415   -8.5503  -50.1202 C.3       4 UNK        -0.1800 
     54 N           1.6656   -8.5648  -47.7198 N.am      4 UNK        -0.5000 
     55 C           2.3667   -8.4705  -46.5797 C.2       3 UNK         0.5000 
     56 O           3.5504   -8.7902  -46.4727 O.2       3 UNK        -0.5000 
     57 CA          1.6066   -7.9356  -45.3569 C.3       3 UNK         0.1400 
     58 CB          1.5655   -6.3937  -45.3994 C.3       3 UNK        -0.1800 
     59 N           0.2623   -8.5153  -45.3177 N.am      3 UNK        -0.5000 
     60 C          -0.6535   -8.3511  -44.3550 C.2       2 UNK         0.5000 
     61 O          -0.4958   -7.6578  -43.3502 O.2       2 UNK        -0.5000 
     62 CA         -1.9425   -9.1616  -44.5279 C.3       2 UNK         0.1400 
     63 CB         -2.7021   -8.7724  -45.8125 C.3       2 UNK        -0.1800 
     64 N          -1.5858  -10.5761  -44.5259 N.am      2 UNK        -0.5000 
     65 C          -2.4231  -11.6033  -44.3400 C.2       1 UNK         0.5000 
     66 O          -3.6443  -11.4830  -44.2346 O.2       1 UNK        -0.5000 
     67 C          -2.8098  -24.3094  -45.9706 C.2       11 UNK         0.5000 
     68 O          -3.6178  -25.1702  -46.3175 O.2       11 UNK        -0.5000 
     69 N          -2.2446  -24.2746  -44.7558 N.am      12 UNK        -0.5000 
     70 CA         -2.4636  -25.2923  -43.7262 C.3       12 UNK         0.1400 
     71 CB         -1.8221  -24.8438  -42.4045 C.3       12 UNK        -0.1800 
     72 C          -1.9478  -26.6821  -44.1468 C.2       12 UNK         0.5000 
     73 O          -2.6555  -27.6720  -43.9588 O.2       12 UNK        -0.5000 
     74 N          -0.7446  -26.7271  -44.7361 N.am      13 UNK        -0.5000 
     75 CA         -0.1174  -27.9475  -45.2460 C.3       13 UNK         0.1400 
     76 CB          1.3608  -27.6671  -45.5572 C.3       13 UNK        -0.1800 
     77 C          -0.8334  -28.5239  -46.4826 C.2       13 UNK         0.5000 
     78 O          -1.0280  -29.7373  -46.5632 O.2       13 UNK        -0.5000 
     79 N          -1.2142  -27.6464  -47.4197 N.am      14 UNK        -0.5000 
     80 CA         -1.8554  -27.9958  -48.6891 C.3       14 UNK         0.1400 
     81 CB         -1.5910  -26.8656  -49.6972 C.3       14 UNK        -0.1800 
     82 C          -3.3690  -28.2607  -48.5765 C.2       14 UNK         0.5000 
     83 O          -3.9735  -28.6602  -49.5712 O.2       14 UNK        -0.5000 
     84 N          -3.9635  -28.0000  -47.4027 N.am      15 UNK        -0.5000 
     85 CA         -5.4006  -28.0614  -47.1085 C.3       15 UNK         0.1400 
     86 CB         -5.9217  -29.5119  -47.1795 C.3       15 UNK        -0.1800 
     87 C          -6.2033  -27.0758  -47.9849 C.2       15 UNK         0.5000 
     88 O          -7.1801  -27.4558  -48.6320 O.2       15 UNK        -0.5000 
     89 N          -5.7272  -25.8236  -48.0022 N.am      16 UNK        -0.5000 
     90 CA         -6.2304  -24.6506  -48.7245 C.3       16 UNK         0.1400 
     91 CB         -7.6912  -24.3373  -48.3439 C.3       16 UNK        -0.1800 
     92 C          -6.0256  -24.6815  -50.2532 C.2       16 UNK         0.5000 
     93 O          -6.3924  -23.7137  -50.9186 O.2       16 UNK        -0.5000 
     94 N          -5.4064  -25.7374  -50.8028 N.am      17 UNK        -0.5000 
     95 CA         -5.1305  -25.8670  -52.2400 C.3       17 UNK         0.1400 
     96 CB         -4.7048  -27.3082  -52.5540 C.3       17 UNK        -0.1800 
     97 C          -4.0850  -24.8592  -52.7640 C.2       17 UNK         0.5000 
     98 O          -4.0696  -24.5652  -53.9594 O.2       17 UNK        -0.5000 
     99 N          -3.2533  -24.3234  -51.8596 N.am      18 UNK        -0.5000 
    100 CA        -2.2539  -23.2906  -52.1376 C.3       18 UNK         0.1400 
    101 CB        -1.1941  -23.3099  -51.0230 C.3       18 UNK        -0.1800 
    102 C         -2.8472  -21.8748  -52.2942 C.2       18 UNK         0.5000 
    103 O         -2.0967  -20.9534  -52.6215 O.2       18 UNK        -0.5000 
    104 N         -4.1568  -21.6987  -52.0505 N.am      19 UNK        -0.5000 
    105 CA        -4.8521  -20.4054  -52.0665 C.3       19 UNK         0.1400 
    106 CB        -6.3216  -20.6020  -51.6699 C.3       19 UNK        -0.1800 
    107 C         -4.7515  -19.6469  -53.4031 C.2       19 UNK         0.5000 
    108 O         -4.7027  -18.4167  -53.4033 O.2       19 UNK        -0.5000 
    109 N         -4.6924  -20.3984  -54.5101 N.am      20 UNK        -0.5000 
    110 CA        -4.5035  -19.8744  -55.8619 C.3       20 UNK         0.1400 
    111 CB        -4.9344  -20.9497  -56.8714 C.3       20 UNK        -0.1800 
    112 C         -3.0567  -19.4214  -56.1447 C.2       20 UNK         0.5000 
    113 O         -2.8528  -18.6051  -57.0442 O.2       20 UNK        -0.5000 
    114 N         -2.0824  -19.9601  -55.3978 N.am      21 UNK        -0.5000 
    115 CA        -0.6648  -19.6320  -55.5302 C.3       21 UNK         0.1400 
    116 CB         0.1921  -20.8535  -55.1569 C.3       21 UNK        -0.1800 
    117 C         -0.3003  -18.4116  -54.6717 C.2       21 UNK         0.5000 
    118 O          0.2903  -17.4655  -55.1940 O.2       21 UNK        -0.5000 
    119 N         -0.6739  -18.4467  -53.3825 N.am      22 UNK        -0.5000 
    120 CA        -0.4236  -17.3736  -52.3994 C.3       22 UNK         0.1400 
    121 C          1.0894  -17.1084  -52.1090 C.2       22 UNK         0.5000 
    122 N          1.9556  -18.1065  -52.2416 N.am      22 UNK        -0.7600 
    123 O          1.4932  -16.0070  -51.7482 O.2       22 UNK        -0.5000 
    124 C124       -1.2556  -16.0988  -52.7308 C.3       23 UNK        -0.0398 
    125 S125       -1.6175  -15.0103  -51.3051 S.3       23 UNK        -0.2404 
    126 C126       -3.2421  -15.6028  -50.7302 C.3       23 UNK        -0.0205 
    127 H127        1.8646  -13.5456  -41.7925 H         1 UNK         0.0600 
    128 H128        1.6482  -11.8155  -41.5005 H         1 UNK         0.0600 
    129 H129        2.0194  -12.3924  -43.1241 H         1 UNK         0.0600 
    130 H130        0.3116  -12.8977  -44.4907 H         1 UNK         0.3000 
    131 H131       -2.3670  -13.5552  -43.4874 H         1 UNK         0.0600 
    132 H132       -1.2497  -13.2988  -46.3284 H         1 UNK         0.0800 
    133 H133       -2.8984  -13.7238  -45.9632 H         1 UNK         0.0800 
    134 H134       -3.7820  -15.7754  -45.5651 H         1 UNK         0.0800 
    135 H135       -2.9945  -17.2303  -45.0313 H         1 UNK         0.0800 
    136 H136       -3.2555  -15.0097  -48.0662 H         1 UNK         0.1150 
    137 H137       -2.8635  -18.2863  -50.7906 H         1 UNK         0.1150 
    138 H138       -2.5294  -18.9590  -46.5767 H         1 UNK         0.1150 
    139 H139       -2.1203  -20.3917  -50.0202 H         1 UNK         0.0800 
    140 H140       -1.4669  -20.5479  -48.4315 H         1 UNK         0.0800 
    141 H141       -4.1729  -22.1396  -46.3463 H         1 UNK         0.0800 
    142 H142       -2.7282  -21.1802  -46.3320 H         1 UNK         0.0800 
    143 H143       -2.5621  -23.7065  -47.9676 H         1 UNK         0.0600 
    144 H144       -0.6542  -22.0321  -46.6455 H         1 UNK         0.3000 
    145 H145        2.0722  -24.3523  -46.8669 H         1 UNK         0.0600 
    146 H146        3.0509  -22.3030  -47.9138 H         1 UNK         0.0600 
    147 H147        2.0082  -23.1752  -49.0265 H         1 UNK         0.0600 
    148 H148        1.4330  -21.7010  -48.2701 H         1 UNK         0.0600 
    149 H149        1.6430  -21.7116  -45.7354 H         1 UNK         0.3000 
    150 H150        1.0122  -22.8410  -42.4228 H         1 UNK         0.0600 
    151 H151        3.4909  -23.1000  -42.6041 H         1 UNK         0.0600 
    152 H152        3.0608  -21.5529  -41.8923 H         1 UNK         0.0600 
    153 H153        3.5852  -21.6349  -43.5745 H         1 UNK         0.0600 
    154 H154        1.5354  -20.2508  -43.5333 H         1 UNK         0.3000 
    155 H155       -1.8213  -19.5057  -44.4806 H         1 UNK         0.0600 
    156 H156       -0.0485  -18.4378  -42.2245 H         1 UNK         0.0600 
    157 H157       -1.6729  -19.0839  -42.0198 H         1 UNK         0.0600 
    158 H158       -1.4288  -17.6126  -42.9465 H         1 UNK         0.0600 
    159 H159        0.3390  -17.7960  -44.6616 H         1 UNK         0.3000 
    160 H160        2.3501  -18.7813  -47.0169 H         1 UNK         0.0600 
    161 H161       -0.0693  -17.5803  -48.4576 H         1 UNK         0.0600 
    162 H162        0.6854  -19.1156  -48.8750 H         1 UNK         0.0600 
    163 H163        1.5881  -17.6224  -49.0447 H         1 UNK         0.0600 
    164 H164        1.0509  -16.1981  -46.8750 H         1 UNK         0.3000 
    165 H165        1.6530  -14.7936  -44.6081 H         1 UNK         0.0600 
    166 H166        3.8572  -13.6499  -44.1688 H         1 UNK         0.0600 
    167 H167        3.7420  -15.1949  -43.3413 H         1 UNK         0.0600 
    168 H168        4.7050  -15.0546  -44.8092 H         1 UNK         0.0600 
    169 H169        3.0654  -14.8700  -47.1870 H         1 UNK         0.3000 
    170 H170        3.0845  -13.0220  -48.5546 H         1 UNK         0.0600 
    171 H171        1.1160  -14.5178  -49.0097 H         1 UNK         0.0600 
    172 H172        0.0098  -13.1909  -48.6774 H         1 UNK         0.0600 
    173 H173        1.0820  -13.1252  -50.0738 H         1 UNK         0.0600 
    174 H174        1.3830  -10.9097  -47.4818 H         1 UNK         0.3000 
    175 H175        3.1598   -8.4561  -49.1674 H         1 UNK         0.0600 
    176 H176        0.2700   -9.0344  -50.0128 H         1 UNK         0.0600 
    177 H177        1.0839   -7.4716  -50.1091 H         1 UNK         0.0600 
    178 H178        1.6291   -8.8090  -51.1065 H         1 UNK         0.0600 
    179 H179        0.7148   -8.2264  -47.7338 H         1 UNK         0.3000 
    180 H180        2.1446   -8.2538  -44.4617 H         1 UNK         0.0600 
    181 H181        1.1767   -5.9732  -44.4726 H         1 UNK         0.0600 
    182 H182        0.9440   -6.0302  -46.2184 H         1 UNK         0.0600 
    183 H183        2.5654   -5.9800  -45.5375 H         1 UNK         0.0600 
    184 H184        0.0420   -9.1425  -46.0770 H         1 UNK         0.3000 
    185 H185       -2.5822   -8.9593  -43.6661 H         1 UNK         0.0600 
    186 H186       -3.6799   -9.2521  -45.8543 H         1 UNK         0.0600 
    187 H187       -2.8716   -7.6958  -45.8539 H         1 UNK         0.0600 
    188 H188       -2.1567   -9.0562  -46.7128 H         1 UNK         0.0600 
    189 H189       -0.5952  -10.7773  -44.5418 H         1 UNK         0.3000 
    190 H190       -1.6413  -23.4960  -44.5092 H         1 UNK         0.3000 
    191 H191       -3.5406  -25.3746  -43.5653 H         1 UNK         0.0600 
    192 H192       -1.9973  -25.5778  -41.6171 H         1 UNK         0.0600 
    193 H193       -2.2413  -23.8965  -42.0649 H         1 UNK         0.0600 
    194 H194       -0.7441  -24.7168  -42.5004 H         1 UNK         0.0600 
    195 H195       -0.2076  -25.8708  -44.8204 H         1 UNK         0.3000 
    196 H196       -0.1582  -28.7020  -44.4576 H         1 UNK         0.0600 
    197 H197        1.4731  -26.8936  -46.3177 H         1 UNK         0.0600 
    198 H198        1.8948  -27.3374  -44.6658 H         1 UNK         0.0600 
    199 H199        1.8610  -28.5644  -45.9235 H         1 UNK         0.0600 
    200 H200       -0.9616  -26.6667  -47.3040 H         1 UNK         0.3000 
    201 H201       -1.3936  -28.9073  -49.0741 H         1 UNK         0.0600 
    202 H202       -2.0749  -25.9372  -49.3921 H         1 UNK         0.0600 
    203 H203       -1.9623  -27.1228  -50.6885 H         1 UNK         0.0600 
    204 H204       -0.5235  -26.6695  -49.7985 H         1 UNK         0.0600 
    205 H205       -3.3830  -27.6263  -46.6636 H         1 UNK         0.3000 
    206 H206       -5.5163  -27.7211  -46.0783 H         1 UNK         0.0600 
    207 H207       -5.3384  -30.1708  -46.5364 H         1 UNK         0.0600 
    208 H208       -6.9589  -29.5683  -46.8472 H         1 UNK         0.0600 
    209 H209       -5.8829  -29.9122  -48.1929 H         1 UNK         0.0600 
    210 H210       -4.9117  -25.6404  -47.4169 H         1 UNK         0.3000 
    211 H211       -5.6233  -23.8174  -48.3689 H         1 UNK         0.0600 
    212 H212       -8.0023  -23.3748  -48.7518 H         1 UNK         0.0600 
    213 H213       -7.8146  -24.2843  -47.2623 H         1 UNK         0.0600 
    214 H214       -8.3822  -25.0888  -48.7262 H         1 UNK         0.0600 
    215 H215       -5.1516  -26.5185  -50.2135 H         1 UNK         0.3000 
    216 H216       -6.0619  -25.6711  -52.7756 H         1 UNK         0.0600 
    217 H217       -3.7596  -27.5645  -52.0775 H         1 UNK         0.0600 
    218 H218       -4.5779  -27.4518  -53.6277 H         1 UNK         0.0600 
    219 H219       -5.4544  -28.0244  -52.2168 H         1 UNK         0.0600 
    220 H220       -3.3486  -24.6151  -50.8992 H         1 UNK         0.3000 
    221 H221       -1.7566  -23.5329  -53.0790 H         1 UNK         0.0600 
    222 H222       -0.7082  -24.2830  -50.9550 H         1 UNK         0.0600 
    223 H223       -1.6273  -23.0825  -50.0500 H         1 UNK         0.0600 
    224 H224       -0.4111  -22.5738  -51.2100 H         1 UNK         0.0600 
    225 H225       -4.7138  -22.4971  -51.7730 H         1 UNK         0.3000 
    226 H226       -4.3911  -19.7829  -51.3023 H         1 UNK         0.0600 
    227 H227       -6.8335  -21.2862  -52.3475 H         1 UNK         0.0600 
    228 H228       -6.4037  -21.0029  -50.6594 H         1 UNK         0.0600 
    229 H229       -6.8628  -19.6551  -51.6847 H         1 UNK         0.0600 
    230 H230       -4.7378  -21.4026  -54.4112 H         1 UNK         0.3000 
    231 H231       -5.1523  -19.0055  -55.9915 H         1 UNK         0.0600 
    232 H232       -4.3293  -21.8527  -56.7803 H         1 UNK         0.0600 
    233 H233       -4.8331  -20.5881  -57.8956 H         1 UNK         0.0600 
    234 H234       -5.9786  -21.2289  -56.7289 H         1 UNK         0.0600 
    235 H235       -2.3339  -20.5564  -54.6193 H         1 UNK         0.3000 
    236 H236       -0.4466  -19.3876  -56.5722 H         1 UNK         0.0600 
    237 H237       -0.0462  -21.7079  -55.7906 H         1 UNK         0.0600 
    238 H238        1.2528  -20.6371  -55.2901 H         1 UNK         0.0600 
    239 H239        0.0500  -21.1581  -54.1203 H         1 UNK         0.0600 
    240 H240       -1.1530  -19.2742  -53.0390 H         1 UNK         0.3000 
    241 H241       -0.7921  -17.7704  -51.4570 H         1 UNK         0.0600 
    242 H242        2.9316  -17.9398  -52.0559 H         1 UNK         0.3800 
    243 H243        1.6491  -19.0193  -52.5361 H         1 UNK         0.3800 
    244 H244       -2.2063  -16.3834  -53.1838 H         1 UNK         0.0800 
    245 H245       -0.7435  -15.5054  -53.4897 H         1 UNK         0.0800 
    246 H246       -3.8409  -14.7416  -50.4302 H         1 UNK         0.0800 
    247 H247       -3.7921  -16.0843  -51.5402 H         1 UNK         0.0800 
@<TRIPOS>BOND
     1    1    2 1    
     2    1  127 1    
     3    1  128 1    
     4    1  129 1    
     5    2    3 2    
     6    2    4 am   BACKBONE|DICT|INTERRES
     7    4    5 1    
     8    4  130 1    
     9    5    6 1    
    10    5   65 1    
    11    5  131 1    
    12    6    7 1    
    13    6  132 1    
    14    6  133 1    
    15    7    8 1    
    16    8    9 1    
    17    8  134 1    
    18    8  135 1    
    19    9   10 ar   
    20    9   14 ar   
    21   10   11 ar   
    22   10  136 1    
    23   11   12 ar   
    24   11  126 1    
    25   12   13 ar   
    26   12  137 1    
    27   13   14 ar   
    28   13   15 1    
    29   14  138 1    
    30   15   16 1    
    31   15  139 1    
    32   15  140 1    
    33   16   17 1    
    34   17   18 1    
    35   17  141 1    
    36   17  142 1    
    37   18   19 1    
    38   18   67 1    
    39   18  143 1    
    40   19   20 am   BACKBONE|DICT|INTERRES
    41   19  144 1    
    42   20   21 2    
    43   20   22 1    
    44   22   23 1    
    45   22   24 1    
    46   22  145 1    
    47   23  146 1    
    48   23  147 1    
    49   23  148 1    
    50   24   25 am   BACKBONE|DICT|INTERRES
    51   24  149 1    
    52   25   26 2    
    53   25   27 1    
    54   27   28 1    
    55   27   29 1    
    56   27  150 1    
    57   28  151 1    
    58   28  152 1    
    59   28  153 1    
    60   29   30 am   BACKBONE|DICT|INTERRES
    61   29  154 1    
    62   30   31 2    
    63   30   32 1    
    64   32   33 1    
    65   32   34 1    
    66   32  155 1    
    67   33  156 1    
    68   33  157 1    
    69   33  158 1    
    70   34   35 am   BACKBONE|DICT|INTERRES
    71   34  159 1    
    72   35   36 2    
    73   35   37 1    
    74   37   38 1    
    75   37   39 1    
    76   37  160 1    
    77   38  161 1    
    78   38  162 1    
    79   38  163 1    
    80   39   40 am   BACKBONE|DICT|INTERRES
    81   39  164 1    
    82   40   41 2    
    83   40   42 1    
    84   42   43 1    
    85   42   44 1    
    86   42  165 1    
    87   43  166 1    
    88   43  167 1    
    89   43  168 1    
    90   44   45 am   BACKBONE|DICT|INTERRES
    91   44  169 1    
    92   45   46 2    
    93   45   47 1    
    94   47   48 1    
    95   47   49 1    
    96   47  170 1    
    97   48  171 1    
    98   48  172 1    
    99   48  173 1    
   100   49   50 am   BACKBONE|DICT|INTERRES
   101   49  174 1    
   102   50   51 2    
   103   50   52 1    
   104   52   53 1    
   105   52   54 1    
   106   52  175 1    
   107   53  176 1    
   108   53  177 1    
   109   53  178 1    
   110   54   55 am   BACKBONE|DICT|INTERRES
   111   54  179 1    
   112   55   56 2    
   113   55   57 1    
   114   57   58 1    
   115   57   59 1    
   116   57  180 1    
   117   58  181 1    
   118   58  182 1    
   119   58  183 1    
   120   59   60 am   BACKBONE|DICT|INTERRES
   121   59  184 1    
   122   60   61 2    
   123   60   62 1    
   124   62   63 1    
   125   62   64 1    
   126   62  185 1    
   127   63  186 1    
   128   63  187 1    
   129   63  188 1    
   130   64   65 am   BACKBONE|DICT|INTERRES
   131   64  189 1    
   132   65   66 2    
   133   67   68 2    
   134   67   69 am   BACKBONE|DICT|INTERRES
   135   69   70 1    
   136   69  190 1    
   137   70   71 1    
   138   70   72 1    
   139   70  191 1    
   140   71  192 1    
   141   71  193 1    
   142   71  194 1    
   143   72   73 2    
   144   72   74 am   BACKBONE|DICT|INTERRES
   145   74   75 1    
   146   74  195 1    
   147   75   76 1    
   148   75   77 1    
   149   75  196 1    
   150   76  197 1    
   151   76  198 1    
   152   76  199 1    
   153   77   78 2    
   154   77   79 am   BACKBONE|DICT|INTERRES
   155   79   80 1    
   156   79  200 1    
   157   80   81 1    
   158   80   82 1    
   159   80  201 1    
   160   81  202 1    
   161   81  203 1    
   162   81  204 1    
   163   82   83 2    
   164   82   84 am   BACKBONE|DICT|INTERRES
   165   84   85 1    
   166   84  205 1    
   167   85   86 1    
   168   85   87 1    
   169   85  206 1    
   170   86  207 1    
   171   86  208 1    
   172   86  209 1    
   173   87   88 2    
   174   87   89 am   BACKBONE|DICT|INTERRES
   175   89   90 1    
   176   89  210 1    
   177   90   91 1    
   178   90   92 1    
   179   90  211 1    
   180   91  212 1    
   181   91  213 1    
   182   91  214 1    
   183   92   93 2    
   184   92   94 am   BACKBONE|DICT|INTERRES
   185   94   95 1    
   186   94  215 1    
   187   95   96 1    
   188   95   97 1    
   189   95  216 1    
   190   96  217 1    
   191   96  218 1    
   192   96  219 1    
   193   97   98 2    
   194   97   99 am   BACKBONE|DICT|INTERRES
   195   99  100 1    
   196   99  220 1    
   197  100  101 1    
   198  100  102 1    
   199  100  221 1    
   200  101  222 1    
   201  101  223 1    
   202  101  224 1    
   203  102  103 2    
   204  102  104 am   BACKBONE|DICT|INTERRES
   205  104  105 1    
   206  104  225 1    
   207  105  106 1    
   208  105  107 1    
   209  105  226 1    
   210  106  227 1    
   211  106  228 1    
   212  106  229 1    
   213  107  108 2    
   214  107  109 am   BACKBONE|DICT|INTERRES
   215  109  110 1    
   216  109  230 1    
   217  110  111 1    
   218  110  112 1    
   219  110  231 1    
   220  111  232 1    
   221  111  233 1    
   222  111  234 1    
   223  112  113 2    
   224  112  114 am   BACKBONE|DICT|INTERRES
   225  114  115 1    
   226  114  235 1    
   227  115  116 1    
   228  115  117 1    
   229  115  236 1    
   230  116  237 1    
   231  116  238 1    
   232  116  239 1    
   233  117  118 2    
   234  117  119 am   BACKBONE|DICT|INTERRES
   235  119  120 1    
   236  119  240 1    
   237  120  121 1    
   238  120  124 1    
   239  120  241 1    
   240  121  122 am   BACKBONE|DICT|INTERRES
   241  121  123 2    
   242  122  242 1    
   243  122  243 1    
   244  124  125 1    
   245  124  244 1    
   246  124  245 1    
   247  125  126 1    
   248  126  246 1    
   249  126  247 1    
@<TRIPOS>SUBSTRUCTURE
     1 UNK         1 GROUP             0       ****    0 ROOT    
