@<TRIPOS>MOLECULE
3R540
247   249    1
SMALL
USER_CHARGES


@<TRIPOS>ATOM
      1 CA         -2.7709  -15.3207  -51.6393 C.3       0 UNK        -0.1800 
      2 C          -1.8404  -14.5527  -50.7128 C.2       0 UNK         0.5000 
      3 O          -1.8467  -13.3213  -50.7203 O.2       0 UNK        -0.5000 
      4 N          -1.0309  -15.2752  -49.9299 N.am      1 UNK        -0.5000 
      5 CA         -0.0904  -14.7221  -48.9508 C.3       1 UNK         0.1400 
      6 C6          0.9157  -15.7725  -48.4180 C.3       23 UNK        -0.0398 
      7 S7          1.7197  -16.7991  -49.6994 S.3       23 UNK        -0.2404 
      8 C8          1.0752  -18.4628  -49.3132 C.3       23 UNK        -0.0205 
      9 C9         -0.3710  -18.6238  -49.7557 C.ar      23 UNK        -0.0193 
     10 C10        -0.6649  -19.1050  -51.0347 C.ar      23 UNK        -0.1150 
     11 C11        -1.9904  -19.2126  -51.4663 C.ar      23 UNK        -0.0193 
     12 C12        -3.0238  -18.8371  -50.6045 C.ar      23 UNK        -0.1150 
     13 C13        -2.7436  -18.3595  -49.3225 C.ar      23 UNK        -0.0193 
     14 C14        -1.4161  -18.2739  -48.8965 C.ar      23 UNK        -0.1150 
     15 C15        -3.8745  -17.9035  -48.4148 C.3       23 UNK        -0.0205 
     16 S16        -4.6146  -19.2910  -47.5021 S.3       23 UNK        -0.2404 
     17 C17        -3.2871  -19.6997  -46.3184 C.3       23 UNK        -0.0398 
     18 CA         -2.4800  -20.9542  -46.7307 C.3       11 UNK         0.1400 
     19 N          -1.1653  -20.9971  -46.0830 N.am      11 UNK        -0.5000 
     20 C          -0.2485  -21.9588  -46.2658 C.2       10 UNK         0.5000 
     21 O          -0.3713  -22.8680  -47.0863 O.2       10 UNK        -0.5000 
     22 CA          0.9783  -21.9654  -45.3348 C.3       10 UNK         0.1400 
     23 CB          2.2081  -21.4006  -46.0593 C.3       10 UNK        -0.1800 
     24 N           0.7697  -21.2658  -44.0619 N.am      10 UNK        -0.5000 
     25 C          -0.1519  -21.5910  -43.1409 C.2       9 UNK         0.5000 
     26 O          -0.9277  -22.5412  -43.2597 O.2       9 UNK        -0.5000 
     27 CA         -0.2745  -20.6635  -41.9173 C.3       9 UNK         0.1400 
     28 CB          0.7677  -21.0238  -40.8489 C.3       9 UNK        -0.1800 
     29 N          -0.1562  -19.2474  -42.2737 N.am      9 UNK        -0.5000 
     30 C          -1.0420  -18.5820  -43.0304 C.2       8 UNK         0.5000 
     31 O          -2.0912  -19.0769  -43.4389 O.2       8 UNK        -0.5000 
     32 CA         -0.6700  -17.1480  -43.4550 C.3       8 UNK         0.1400 
     33 CB         -1.0088  -16.1341  -42.3529 C.3       8 UNK        -0.1800 
     34 N           0.7422  -17.0318  -43.8156 N.am      8 UNK        -0.5000 
     35 C           1.3092  -17.6525  -44.8590 C.2       7 UNK         0.5000 
     36 O           0.6715  -18.2977  -45.6899 O.2       7 UNK        -0.5000 
     37 CA          2.8448  -17.5870  -44.9596 C.3       7 UNK         0.1400 
     38 CB          3.3113  -16.3471  -45.7320 C.3       7 UNK        -0.1800 
     39 N           3.4752  -17.5996  -43.6408 N.am      7 UNK        -0.5000 
     40 C           3.5988  -18.6955  -42.8809 C.2       6 UNK         0.5000 
     41 O           3.1977  -19.8078  -43.2200 O.2       6 UNK        -0.5000 
     42 CA          4.2466  -18.5084  -41.4973 C.3       6 UNK         0.1400 
     43 CB          5.7773  -18.5725  -41.6033 C.3       6 UNK        -0.1800 
     44 N           3.8559  -17.2494  -40.8616 N.am      6 UNK        -0.5000 
     45 C           2.6141  -16.9734  -40.4409 C.2       5 UNK         0.5000 
     46 O           1.6751  -17.7650  -40.5196 O.2       5 UNK        -0.5000 
     47 CA          2.3718  -15.5589  -39.8846 C.3       5 UNK         0.1400 
     48 CB          2.7285  -15.4973  -38.3920 C.3       5 UNK        -0.1800 
     49 N           3.1021  -14.5101  -40.6040 N.am      5 UNK        -0.5000 
     50 C           2.9317  -14.2145  -41.8991 C.2       4 UNK         0.5000 
     51 O           2.1930  -14.8479  -42.6554 O.2       4 UNK        -0.5000 
     52 CA          3.7237  -13.0190  -42.4505 C.3       4 UNK         0.1400 
     53 CB          4.7455  -13.4721  -43.5040 C.3       4 UNK        -0.1800 
     54 N           2.8100  -12.0503  -43.0495 N.am      4 UNK        -0.5000 
     55 C           2.0305  -11.2134  -42.3568 C.2       3 UNK         0.5000 
     56 O           2.0622  -11.1151  -41.1292 O.2       3 UNK        -0.5000 
     57 CA          1.0415  -10.3440  -43.1552 C.3       3 UNK         0.1400 
     58 CB          1.7601   -9.1837  -43.8714 C.3       3 UNK        -0.1800 
     59 N           0.1698  -11.0941  -44.0706 N.am      3 UNK        -0.5000 
     60 C           0.4840  -11.7341  -45.2053 C.2       2 UNK         0.5000 
     61 O           1.6310  -11.8364  -45.6514 O.2       2 UNK        -0.5000 
     62 CA         -0.6961  -12.3518  -45.9737 C.3       2 UNK         0.1400 
     63 CB         -1.6971  -11.2745  -46.4378 C.3       2 UNK        -0.1800 
     64 N          -0.1914  -13.0812  -47.1329 N.am      2 UNK        -0.5000 
     65 C          -0.8309  -14.0730  -47.7604 C.2       1 UNK         0.5000 
     66 O          -1.9327  -14.5040  -47.4091 O.2       1 UNK        -0.5000 
     67 C          -3.2913  -22.2440  -46.4759 C.2       11 UNK         0.5000 
     68 O          -3.8847  -22.7869  -47.4061 O.2       11 UNK        -0.5000 
     69 N          -3.2611  -22.7363  -45.2314 N.am      12 UNK        -0.5000 
     70 CA         -3.8921  -23.9915  -44.8394 C.3       12 UNK         0.1400 
     71 CB         -4.3807  -23.8777  -43.3872 C.3       12 UNK        -0.1800 
     72 C          -2.9245  -25.1750  -44.9950 C.2       12 UNK         0.5000 
     73 O          -3.3211  -26.2155  -45.5187 O.2       12 UNK        -0.5000 
     74 N          -1.6830  -25.0062  -44.5197 N.am      13 UNK        -0.5000 
     75 CA         -0.7139  -26.0921  -44.3689 C.3       13 UNK         0.1400 
     76 CB          0.3760  -25.6628  -43.3743 C.3       13 UNK        -0.1800 
     77 C          -0.0846  -26.5880  -45.6839 C.2       13 UNK         0.5000 
     78 O           0.2937  -27.7588  -45.7468 O.2       13 UNK        -0.5000 
     79 N           0.0375  -25.7132  -46.6916 N.am      14 UNK        -0.5000 
     80 CA          0.6847  -26.0204  -47.9690 C.3       14 UNK         0.1400 
     81 CB          1.9529  -25.1640  -48.1255 C.3       14 UNK        -0.1800 
     82 C          -0.2717  -25.8108  -49.1508 C.2       14 UNK         0.5000 
     83 O          -0.3920  -26.7024  -49.9918 O.2       14 UNK        -0.5000 
     84 N          -0.9385  -24.6491  -49.2018 N.am      15 UNK        -0.5000 
     85 CA         -1.8395  -24.2742  -50.2961 C.3       15 UNK         0.1400 
     86 CB         -1.9430  -22.7436  -50.3783 C.3       15 UNK        -0.1800 
     87 C          -3.2357  -24.9196  -50.1975 C.2       15 UNK         0.5000 
     88 O          -3.9816  -24.8662  -51.1740 O.2       15 UNK        -0.5000 
     89 N          -3.5702  -25.5132  -49.0409 N.am      16 UNK        -0.5000 
     90 CA         -4.8093  -26.2481  -48.7519 C.3       16 UNK         0.1400 
     91 CB         -4.8309  -27.5798  -49.5307 C.3       16 UNK        -0.1800 
     92 C          -6.0927  -25.4118  -48.9569 C.2       16 UNK         0.5000 
     93 O          -7.1062  -25.9356  -49.4229 O.2       16 UNK        -0.5000 
     94 N          -6.0138  -24.1204  -48.6074 N.am      17 UNK        -0.5000 
     95 CA         -7.0514  -23.0919  -48.7182 C.3       17 UNK         0.1400 
     96 CB         -8.2590  -23.4233  -47.8165 C.3       17 UNK        -0.1800 
     97 C          -7.4543  -22.7494  -50.1698 C.2       17 UNK         0.5000 
     98 O          -8.5483  -22.2242  -50.3886 O.2       17 UNK        -0.5000 
     99 N          -6.5652  -23.0176  -51.1376 N.am      18 UNK        -0.5000 
    100 CA        -6.6897  -22.5620  -52.5237 C.3       18 UNK         0.1400 
    101 CB        -5.6778  -23.3227  -53.3951 C.3       18 UNK        -0.1800 
    102 C         -6.4671  -21.0412  -52.6470 C.2       18 UNK         0.5000 
    103 O         -5.9256  -20.4149  -51.7338 O.2       18 UNK        -0.5000 
    104 N         -6.8639  -20.4796  -53.7910 N.am      19 UNK        -0.5000 
    105 CA        -6.6717  -19.0788  -54.1481 C.3       19 UNK         0.1400 
    106 CB        -7.8842  -18.2554  -53.6792 C.3       19 UNK        -0.1800 
    107 C         -6.4764  -18.9754  -55.6672 C.2       19 UNK         0.5000 
    108 O         -6.8789  -19.8891  -56.3937 O.2       19 UNK        -0.5000 
    109 N         -5.8856  -17.8512  -56.0958 N.am      20 UNK        -0.5000 
    110 CA        -5.4609  -17.4914  -57.4546 C.3       20 UNK         0.1400 
    111 CB        -6.6074  -17.6073  -58.4787 C.3       20 UNK        -0.1800 
    112 C         -4.2089  -18.2664  -57.9118 C.2       20 UNK         0.5000 
    113 O         -4.0708  -19.4593  -57.6355 O.2       20 UNK        -0.5000 
    114 N         -3.3090  -17.5510  -58.6039 N.am      21 UNK        -0.5000 
    115 CA        -2.0045  -18.0117  -59.1060 C.3       21 UNK         0.1400 
    116 CB        -2.1845  -19.0789  -60.2067 C.3       21 UNK        -0.1800 
    117 C         -1.0280  -18.4569  -57.9912 C.2       21 UNK         0.5000 
    118 O         -0.1433  -19.2794  -58.2364 O.2       21 UNK        -0.5000 
    119 N         -1.2094  -17.9042  -56.7857 N.am      22 UNK        -0.5000 
    120 CA        -0.3944  -18.1647  -55.5920 C.3       22 UNK         0.1400 
    121 C          1.0434  -17.5894  -55.7178 C.2       22 UNK         0.5000 
    122 N          2.0472  -18.2928  -55.2118 N.am      22 UNK        -0.7600 
    123 O          1.2518  -16.4927  -56.2327 O.2       22 UNK        -0.5000 
    124 C124       -1.0833  -17.6248  -54.3135 C.3       23 UNK        -0.0398 
    125 S125       -2.7194  -18.3846  -54.0203 S.3       23 UNK        -0.2404 
    126 C126       -2.3133  -19.7302  -52.8606 C.3       23 UNK        -0.0205 
    127 H127       -2.4175  -16.3382  -51.7966 H         1 UNK         0.0600 
    128 H128       -2.8289  -14.8335  -52.6126 H         1 UNK         0.0600 
    129 H129       -3.7739  -15.3661  -51.2154 H         1 UNK         0.0600 
    130 H130       -1.0774  -16.2846  -49.9620 H         1 UNK         0.3000 
    131 H131        0.4785  -13.9420  -49.4615 H         1 UNK         0.0600 
    132 H132        0.4535  -16.4212  -47.6744 H         1 UNK         0.0800 
    133 H133        1.7087  -15.2429  -47.8910 H         1 UNK         0.0800 
    134 H134        1.6975  -19.2037  -49.8171 H         1 UNK         0.0800 
    135 H135        1.1742  -18.6665  -48.2467 H         1 UNK         0.0800 
    136 H136        0.1412  -19.3841  -51.6984 H         1 UNK         0.1150 
    137 H137       -4.0492  -18.9026  -50.9379 H         1 UNK         0.1150 
    138 H138       -1.1976  -17.9121  -47.9023 H         1 UNK         0.1150 
    139 H139       -3.5246  -17.1410  -47.7166 H         1 UNK         0.0800 
    140 H140       -4.6506  -17.4269  -49.0154 H         1 UNK         0.0800 
    141 H141       -3.7366  -19.8283  -45.3325 H         1 UNK         0.0800 
    142 H142       -2.6251  -18.8385  -46.2235 H         1 UNK         0.0800 
    143 H143       -2.2814  -20.8908  -47.8008 H         1 UNK         0.0600 
    144 H144       -0.9702  -20.2772  -45.4004 H         1 UNK         0.3000 
    145 H145        1.1903  -23.0080  -45.0986 H         1 UNK         0.0600 
    146 H146        3.0922  -21.4259  -45.4225 H         1 UNK         0.0600 
    147 H147        2.4359  -21.9865  -46.9504 H         1 UNK         0.0600 
    148 H148        2.0514  -20.3735  -46.3831 H         1 UNK         0.0600 
    149 H149        1.4112  -20.5072  -43.8560 H         1 UNK         0.3000 
    150 H150       -1.2655  -20.8180  -41.4854 H         1 UNK         0.0600 
    151 H151        0.6739  -22.0684  -40.5495 H         1 UNK         0.0600 
    152 H152        0.6391  -20.4156  -39.9533 H         1 UNK         0.0600 
    153 H153        1.7857  -20.8761  -41.2085 H         1 UNK         0.0600 
    154 H154        0.6511  -18.7501  -41.9109 H         1 UNK         0.3000 
    155 H155       -1.2615  -16.8976  -44.3384 H         1 UNK         0.0600 
    156 H156       -0.7732  -15.1169  -42.6670 H         1 UNK         0.0600 
    157 H157       -0.4578  -16.3365  -41.4348 H         1 UNK         0.0600 
    158 H158       -2.0717  -16.1637  -42.1107 H         1 UNK         0.0600 
    159 H159        1.3215  -16.4438  -43.2228 H         1 UNK         0.3000 
    160 H160        3.1896  -18.4665  -45.5065 H         1 UNK         0.0600 
    161 H161        4.3752  -16.1598  -45.5854 H         1 UNK         0.0600 
    162 H162        2.7654  -15.4496  -45.4374 H         1 UNK         0.0600 
    163 H163        3.1676  -16.4993  -46.7999 H         1 UNK         0.0600 
    164 H164        3.7733  -16.7104  -43.2686 H         1 UNK         0.3000 
    165 H165        3.9133  -19.3304  -40.8600 H         1 UNK         0.0600 
    166 H166        6.2433  -18.5156  -40.6194 H         1 UNK         0.0600 
    167 H167        6.0974  -19.5103  -42.0594 H         1 UNK         0.0600 
    168 H168        6.1751  -17.7590  -42.2114 H         1 UNK         0.0600 
    169 H169        4.5696  -16.5428  -40.7604 H         1 UNK         0.3000 
    170 H170        1.3058  -15.3458  -39.9864 H         1 UNK         0.0600 
    171 H171        2.1834  -16.2561  -37.8287 H         1 UNK         0.0600 
    172 H172        3.7930  -15.6650  -38.2239 H         1 UNK         0.0600 
    173 H173        2.4689  -14.5288  -37.9641 H         1 UNK         0.0600 
    174 H174        3.7233  -13.9375  -40.0505 H         1 UNK         0.3000 
    175 H175        4.2671  -12.5382  -41.6343 H         1 UNK         0.0600 
    176 H176        4.2581  -13.8862  -44.3861 H         1 UNK         0.0600 
    177 H177        5.3661  -12.6375  -43.8307 H         1 UNK         0.0600 
    178 H178        5.4126  -14.2364  -43.1033 H         1 UNK         0.0600 
    179 H179        2.6668  -12.1027  -44.0539 H         1 UNK         0.3000 
    180 H180        0.3683   -9.8950  -42.4231 H         1 UNK         0.0600 
    181 H181        1.0477   -8.5309  -44.3758 H         1 UNK         0.0600 
    182 H182        2.4749   -9.5376  -44.6146 H         1 UNK         0.0600 
    183 H183        2.3127   -8.5715  -43.1578 H         1 UNK         0.0600 
    184 H184       -0.8010  -11.1083  -43.7902 H         1 UNK         0.3000 
    185 H185       -1.1967  -13.0508  -45.3000 H         1 UNK         0.0600 
    186 H186       -2.5320  -11.7164  -46.9820 H         1 UNK         0.0600 
    187 H187       -2.1214  -10.7307  -45.5935 H         1 UNK         0.0600 
    188 H188       -1.2217  -10.5447  -47.0943 H         1 UNK         0.0600 
    189 H189        0.7442  -12.8099  -47.4101 H         1 UNK         0.3000 
    190 H190       -2.6886  -22.2779  -44.5333 H         1 UNK         0.3000 
    191 H191       -4.7641  -24.1830  -45.4689 H         1 UNK         0.0600 
    192 H192       -4.8569  -24.8035  -43.0617 H         1 UNK         0.0600 
    193 H193       -5.1162  -23.0799  -43.2826 H         1 UNK         0.0600 
    194 H194       -3.5613  -23.6688  -42.6980 H         1 UNK         0.0600 
    195 H195       -1.4365  -24.1169  -44.0915 H         1 UNK         0.3000 
    196 H196       -1.2386  -26.9428  -43.9283 H         1 UNK         0.0600 
    197 H197        0.9516  -24.8152  -43.7426 H         1 UNK         0.0600 
    198 H198       -0.0557  -25.3807  -42.4137 H         1 UNK         0.0600 
    199 H199        1.0772  -26.4772  -43.1879 H         1 UNK         0.0600 
    200 H200       -0.3085  -24.7666  -46.5791 H         1 UNK         0.3000 
    201 H201        0.9957  -27.0666  -48.0010 H         1 UNK         0.0600 
    202 H202        1.7283  -24.0979  -48.1425 H         1 UNK         0.0600 
    203 H203        2.4705  -25.4028  -49.0554 H         1 UNK         0.0600 
    204 H204        2.6518  -25.3447  -47.3088 H         1 UNK         0.0600 
    205 H205       -0.7761  -23.9496  -48.4798 H         1 UNK         0.3000 
    206 H206       -1.3988  -24.6179  -51.2344 H         1 UNK         0.0600 
    207 H207       -0.9598  -22.2786  -50.4508 H         1 UNK         0.0600 
    208 H208       -2.5131  -22.4388  -51.2566 H         1 UNK         0.0600 
    209 H209       -2.4476  -22.3280  -49.5105 H         1 UNK         0.0600 
    210 H210       -2.9012  -25.4677  -48.2860 H         1 UNK         0.3000 
    211 H211       -4.7822  -26.4928  -47.6904 H         1 UNK         0.0600 
    212 H212       -5.6757  -28.1988  -49.2268 H         1 UNK         0.0600 
    213 H213       -3.9249  -28.1574  -49.3471 H         1 UNK         0.0600 
    214 H214       -4.9131  -27.4175  -50.6059 H         1 UNK         0.0600 
    215 H215       -5.1260  -23.7769  -48.2408 H         1 UNK         0.3000 
    216 H216       -6.5967  -22.1818  -48.3238 H         1 UNK         0.0600 
    217 H217       -8.9503  -22.5816  -47.7632 H         1 UNK         0.0600 
    218 H218       -8.8195  -24.2815  -48.1877 H         1 UNK         0.0600 
    219 H219       -7.9410  -23.6436  -46.7974 H         1 UNK         0.0600 
    220 H220       -5.6929  -23.4675  -50.8893 H         1 UNK         0.3000 
    221 H221       -7.6974  -22.7940  -52.8745 H         1 UNK         0.0600 
    222 H222       -5.8082  -24.4011  -53.3025 H         1 UNK         0.0600 
    223 H223       -4.6505  -23.0832  -53.1172 H         1 UNK         0.0600 
    224 H224       -5.7973  -23.0720  -54.4497 H         1 UNK         0.0600 
    225 H225       -7.2349  -21.0499  -54.5409 H         1 UNK         0.3000 
    226 H226       -5.7683  -18.6986  -53.6661 H         1 UNK         0.0600 
    227 H227       -8.8080  -18.6036  -54.1428 H         1 UNK         0.0600 
    228 H228       -8.0080  -18.3176  -52.5979 H         1 UNK         0.0600 
    229 H229       -7.7657  -17.2011  -53.9313 H         1 UNK         0.0600 
    230 H230       -5.5999  -17.1893  -55.3880 H         1 UNK         0.3000 
    231 H231       -5.1901  -16.4361  -57.3925 H         1 UNK         0.0600 
    232 H232       -6.8796  -18.6445  -58.6747 H         1 UNK         0.0600 
    233 H233       -6.3173  -17.1673  -59.4334 H         1 UNK         0.0600 
    234 H234       -7.4994  -17.0827  -58.1363 H         1 UNK         0.0600 
    235 H235       -3.5144  -16.5780  -58.7863 H         1 UNK         0.3000 
    236 H236       -1.5393  -17.1422  -59.5724 H         1 UNK         0.0600 
    237 H237       -1.2345  -19.3053  -60.6921 H         1 UNK         0.0600 
    238 H238       -2.5758  -20.0140  -59.8053 H         1 UNK         0.0600 
    239 H239       -2.8683  -18.7342  -60.9823 H         1 UNK         0.0600 
    240 H240       -1.9550  -17.2350  -56.6742 H         1 UNK         0.3000 
    241 H241       -0.3102  -19.2489  -55.4925 H         1 UNK         0.0600 
    242 H242        2.9831  -17.9227  -55.2746 H         1 UNK         0.3800 
    243 H243        1.9023  -19.1946  -54.7850 H         1 UNK         0.3800 
    244 H244       -1.2229  -16.5449  -54.3869 H         1 UNK         0.0800 
    245 H245       -0.4501  -17.7798  -53.4404 H         1 UNK         0.0800 
    246 H246       -3.1674  -20.4066  -52.8007 H         1 UNK         0.0800 
    247 H247       -1.4858  -20.3204  -53.2569 H         1 UNK         0.0800 
@<TRIPOS>BOND
     1    1    2 1    
     2    1  127 1    
     3    1  128 1    
     4    1  129 1    
     5    2    3 2    
     6    2    4 am   BACKBONE|DICT|INTERRES
     7    4    5 1    
     8    4  130 1    
     9    5    6 1    
    10    5   65 1    
    11    5  131 1    
    12    6    7 1    
    13    6  132 1    
    14    6  133 1    
    15    7    8 1    
    16    8    9 1    
    17    8  134 1    
    18    8  135 1    
    19    9   10 ar   
    20    9   14 ar   
    21   10   11 ar   
    22   10  136 1    
    23   11   12 ar   
    24   11  126 1    
    25   12   13 ar   
    26   12  137 1    
    27   13   14 ar   
    28   13   15 1    
    29   14  138 1    
    30   15   16 1    
    31   15  139 1    
    32   15  140 1    
    33   16   17 1    
    34   17   18 1    
    35   17  141 1    
    36   17  142 1    
    37   18   19 1    
    38   18   67 1    
    39   18  143 1    
    40   19   20 am   BACKBONE|DICT|INTERRES
    41   19  144 1    
    42   20   21 2    
    43   20   22 1    
    44   22   23 1    
    45   22   24 1    
    46   22  145 1    
    47   23  146 1    
    48   23  147 1    
    49   23  148 1    
    50   24   25 am   BACKBONE|DICT|INTERRES
    51   24  149 1    
    52   25   26 2    
    53   25   27 1    
    54   27   28 1    
    55   27   29 1    
    56   27  150 1    
    57   28  151 1    
    58   28  152 1    
    59   28  153 1    
    60   29   30 am   BACKBONE|DICT|INTERRES
    61   29  154 1    
    62   30   31 2    
    63   30   32 1    
    64   32   33 1    
    65   32   34 1    
    66   32  155 1    
    67   33  156 1    
    68   33  157 1    
    69   33  158 1    
    70   34   35 am   BACKBONE|DICT|INTERRES
    71   34  159 1    
    72   35   36 2    
    73   35   37 1    
    74   37   38 1    
    75   37   39 1    
    76   37  160 1    
    77   38  161 1    
    78   38  162 1    
    79   38  163 1    
    80   39   40 am   BACKBONE|DICT|INTERRES
    81   39  164 1    
    82   40   41 2    
    83   40   42 1    
    84   42   43 1    
    85   42   44 1    
    86   42  165 1    
    87   43  166 1    
    88   43  167 1    
    89   43  168 1    
    90   44   45 am   BACKBONE|DICT|INTERRES
    91   44  169 1    
    92   45   46 2    
    93   45   47 1    
    94   47   48 1    
    95   47   49 1    
    96   47  170 1    
    97   48  171 1    
    98   48  172 1    
    99   48  173 1    
   100   49   50 am   BACKBONE|DICT|INTERRES
   101   49  174 1    
   102   50   51 2    
   103   50   52 1    
   104   52   53 1    
   105   52   54 1    
   106   52  175 1    
   107   53  176 1    
   108   53  177 1    
   109   53  178 1    
   110   54   55 am   BACKBONE|DICT|INTERRES
   111   54  179 1    
   112   55   56 2    
   113   55   57 1    
   114   57   58 1    
   115   57   59 1    
   116   57  180 1    
   117   58  181 1    
   118   58  182 1    
   119   58  183 1    
   120   59   60 am   BACKBONE|DICT|INTERRES
   121   59  184 1    
   122   60   61 2    
   123   60   62 1    
   124   62   63 1    
   125   62   64 1    
   126   62  185 1    
   127   63  186 1    
   128   63  187 1    
   129   63  188 1    
   130   64   65 am   BACKBONE|DICT|INTERRES
   131   64  189 1    
   132   65   66 2    
   133   67   68 2    
   134   67   69 am   BACKBONE|DICT|INTERRES
   135   69   70 1    
   136   69  190 1    
   137   70   71 1    
   138   70   72 1    
   139   70  191 1    
   140   71  192 1    
   141   71  193 1    
   142   71  194 1    
   143   72   73 2    
   144   72   74 am   BACKBONE|DICT|INTERRES
   145   74   75 1    
   146   74  195 1    
   147   75   76 1    
   148   75   77 1    
   149   75  196 1    
   150   76  197 1    
   151   76  198 1    
   152   76  199 1    
   153   77   78 2    
   154   77   79 am   BACKBONE|DICT|INTERRES
   155   79   80 1    
   156   79  200 1    
   157   80   81 1    
   158   80   82 1    
   159   80  201 1    
   160   81  202 1    
   161   81  203 1    
   162   81  204 1    
   163   82   83 2    
   164   82   84 am   BACKBONE|DICT|INTERRES
   165   84   85 1    
   166   84  205 1    
   167   85   86 1    
   168   85   87 1    
   169   85  206 1    
   170   86  207 1    
   171   86  208 1    
   172   86  209 1    
   173   87   88 2    
   174   87   89 am   BACKBONE|DICT|INTERRES
   175   89   90 1    
   176   89  210 1    
   177   90   91 1    
   178   90   92 1    
   179   90  211 1    
   180   91  212 1    
   181   91  213 1    
   182   91  214 1    
   183   92   93 2    
   184   92   94 am   BACKBONE|DICT|INTERRES
   185   94   95 1    
   186   94  215 1    
   187   95   96 1    
   188   95   97 1    
   189   95  216 1    
   190   96  217 1    
   191   96  218 1    
   192   96  219 1    
   193   97   98 2    
   194   97   99 am   BACKBONE|DICT|INTERRES
   195   99  100 1    
   196   99  220 1    
   197  100  101 1    
   198  100  102 1    
   199  100  221 1    
   200  101  222 1    
   201  101  223 1    
   202  101  224 1    
   203  102  103 2    
   204  102  104 am   BACKBONE|DICT|INTERRES
   205  104  105 1    
   206  104  225 1    
   207  105  106 1    
   208  105  107 1    
   209  105  226 1    
   210  106  227 1    
   211  106  228 1    
   212  106  229 1    
   213  107  108 2    
   214  107  109 am   BACKBONE|DICT|INTERRES
   215  109  110 1    
   216  109  230 1    
   217  110  111 1    
   218  110  112 1    
   219  110  231 1    
   220  111  232 1    
   221  111  233 1    
   222  111  234 1    
   223  112  113 2    
   224  112  114 am   BACKBONE|DICT|INTERRES
   225  114  115 1    
   226  114  235 1    
   227  115  116 1    
   228  115  117 1    
   229  115  236 1    
   230  116  237 1    
   231  116  238 1    
   232  116  239 1    
   233  117  118 2    
   234  117  119 am   BACKBONE|DICT|INTERRES
   235  119  120 1    
   236  119  240 1    
   237  120  121 1    
   238  120  124 1    
   239  120  241 1    
   240  121  122 am   BACKBONE|DICT|INTERRES
   241  121  123 2    
   242  122  242 1    
   243  122  243 1    
   244  124  125 1    
   245  124  244 1    
   246  124  245 1    
   247  125  126 1    
   248  126  246 1    
   249  126  247 1    
@<TRIPOS>SUBSTRUCTURE
     1 UNK         1 GROUP             0       ****    0 ROOT    
