@<TRIPOS>MOLECULE
3R540
247   249    1
SMALL
USER_CHARGES


@<TRIPOS>ATOM
      1 CA         -0.7375  -12.6042  -40.7545 C.3       0 UNK        -0.1800 
      2 C          -0.7916  -12.7083  -42.2723 C.2       0 UNK         0.5000 
      3 O          -1.4039  -11.8618  -42.9234 O.2       0 UNK        -0.5000 
      4 N          -0.1578  -13.7423  -42.8327 N.am      1 UNK        -0.5000 
      5 CA         -0.0289  -13.9778  -44.2685 C.3       1 UNK         0.1400 
      6 C6         -0.1960  -15.4855  -44.5849 C.3       23 UNK        -0.0398 
      7 S7          0.1841  -15.9681  -46.3034 S.3       23 UNK        -0.2404 
      8 C8         -1.3715  -15.5461  -47.1647 C.3       23 UNK        -0.0205 
      9 C9         -1.5947  -16.3043  -48.4747 C.ar      23 UNK        -0.0193 
     10 C10        -2.9050  -16.5272  -48.9135 C.ar      23 UNK        -0.1150 
     11 C11        -3.1589  -17.2396  -50.0900 C.ar      23 UNK        -0.0193 
     12 C12        -2.0828  -17.7228  -50.8385 C.ar      23 UNK        -0.1150 
     13 C13        -0.7688  -17.5144  -50.4162 C.ar      23 UNK        -0.0193 
     14 C14        -0.5315  -16.7923  -49.2455 C.ar      23 UNK        -0.1150 
     15 C15         0.3942  -18.0856  -51.2134 C.3       23 UNK        -0.0205 
     16 S16         1.0382  -19.6251  -50.4756 S.3       23 UNK        -0.2404 
     17 C17        -0.3824  -20.7610  -50.6560 C.3       23 UNK        -0.0398 
     18 CA         -0.9349  -21.2844  -49.3062 C.3       11 UNK         0.1400 
     19 N          -1.1764  -20.2272  -48.3153 N.am      11 UNK        -0.5000 
     20 C          -1.4728  -20.4651  -47.0310 C.2       10 UNK         0.5000 
     21 O          -1.6019  -21.6005  -46.5649 O.2       10 UNK        -0.5000 
     22 CA         -1.7664  -19.2368  -46.1563 C.3       10 UNK         0.1400 
     23 CB         -3.2574  -18.8763  -46.2456 C.3       10 UNK        -0.1800 
     24 N          -1.4247  -19.4402  -44.7511 N.am      10 UNK        -0.5000 
     25 C          -0.2022  -19.6868  -44.2684 C.2       9 UNK         0.5000 
     26 O           0.8197  -19.6988  -44.9562 O.2       9 UNK        -0.5000 
     27 CA         -0.1223  -19.9279  -42.7474 C.3       9 UNK         0.1400 
     28 CB          1.1935  -20.6047  -42.3232 C.3       9 UNK        -0.1800 
     29 N          -0.2723  -18.6855  -41.9900 N.am      9 UNK        -0.5000 
     30 C          -1.4122  -18.0079  -41.7950 C.2       8 UNK         0.5000 
     31 O          -2.4962  -18.3653  -42.2588 O.2       8 UNK        -0.5000 
     32 CA         -1.3295  -16.7365  -40.9205 C.3       8 UNK         0.1400 
     33 CB         -2.6207  -16.4989  -40.1185 C.3       8 UNK        -0.1800 
     34 N          -0.1998  -16.7878  -39.9879 N.am      8 UNK        -0.5000 
     35 C           1.0123  -16.2635  -40.1984 C.2       7 UNK         0.5000 
     36 O           1.3086  -15.6005  -41.1945 O.2       7 UNK        -0.5000 
     37 CA          2.0702  -16.5801  -39.1327 C.3       7 UNK         0.1400 
     38 CB          2.4078  -18.0844  -39.1201 C.3       7 UNK        -0.1800 
     39 N           3.2901  -15.8177  -39.3830 N.am      7 UNK        -0.5000 
     40 C           4.1735  -15.4582  -38.4433 C.2       6 UNK         0.5000 
     41 O           4.0079  -15.6820  -37.2429 O.2       6 UNK        -0.5000 
     42 CA          5.4715  -14.7610  -38.8974 C.3       6 UNK         0.1400 
     43 CB          6.6977  -15.6108  -38.5239 C.3       6 UNK        -0.1800 
     44 N           5.5192  -14.5063  -40.3367 N.am      6 UNK        -0.5000 
     45 C           5.1258  -13.3825  -40.9424 C.2       5 UNK         0.5000 
     46 O           4.6270  -12.4267  -40.3477 O.2       5 UNK        -0.5000 
     47 CA          5.3172  -13.3109  -42.4694 C.3       5 UNK         0.1400 
     48 CB          6.7693  -12.9565  -42.8401 C.3       5 UNK        -0.1800 
     49 N           4.8516  -14.4974  -43.1959 N.am      5 UNK        -0.5000 
     50 C           5.3249  -15.7517  -43.2002 C.2       4 UNK         0.5000 
     51 O           6.2877  -16.1278  -42.5307 O.2       4 UNK        -0.5000 
     52 CA          4.5830  -16.7617  -44.0923 C.3       4 UNK         0.1400 
     53 CB          3.3903  -17.3706  -43.3435 C.3       4 UNK        -0.1800 
     54 N           4.1023  -16.1526  -45.3322 N.am      4 UNK        -0.5000 
     55 C           4.8357  -16.0245  -46.4458 C.2       3 UNK         0.5000 
     56 O           5.9962  -16.4227  -46.5532 O.2       3 UNK        -0.5000 
     57 CA          4.1560  -15.3379  -47.6452 C.3       3 UNK         0.1400 
     58 CB          3.3764  -16.3649  -48.4814 C.3       3 UNK        -0.1800 
     59 N           3.2570  -14.2565  -47.2367 N.am      3 UNK        -0.5000 
     60 C           3.6747  -13.0603  -46.7971 C.2       2 UNK         0.5000 
     61 O           4.8600  -12.7344  -46.7270 O.2       2 UNK        -0.5000 
     62 CA          2.5917  -12.0575  -46.3506 C.3       2 UNK         0.1400 
     63 CB          2.2007  -11.1373  -47.5169 C.3       2 UNK        -0.1800 
     64 N           1.3804  -12.6794  -45.8072 N.am      2 UNK        -0.5000 
     65 C           1.3422  -13.4301  -44.6989 C.2       1 UNK         0.5000 
     66 O           2.3407  -13.7258  -44.0426 O.2       1 UNK        -0.5000 
     67 C          -2.1886  -22.1588  -49.5319 C.2       11 UNK         0.5000 
     68 O          -2.0504  -23.3443  -49.8161 O.2       11 UNK        -0.5000 
     69 N          -3.3831  -21.5741  -49.3501 N.am      12 UNK        -0.5000 
     70 CA         -4.6760  -22.2634  -49.4072 C.3       12 UNK         0.1400 
     71 CB         -5.7775  -21.2307  -49.6933 C.3       12 UNK        -0.1800 
     72 C          -5.0080  -23.0755  -48.1370 C.2       12 UNK         0.5000 
     73 O          -6.0034  -23.8006  -48.1399 O.2       12 UNK        -0.5000 
     74 N          -4.1984  -22.9394  -47.0772 N.am      13 UNK        -0.5000 
     75 CA         -4.2451  -23.7959  -45.8930 C.3       13 UNK         0.1400 
     76 CB         -4.0395  -22.9460  -44.6278 C.3       13 UNK        -0.1800 
     77 C          -3.1799  -24.9013  -45.9966 C.2       13 UNK         0.5000 
     78 O          -3.4591  -26.0463  -45.6396 O.2       13 UNK        -0.5000 
     79 N          -1.9833  -24.5443  -46.4877 N.am      14 UNK        -0.5000 
     80 CA         -0.8563  -25.4579  -46.6878 C.3       14 UNK         0.1400 
     81 CB          0.4166  -24.6324  -46.9302 C.3       14 UNK        -0.1800 
     82 C          -1.0759  -26.4631  -47.8369 C.2       14 UNK         0.5000 
     83 O          -0.6641  -27.6182  -47.7201 O.2       14 UNK        -0.5000 
     84 N          -1.7141  -26.0061  -48.9179 N.am      15 UNK        -0.5000 
     85 CA         -2.0637  -26.7674  -50.1134 C.3       15 UNK         0.1400 
     86 CB         -1.0664  -26.4164  -51.2354 C.3       15 UNK        -0.1800 
     87 C          -3.5215  -26.4555  -50.5029 C.2       15 UNK         0.5000 
     88 O          -4.2728  -25.9107  -49.6924 O.2       15 UNK        -0.5000 
     89 N          -3.9158  -26.8263  -51.7273 N.am      16 UNK        -0.5000 
     90 CA         -5.2359  -26.5380  -52.2888 C.3       16 UNK         0.1400 
     91 CB         -5.4348  -27.3921  -53.5508 C.3       16 UNK        -0.1800 
     92 C          -5.3963  -25.0461  -52.6323 C.2       16 UNK         0.5000 
     93 O          -4.4332  -24.4099  -53.0650 O.2       16 UNK        -0.5000 
     94 N          -6.6255  -24.5279  -52.5098 N.am      17 UNK        -0.5000 
     95 CA         -6.9766  -23.1429  -52.8443 C.3       17 UNK         0.1400 
     96 CB         -8.4057  -22.8479  -52.3694 C.3       17 UNK        -0.1800 
     97 C          -6.8211  -22.8089  -54.3416 C.2       17 UNK         0.5000 
     98 O          -6.5473  -21.6560  -54.6821 O.2       17 UNK        -0.5000 
     99 N          -6.9699  -23.8243  -55.2034 N.am      18 UNK        -0.5000 
    100 CA        -6.7323  -23.7351  -56.6439 C.3       18 UNK         0.1400 
    101 CB        -7.3531  -24.9573  -57.3367 C.3       18 UNK        -0.1800 
    102 C         -5.2343  -23.6221  -56.9829 C.2       18 UNK         0.5000 
    103 O         -4.8753  -22.8704  -57.8886 O.2       18 UNK        -0.5000 
    104 N         -4.3872  -24.3416  -56.2312 N.am      19 UNK        -0.5000 
    105 CA        -2.9265  -24.2903  -56.3442 C.3       19 UNK         0.1400 
    106 CB        -2.3115  -25.5070  -55.6342 C.3       19 UNK        -0.1800 
    107 C         -2.3574  -22.9775  -55.7770 C.2       19 UNK         0.5000 
    108 O         -1.4133  -22.4230  -56.3398 O.2       19 UNK        -0.5000 
    109 N         -2.9779  -22.4887  -54.6952 N.am      20 UNK        -0.5000 
    110 CA        -2.7203  -21.1896  -54.0742 C.3       20 UNK         0.1400 
    111 CB        -3.5119  -21.1329  -52.7621 C.3       20 UNK        -0.1800 
    112 C         -3.1212  -19.9937  -54.9590 C.2       20 UNK         0.5000 
    113 O         -2.5909  -18.9000  -54.7665 O.2       20 UNK        -0.5000 
    114 N         -4.0684  -20.2292  -55.8798 N.am      21 UNK        -0.5000 
    115 CA        -4.7469  -19.2596  -56.7445 C.3       21 UNK         0.1400 
    116 CB        -3.7544  -18.5666  -57.7012 C.3       21 UNK        -0.1800 
    117 C         -5.6278  -18.2688  -55.9521 C.2       21 UNK         0.5000 
    118 O         -5.8350  -17.1378  -56.3964 O.2       21 UNK        -0.5000 
    119 N         -6.1426  -18.7241  -54.8032 N.am      22 UNK        -0.5000 
    120 CA        -7.0584  -17.9809  -53.9225 C.3       22 UNK         0.1400 
    121 C         -8.5209  -18.5054  -53.9978 C.2       22 UNK         0.5000 
    122 N         -8.7889  -19.6592  -54.5991 N.am      22 UNK        -0.7600 
    123 O         -9.4351  -17.8429  -53.5151 O.2       22 UNK        -0.5000 
    124 C124       -6.5624  -17.9645  -52.4533 C.3       23 UNK        -0.0398 
    125 S125       -4.9321  -17.1673  -52.2581 S.3       23 UNK        -0.2404 
    126 C126       -4.5919  -17.5472  -50.5088 C.3       23 UNK        -0.0205 
    127 H127       -1.7339  -12.7388  -40.3337 H         1 UNK         0.0600 
    128 H128       -0.3694  -11.6221  -40.4580 H         1 UNK         0.0600 
    129 H129       -0.0800  -13.3562  -40.3188 H         1 UNK         0.0600 
    130 H130        0.4075  -14.3550  -42.2473 H         1 UNK         0.3000 
    131 H131       -0.8076  -13.4357  -44.8090 H         1 UNK         0.0600 
    132 H132        0.4556  -16.0763  -43.9395 H         1 UNK         0.0800 
    133 H133       -1.2101  -15.8056  -44.3423 H         1 UNK         0.0800 
    134 H134       -2.2076  -15.7454  -46.4929 H         1 UNK         0.0800 
    135 H135       -1.3849  -14.4754  -47.3704 H         1 UNK         0.0800 
    136 H136       -3.7335  -16.1612  -48.3232 H         1 UNK         0.1150 
    137 H137       -2.2696  -18.2682  -51.7518 H         1 UNK         0.1150 
    138 H138        0.4889  -16.6297  -48.9349 H         1 UNK         0.1150 
    139 H139        0.0985  -18.2731  -52.2472 H         1 UNK         0.0800 
    140 H140        1.2000  -17.3513  -51.2561 H         1 UNK         0.0800 
    141 H141       -0.0537  -21.6021  -51.2693 H         1 UNK         0.0800 
    142 H142       -1.1639  -20.2716  -51.2321 H         1 UNK         0.0800 
    143 H143       -0.1697  -21.9370  -48.8815 H         1 UNK         0.0600 
    144 H144       -1.0721  -19.2758  -48.6415 H         1 UNK         0.3000 
    145 H145       -1.1719  -18.4074  -46.5328 H         1 UNK         0.0600 
    146 H146       -3.4699  -17.9480  -45.7151 H         1 UNK         0.0600 
    147 H147       -3.5730  -18.7386  -47.2798 H         1 UNK         0.0600 
    148 H148       -3.8850  -19.6590  -45.8168 H         1 UNK         0.0600 
    149 H149       -2.1862  -19.3805  -44.0858 H         1 UNK         0.3000 
    150 H150       -0.9390  -20.6013  -42.4781 H         1 UNK         0.0600 
    151 H151        2.0587  -19.9709  -42.5178 H         1 UNK         0.0600 
    152 H152        1.3429  -21.5397  -42.8647 H         1 UNK         0.0600 
    153 H153        1.1880  -20.8437  -41.2596 H         1 UNK         0.0600 
    154 H154        0.5731  -18.3024  -41.5968 H         1 UNK         0.3000 
    155 H155       -1.2107  -15.8961  -41.6034 H         1 UNK         0.0600 
    156 H156       -2.8355  -17.3303  -39.4462 H         1 UNK         0.0600 
    157 H157       -3.4798  -16.3785  -40.7797 H         1 UNK         0.0600 
    158 H158       -2.5486  -15.5913  -39.5186 H         1 UNK         0.0600 
    159 H159       -0.3515  -17.3332  -39.1507 H         1 UNK         0.3000 
    160 H160        1.6521  -16.2922  -38.1657 H         1 UNK         0.0600 
    161 H161        2.8178  -18.4118  -40.0762 H         1 UNK         0.0600 
    162 H162        1.5268  -18.6930  -38.9141 H         1 UNK         0.0600 
    163 H163        3.1414  -18.3175  -38.3482 H         1 UNK         0.0600 
    164 H164        3.4345  -15.5343  -40.3429 H         1 UNK         0.3000 
    165 H165        5.5380  -13.8152  -38.3558 H         1 UNK         0.0600 
    166 H166        6.7384  -15.7952  -37.4496 H         1 UNK         0.0600 
    167 H167        6.6813  -16.5801  -39.0241 H         1 UNK         0.0600 
    168 H168        7.6245  -15.1073  -38.7997 H         1 UNK         0.0600 
    169 H169        5.9113  -15.2389  -40.9233 H         1 UNK         0.3000 
    170 H170        4.6853  -12.4942  -42.8223 H         1 UNK         0.0600 
    171 H171        7.0688  -12.0152  -42.3777 H         1 UNK         0.0600 
    172 H172        7.4748  -13.7193  -42.5101 H         1 UNK         0.0600 
    173 H173        6.8809  -12.8396  -43.9183 H         1 UNK         0.0600 
    174 H174        3.9860  -14.3300  -43.7064 H         1 UNK         0.3000 
    175 H175        5.2776  -17.5702  -44.3303 H         1 UNK         0.0600 
    176 H176        2.9131  -18.1496  -43.9379 H         1 UNK         0.0600 
    177 H177        3.7030  -17.8206  -42.4006 H         1 UNK         0.0600 
    178 H178        2.6381  -16.6167  -43.1196 H         1 UNK         0.0600 
    179 H179        3.1677  -15.7714  -45.3220 H         1 UNK         0.3000 
    180 H180        4.9394  -14.9143  -48.2775 H         1 UNK         0.0600 
    181 H181        2.8875  -15.8945  -49.3346 H         1 UNK         0.0600 
    182 H182        2.6140  -16.8722  -47.8898 H         1 UNK         0.0600 
    183 H183        4.0444  -17.1328  -48.8737 H         1 UNK         0.0600 
    184 H184        2.2656  -14.4464  -47.2628 H         1 UNK         0.3000 
    185 H185        3.0278  -11.4407  -45.5619 H         1 UNK         0.0600 
    186 H186        1.5081  -10.3604  -47.1924 H         1 UNK         0.0600 
    187 H187        3.0771  -10.6363  -47.9306 H         1 UNK         0.0600 
    188 H188        1.7277  -11.6936  -48.3272 H         1 UNK         0.0600 
    189 H189        0.5209  -12.4873  -46.3011 H         1 UNK         0.3000 
    190 H190       -3.4039  -20.5968  -49.1019 H         1 UNK         0.3000 
    191 H191       -4.6548  -22.9735  -50.2371 H         1 UNK         0.0600 
    192 H192       -5.6155  -20.7436  -50.6530 H         1 UNK         0.0600 
    193 H193       -6.7592  -21.7038  -49.7392 H         1 UNK         0.0600 
    194 H194       -5.8204  -20.4618  -48.9211 H         1 UNK         0.0600 
    195 H195       -3.4006  -22.3196  -47.1429 H         1 UNK         0.3000 
    196 H196       -5.2213  -24.2784  -45.8109 H         1 UNK         0.0600 
    197 H197       -4.1306  -23.5603  -43.7313 H         1 UNK         0.0600 
    198 H198       -4.7880  -22.1567  -44.5585 H         1 UNK         0.0600 
    199 H199       -3.0563  -22.4767  -44.6003 H         1 UNK         0.0600 
    200 H200       -1.8138  -23.5647  -46.6885 H         1 UNK         0.3000 
    201 H201       -0.7188  -26.0297  -45.7676 H         1 UNK         0.0600 
    202 H202        1.2895  -25.2799  -47.0221 H         1 UNK         0.0600 
    203 H203        0.3454  -24.0464  -47.8467 H         1 UNK         0.0600 
    204 H204        0.6058  -23.9443  -46.1059 H         1 UNK         0.0600 
    205 H205       -2.0255  -25.0386  -48.9404 H         1 UNK         0.3000 
    206 H206       -2.0079  -27.8377  -49.9061 H         1 UNK         0.0600 
    207 H207       -0.0374  -26.5590  -50.9050 H         1 UNK         0.0600 
    208 H208       -1.2092  -27.0486  -52.1120 H         1 UNK         0.0600 
    209 H209       -1.1723  -25.3784  -51.5543 H         1 UNK         0.0600 
    210 H210       -3.2428  -27.2446  -52.3515 H         1 UNK         0.3000 
    211 H211       -5.9950  -26.8158  -51.5544 H         1 UNK         0.0600 
    212 H212       -4.6916  -27.1635  -54.3157 H         1 UNK         0.0600 
    213 H213       -6.4196  -27.2243  -53.9887 H         1 UNK         0.0600 
    214 H214       -5.3617  -28.4554  -53.3216 H         1 UNK         0.0600 
    215 H215       -7.3730  -25.1099  -52.1593 H         1 UNK         0.3000 
    216 H216       -6.2997  -22.4903  -52.2934 H         1 UNK         0.0600 
    217 H217       -8.6744  -21.8083  -52.5616 H         1 UNK         0.0600 
    218 H218       -8.5067  -23.0132  -51.2965 H         1 UNK         0.0600 
    219 H219       -9.1378  -23.4767  -52.8776 H         1 UNK         0.0600 
    220 H220       -7.2218  -24.7300  -54.8371 H         1 UNK         0.3000 
    221 H221       -7.2299  -22.8389  -57.0212 H         1 UNK         0.0600 
    222 H222       -6.9098  -25.8902  -56.9860 H         1 UNK         0.0600 
    223 H223       -8.4273  -25.0078  -57.1578 H         1 UNK         0.0600 
    224 H224       -7.2066  -24.9096  -58.4166 H         1 UNK         0.0600 
    225 H225       -4.7603  -24.8947  -55.4747 H         1 UNK         0.3000 
    226 H226       -2.6598  -24.3431  -57.4020 H         1 UNK         0.0600 
    227 H227       -1.2268  -25.5148  -55.7482 H         1 UNK         0.0600 
    228 H228       -2.5258  -25.5073  -54.5652 H         1 UNK         0.0600 
    229 H229       -2.6882  -26.4403  -56.0527 H         1 UNK         0.0600 
    230 H230       -3.6757  -23.0730  -54.2435 H         1 UNK         0.3000 
    231 H231       -1.6536  -21.1168  -53.8534 H         1 UNK         0.0600 
    232 H232       -4.5841  -21.1038  -52.9452 H         1 UNK         0.0600 
    233 H233       -3.2694  -20.2436  -52.1842 H         1 UNK         0.0600 
    234 H234       -3.3036  -22.0053  -52.1458 H         1 UNK         0.0600 
    235 H235       -4.4370  -21.1692  -55.9241 H         1 UNK         0.3000 
    236 H236       -5.4348  -19.8433  -57.3577 H         1 UNK         0.0600 
    237 H237       -3.1433  -19.2974  -58.2312 H         1 UNK         0.0600 
    238 H238       -4.2830  -17.9803  -58.4535 H         1 UNK         0.0600 
    239 H239       -3.0850  -17.8880  -57.1721 H         1 UNK         0.0600 
    240 H240       -5.9685  -19.6904  -54.5540 H         1 UNK         0.3000 
    241 H241       -7.1095  -16.9418  -54.2524 H         1 UNK         0.0600 
    242 H242       -8.0423  -20.2415  -54.9553 H         1 UNK         0.3800 
    243 H243       -9.7436  -19.9761  -54.6547 H         1 UNK         0.3800 
    244 H244       -7.2688  -17.4304  -51.8151 H         1 UNK         0.0800 
    245 H245       -6.5069  -18.9834  -52.0679 H         1 UNK         0.0800 
    246 H246       -4.7712  -18.6054  -50.3298 H         1 UNK         0.0800 
    247 H247       -5.3032  -17.0004  -49.8879 H         1 UNK         0.0800 
@<TRIPOS>BOND
     1    1    2 1    
     2    1  127 1    
     3    1  128 1    
     4    1  129 1    
     5    2    3 2    
     6    2    4 am   BACKBONE|DICT|INTERRES
     7    4    5 1    
     8    4  130 1    
     9    5    6 1    
    10    5   65 1    
    11    5  131 1    
    12    6    7 1    
    13    6  132 1    
    14    6  133 1    
    15    7    8 1    
    16    8    9 1    
    17    8  134 1    
    18    8  135 1    
    19    9   10 ar   
    20    9   14 ar   
    21   10   11 ar   
    22   10  136 1    
    23   11   12 ar   
    24   11  126 1    
    25   12   13 ar   
    26   12  137 1    
    27   13   14 ar   
    28   13   15 1    
    29   14  138 1    
    30   15   16 1    
    31   15  139 1    
    32   15  140 1    
    33   16   17 1    
    34   17   18 1    
    35   17  141 1    
    36   17  142 1    
    37   18   19 1    
    38   18   67 1    
    39   18  143 1    
    40   19   20 am   BACKBONE|DICT|INTERRES
    41   19  144 1    
    42   20   21 2    
    43   20   22 1    
    44   22   23 1    
    45   22   24 1    
    46   22  145 1    
    47   23  146 1    
    48   23  147 1    
    49   23  148 1    
    50   24   25 am   BACKBONE|DICT|INTERRES
    51   24  149 1    
    52   25   26 2    
    53   25   27 1    
    54   27   28 1    
    55   27   29 1    
    56   27  150 1    
    57   28  151 1    
    58   28  152 1    
    59   28  153 1    
    60   29   30 am   BACKBONE|DICT|INTERRES
    61   29  154 1    
    62   30   31 2    
    63   30   32 1    
    64   32   33 1    
    65   32   34 1    
    66   32  155 1    
    67   33  156 1    
    68   33  157 1    
    69   33  158 1    
    70   34   35 am   BACKBONE|DICT|INTERRES
    71   34  159 1    
    72   35   36 2    
    73   35   37 1    
    74   37   38 1    
    75   37   39 1    
    76   37  160 1    
    77   38  161 1    
    78   38  162 1    
    79   38  163 1    
    80   39   40 am   BACKBONE|DICT|INTERRES
    81   39  164 1    
    82   40   41 2    
    83   40   42 1    
    84   42   43 1    
    85   42   44 1    
    86   42  165 1    
    87   43  166 1    
    88   43  167 1    
    89   43  168 1    
    90   44   45 am   BACKBONE|DICT|INTERRES
    91   44  169 1    
    92   45   46 2    
    93   45   47 1    
    94   47   48 1    
    95   47   49 1    
    96   47  170 1    
    97   48  171 1    
    98   48  172 1    
    99   48  173 1    
   100   49   50 am   BACKBONE|DICT|INTERRES
   101   49  174 1    
   102   50   51 2    
   103   50   52 1    
   104   52   53 1    
   105   52   54 1    
   106   52  175 1    
   107   53  176 1    
   108   53  177 1    
   109   53  178 1    
   110   54   55 am   BACKBONE|DICT|INTERRES
   111   54  179 1    
   112   55   56 2    
   113   55   57 1    
   114   57   58 1    
   115   57   59 1    
   116   57  180 1    
   117   58  181 1    
   118   58  182 1    
   119   58  183 1    
   120   59   60 am   BACKBONE|DICT|INTERRES
   121   59  184 1    
   122   60   61 2    
   123   60   62 1    
   124   62   63 1    
   125   62   64 1    
   126   62  185 1    
   127   63  186 1    
   128   63  187 1    
   129   63  188 1    
   130   64   65 am   BACKBONE|DICT|INTERRES
   131   64  189 1    
   132   65   66 2    
   133   67   68 2    
   134   67   69 am   BACKBONE|DICT|INTERRES
   135   69   70 1    
   136   69  190 1    
   137   70   71 1    
   138   70   72 1    
   139   70  191 1    
   140   71  192 1    
   141   71  193 1    
   142   71  194 1    
   143   72   73 2    
   144   72   74 am   BACKBONE|DICT|INTERRES
   145   74   75 1    
   146   74  195 1    
   147   75   76 1    
   148   75   77 1    
   149   75  196 1    
   150   76  197 1    
   151   76  198 1    
   152   76  199 1    
   153   77   78 2    
   154   77   79 am   BACKBONE|DICT|INTERRES
   155   79   80 1    
   156   79  200 1    
   157   80   81 1    
   158   80   82 1    
   159   80  201 1    
   160   81  202 1    
   161   81  203 1    
   162   81  204 1    
   163   82   83 2    
   164   82   84 am   BACKBONE|DICT|INTERRES
   165   84   85 1    
   166   84  205 1    
   167   85   86 1    
   168   85   87 1    
   169   85  206 1    
   170   86  207 1    
   171   86  208 1    
   172   86  209 1    
   173   87   88 2    
   174   87   89 am   BACKBONE|DICT|INTERRES
   175   89   90 1    
   176   89  210 1    
   177   90   91 1    
   178   90   92 1    
   179   90  211 1    
   180   91  212 1    
   181   91  213 1    
   182   91  214 1    
   183   92   93 2    
   184   92   94 am   BACKBONE|DICT|INTERRES
   185   94   95 1    
   186   94  215 1    
   187   95   96 1    
   188   95   97 1    
   189   95  216 1    
   190   96  217 1    
   191   96  218 1    
   192   96  219 1    
   193   97   98 2    
   194   97   99 am   BACKBONE|DICT|INTERRES
   195   99  100 1    
   196   99  220 1    
   197  100  101 1    
   198  100  102 1    
   199  100  221 1    
   200  101  222 1    
   201  101  223 1    
   202  101  224 1    
   203  102  103 2    
   204  102  104 am   BACKBONE|DICT|INTERRES
   205  104  105 1    
   206  104  225 1    
   207  105  106 1    
   208  105  107 1    
   209  105  226 1    
   210  106  227 1    
   211  106  228 1    
   212  106  229 1    
   213  107  108 2    
   214  107  109 am   BACKBONE|DICT|INTERRES
   215  109  110 1    
   216  109  230 1    
   217  110  111 1    
   218  110  112 1    
   219  110  231 1    
   220  111  232 1    
   221  111  233 1    
   222  111  234 1    
   223  112  113 2    
   224  112  114 am   BACKBONE|DICT|INTERRES
   225  114  115 1    
   226  114  235 1    
   227  115  116 1    
   228  115  117 1    
   229  115  236 1    
   230  116  237 1    
   231  116  238 1    
   232  116  239 1    
   233  117  118 2    
   234  117  119 am   BACKBONE|DICT|INTERRES
   235  119  120 1    
   236  119  240 1    
   237  120  121 1    
   238  120  124 1    
   239  120  241 1    
   240  121  122 am   BACKBONE|DICT|INTERRES
   241  121  123 2    
   242  122  242 1    
   243  122  243 1    
   244  124  125 1    
   245  124  244 1    
   246  124  245 1    
   247  125  126 1    
   248  126  246 1    
   249  126  247 1    
@<TRIPOS>SUBSTRUCTURE
     1 UNK         1 GROUP             0       ****    0 ROOT    
