@<TRIPOS>MOLECULE
3R540
247   249    1
SMALL
USER_CHARGES


@<TRIPOS>ATOM
      1 CA         -2.3865  -13.4655  -48.5164 C.3       0 UNK        -0.1800 
      2 C          -1.0091  -13.6152  -49.1438 C.2       0 UNK         0.5000 
      3 O          -0.8877  -13.5815  -50.3694 O.2       0 UNK        -0.5000 
      4 N           0.0190  -13.7614  -48.3011 N.am      1 UNK        -0.5000 
      5 CA          1.4307  -13.6350  -48.6715 C.3       1 UNK         0.1400 
      6 C6          2.3415  -14.6121  -47.8782 C.3       23 UNK        -0.0398 
      7 S7          1.8480  -16.3535  -48.0445 S.3       23 UNK        -0.2404 
      8 C8          2.7698  -16.8747  -49.5170 C.3       23 UNK        -0.0205 
      9 C9          1.9644  -17.9002  -50.2939 C.ar      23 UNK        -0.0193 
     10 C10         1.0309  -17.4709  -51.2369 C.ar      23 UNK        -0.1150 
     11 C11         0.2835  -18.3958  -51.9683 C.ar      23 UNK        -0.0193 
     12 C12         0.4523  -19.7615  -51.7222 C.ar      23 UNK        -0.1150 
     13 C13         1.3658  -20.2122  -50.7627 C.ar      23 UNK        -0.0193 
     14 C14         2.1331  -19.2680  -50.0635 C.ar      23 UNK        -0.1150 
     15 C15         1.4861  -21.7224  -50.5334 C.3       23 UNK        -0.0205 
     16 S16         2.3904  -22.2378  -49.0317 S.3       23 UNK        -0.2404 
     17 C17         1.2924  -21.6134  -47.7149 C.3       23 UNK        -0.0398 
     18 CA          0.7476  -22.7350  -46.8003 C.3       11 UNK         0.1400 
     19 N           0.3125  -22.2119  -45.5038 N.am      11 UNK        -0.5000 
     20 C          -0.0412  -22.9634  -44.4522 C.2       10 UNK         0.5000 
     21 O           0.0071  -24.1938  -44.4439 O.2       10 UNK        -0.5000 
     22 CA         -0.5860  -22.2151  -43.2212 C.3       10 UNK         0.1400 
     23 CB          0.5592  -21.6332  -42.3793 C.3       10 UNK        -0.1800 
     24 N          -1.5225  -21.1496  -43.5841 N.am      10 UNK        -0.5000 
     25 C          -2.7079  -21.3574  -44.1759 C.2       9 UNK         0.5000 
     26 O          -3.1592  -22.4755  -44.4242 O.2       9 UNK        -0.5000 
     27 CA         -3.4989  -20.1090  -44.6100 C.3       9 UNK         0.1400 
     28 CB         -4.2374  -19.4815  -43.4186 C.3       9 UNK        -0.1800 
     29 N          -2.6525  -19.1017  -45.2500 N.am      9 UNK        -0.5000 
     30 C          -1.9776  -19.2900  -46.3926 C.2       8 UNK         0.5000 
     31 O          -2.0375  -20.3180  -47.0620 O.2       8 UNK        -0.5000 
     32 CA         -1.0338  -18.1645  -46.8370 C.3       8 UNK         0.1400 
     33 CB         -1.8041  -17.0710  -47.5892 C.3       8 UNK        -0.1800 
     34 N          -0.2989  -17.5881  -45.7100 N.am      8 UNK        -0.5000 
     35 C           0.6293  -18.2503  -45.0035 C.2       7 UNK         0.5000 
     36 O           0.9683  -19.4096  -45.2367 O.2       7 UNK        -0.5000 
     37 CA          1.2381  -17.5161  -43.7965 C.3       7 UNK         0.1400 
     38 CB          2.3656  -16.5694  -44.2343 C.3       7 UNK        -0.1800 
     39 N           0.2298  -16.7658  -43.0506 N.am      7 UNK        -0.5000 
     40 C          -0.7722  -17.3282  -42.3590 C.2       6 UNK         0.5000 
     41 O          -0.9150  -18.5437  -42.2254 O.2       6 UNK        -0.5000 
     42 CA         -1.8190  -16.3670  -41.7647 C.3       6 UNK         0.1400 
     43 CB         -1.3766  -15.8764  -40.3783 C.3       6 UNK        -0.1800 
     44 N          -2.0756  -15.2112  -42.6277 N.am      6 UNK        -0.5000 
     45 C          -2.6008  -15.2820  -43.8599 C.2       5 UNK         0.5000 
     46 O          -2.9778  -16.3336  -44.3753 O.2       5 UNK        -0.5000 
     47 CA         -2.6721  -13.9743  -44.6708 C.3       5 UNK         0.1400 
     48 CB         -4.0693  -13.3468  -44.5709 C.3       5 UNK        -0.1800 
     49 N          -1.6652  -12.9933  -44.2532 N.am      5 UNK        -0.5000 
     50 C          -0.3583  -13.0912  -44.5281 C.2       4 UNK         0.5000 
     51 O           0.1188  -13.9514  -45.2742 O.2       4 UNK        -0.5000 
     52 CA          0.5647  -12.1086  -43.7906 C.3       4 UNK         0.1400 
     53 CB          0.6197  -12.4752  -42.2906 C.3       4 UNK        -0.1800 
     54 N           1.9030  -12.1642  -44.3751 N.am      4 UNK        -0.5000 
     55 C           2.9230  -11.3450  -44.0851 C.2       3 UNK         0.5000 
     56 O           2.8387  -10.3889  -43.3132 O.2       3 UNK        -0.5000 
     57 CA          4.2671  -11.6434  -44.7760 C.3       3 UNK         0.1400 
     58 CB          4.8043  -13.0296  -44.3787 C.3       3 UNK        -0.1800 
     59 N           4.1644  -11.5616  -46.2308 N.am      3 UNK        -0.5000 
     60 C           4.0050  -10.4290  -46.9324 C.2       2 UNK         0.5000 
     61 O           4.0232   -9.3033  -46.4337 O.2       2 UNK        -0.5000 
     62 CA          3.7692  -10.5842  -48.4514 C.3       2 UNK         0.1400 
     63 CB          5.0964  -10.4771  -49.2178 C.3       2 UNK        -0.1800 
     64 N           3.1102  -11.8475  -48.8035 N.am      2 UNK        -0.5000 
     65 C           1.8725  -12.1794  -48.4098 C.2       1 UNK         0.5000 
     66 O           1.1284  -11.3997  -47.8068 O.2       1 UNK        -0.5000 
     67 C          -0.3626  -23.5574  -47.4868 C.2       11 UNK         0.5000 
     68 O          -0.0897  -24.6561  -47.9674 O.2       11 UNK        -0.5000 
     69 N          -1.6009  -23.0448  -47.4705 N.am      12 UNK        -0.5000 
     70 CA         -2.7889  -23.7164  -47.9948 C.3       12 UNK         0.1400 
     71 CB         -3.9928  -22.7642  -47.9391 C.3       12 UNK        -0.1800 
     72 C          -3.1094  -25.0296  -47.2616 C.2       12 UNK         0.5000 
     73 O          -3.4337  -26.0243  -47.9102 O.2       12 UNK        -0.5000 
     74 N          -2.9783  -25.0231  -45.9277 N.am      13 UNK        -0.5000 
     75 CA         -3.1389  -26.2029  -45.0777 C.3       13 UNK         0.1400 
     76 CB         -3.1292  -25.7814  -43.6007 C.3       13 UNK        -0.1800 
     77 C          -2.0738  -27.2813  -45.3513 C.2       13 UNK         0.5000 
     78 O          -2.4092  -28.4656  -45.3833 O.2       13 UNK        -0.5000 
     79 N          -0.8226  -26.8542  -45.5735 N.am      14 UNK        -0.5000 
     80 CA          0.2962  -27.7228  -45.9419 C.3       14 UNK         0.1400 
     81 CB          1.6160  -26.9500  -45.7935 C.3       14 UNK        -0.1800 
     82 C           0.1544  -28.3049  -47.3617 C.2       14 UNK         0.5000 
     83 O           0.4156  -29.4923  -47.5595 O.2       14 UNK        -0.5000 
     84 N          -0.2660  -27.4662  -48.3186 N.am      15 UNK        -0.5000 
     85 CA         -0.5001  -27.8369  -49.7163 C.3       15 UNK         0.1400 
     86 CB         -0.6130  -26.5571  -50.5605 C.3       15 UNK        -0.1800 
     87 C          -1.7518  -28.7114  -49.9204 C.2       15 UNK         0.5000 
     88 O          -1.8088  -29.4585  -50.8979 O.2       15 UNK        -0.5000 
     89 N          -2.7288  -28.5818  -49.0112 N.am      16 UNK        -0.5000 
     90 CA         -4.0686  -29.1757  -49.0418 C.3       16 UNK         0.1400 
     91 CB         -4.0037  -30.7156  -48.9687 C.3       16 UNK        -0.1800 
     92 C          -4.9142  -28.6479  -50.2215 C.2       16 UNK         0.5000 
     93 O          -5.6877  -29.3981  -50.8201 O.2       16 UNK        -0.5000 
     94 N          -4.7503  -27.3569  -50.5296 N.am      17 UNK        -0.5000 
     95 CA         -5.4381  -26.6252  -51.5876 C.3       17 UNK         0.1400 
     96 CB         -4.7793  -26.9156  -52.9476 C.3       17 UNK        -0.1800 
     97 C          -5.3648  -25.1318  -51.2481 C.2       17 UNK         0.5000 
     98 O          -4.3749  -24.7003  -50.6567 O.2       17 UNK        -0.5000 
     99 N          -6.4040  -24.3713  -51.6125 N.am      18 UNK        -0.5000 
    100 CA        -6.5336  -22.9443  -51.3089 C.3       18 UNK         0.1400 
    101 CB        -7.9277  -22.4615  -51.7391 C.3       18 UNK        -0.1800 
    102 C         -5.4392  -22.0848  -51.9712 C.2       18 UNK         0.5000 
    103 O         -5.1872  -22.2332  -53.1691 O.2       18 UNK        -0.5000 
    104 N         -4.8390  -21.1828  -51.1832 N.am      19 UNK        -0.5000 
    105 CA        -3.8392  -20.2154  -51.6424 C.3       19 UNK         0.1400 
    106 CB        -3.0481  -19.6949  -50.4305 C.3       19 UNK        -0.1800 
    107 C         -4.4697  -19.0466  -52.4236 C.2       19 UNK         0.5000 
    108 O         -3.8281  -18.4992  -53.3187 O.2       19 UNK        -0.5000 
    109 N         -5.7118  -18.6847  -52.0652 N.am      20 UNK        -0.5000 
    110 CA        -6.5567  -17.6630  -52.7000 C.3       20 UNK         0.1400 
    111 CB        -6.9527  -18.1067  -54.1242 C.3       20 UNK        -0.1800 
    112 C         -5.9756  -16.2296  -52.6669 C.2       20 UNK         0.5000 
    113 O         -6.3646  -15.4006  -53.4912 O.2       20 UNK        -0.5000 
    114 N         -5.0775  -15.9610  -51.7041 N.am      21 UNK        -0.5000 
    115 CA        -4.3954  -14.6843  -51.4534 C.3       21 UNK         0.1400 
    116 CB        -5.3907  -13.6484  -50.8884 C.3       21 UNK        -0.1800 
    117 C         -3.6128  -14.1673  -52.6805 C.2       21 UNK         0.5000 
    118 O         -3.8032  -13.0266  -53.1071 O.2       21 UNK        -0.5000 
    119 N         -2.7746  -15.0448  -53.2470 N.am      22 UNK        -0.5000 
    120 CA        -2.0050  -14.8094  -54.4795 C.3       22 UNK         0.1400 
    121 C         -0.9246  -13.6841  -54.4259 C.2       22 UNK         0.5000 
    122 N         -0.5200  -13.1835  -53.2643 N.am      22 UNK        -0.7600 
    123 O         -0.4511  -13.2459  -55.4712 O.2       22 UNK        -0.5000 
    124 C124       -1.4608  -16.1392  -55.0740 C.3       23 UNK        -0.0398 
    125 S125        0.0180  -16.8205  -54.2398 S.3       23 UNK        -0.2404 
    126 C126       -0.7308  -17.9127  -52.9928 C.3       23 UNK        -0.0205 
    127 H127       -2.8493  -14.4382  -48.3553 H         1 UNK         0.0600 
    128 H128       -3.0332  -12.8775  -49.1659 H         1 UNK         0.0600 
    129 H129       -2.3223  -12.9402  -47.5643 H         1 UNK         0.0600 
    130 H130       -0.1471  -13.7818  -47.3011 H         1 UNK         0.3000 
    131 H131        1.5551  -13.8365  -49.7375 H         1 UNK         0.0600 
    132 H132        3.3840  -14.5239  -48.1874 H         1 UNK         0.0800 
    133 H133        2.3216  -14.3725  -46.8148 H         1 UNK         0.0800 
    134 H134        2.9802  -16.0163  -50.1566 H         1 UNK         0.0800 
    135 H135        3.7351  -17.2851  -49.2174 H         1 UNK         0.0800 
    136 H136        0.8878  -16.4123  -51.4056 H         1 UNK         0.1150 
    137 H137       -0.1377  -20.4798  -52.2743 H         1 UNK         0.1150 
    138 H138        2.8574  -19.5818  -49.3269 H         1 UNK         0.1150 
    139 H139        0.4890  -22.1652  -50.4997 H         1 UNK         0.0800 
    140 H140        1.9876  -22.1593  -51.3978 H         1 UNK         0.0800 
    141 H141        0.4810  -21.0154  -48.1333 H         1 UNK         0.0800 
    142 H142        1.8968  -20.9208  -47.1289 H         1 UNK         0.0800 
    143 H143        1.5702  -23.4212  -46.5873 H         1 UNK         0.0600 
    144 H144        0.2941  -21.2002  -45.4086 H         1 UNK         0.3000 
    145 H145       -1.1248  -22.9384  -42.6057 H         1 UNK         0.0600 
    146 H146        0.1805  -21.1669  -41.4696 H         1 UNK         0.0600 
    147 H147        1.2585  -22.4143  -42.0787 H         1 UNK         0.0600 
    148 H148        1.1236  -20.8800  -42.9293 H         1 UNK         0.0600 
    149 H149       -1.2395  -20.1988  -43.3703 H         1 UNK         0.3000 
    150 H150       -4.2447  -20.4264  -45.3415 H         1 UNK         0.0600 
    151 H151       -4.9117  -20.2025  -42.9550 H         1 UNK         0.0600 
    152 H152       -4.8381  -18.6277  -43.7328 H         1 UNK         0.0600 
    153 H153       -3.5457  -19.1378  -42.6497 H         1 UNK         0.0600 
    154 H154       -2.5907  -18.1958  -44.7946 H         1 UNK         0.3000 
    155 H155       -0.3056  -18.5955  -47.5279 H         1 UNK         0.0600 
    156 H156       -2.5455  -16.5825  -46.9581 H         1 UNK         0.0600 
    157 H157       -1.1249  -16.3098  -47.9657 H         1 UNK         0.0600 
    158 H158       -2.3284  -17.4861  -48.4501 H         1 UNK         0.0600 
    159 H159       -0.5235  -16.6389  -45.4518 H         1 UNK         0.3000 
    160 H160        1.6655  -18.2680  -43.1297 H         1 UNK         0.0600 
    161 H161        1.9958  -15.7767  -44.8829 H         1 UNK         0.0600 
    162 H162        3.1358  -17.1095  -44.7864 H         1 UNK         0.0600 
    163 H163        2.8467  -16.1022  -43.3749 H         1 UNK         0.0600 
    164 H164        0.2576  -15.7612  -43.1339 H         1 UNK         0.3000 
    165 H165       -2.7538  -16.9200  -41.6524 H         1 UNK         0.0600 
    166 H166       -2.1442  -15.2553  -39.9163 H         1 UNK         0.0600 
    167 H167       -1.1935  -16.7171  -39.7076 H         1 UNK         0.0600 
    168 H168       -0.4573  -15.2916  -40.4306 H         1 UNK         0.0600 
    169 H169       -1.8097  -14.3075  -42.2680 H         1 UNK         0.3000 
    170 H170       -2.4916  -14.2427  -45.7119 H         1 UNK         0.0600 
    171 H171       -4.8372  -14.0503  -44.8957 H         1 UNK         0.0600 
    172 H172       -4.3066  -13.0499  -43.5485 H         1 UNK         0.0600 
    173 H173       -4.1502  -12.4641  -45.2056 H         1 UNK         0.0600 
    174 H174       -1.9867  -12.2486  -43.6511 H         1 UNK         0.3000 
    175 H175        0.1665  -11.0999  -43.9158 H         1 UNK         0.0600 
    176 H176        1.0396  -13.4702  -42.1370 H         1 UNK         0.0600 
    177 H177        1.2263  -11.7698  -41.7235 H         1 UNK         0.0600 
    178 H178       -0.3721  -12.4627  -41.8381 H         1 UNK         0.0600 
    179 H179        2.0217  -12.9091  -45.0476 H         1 UNK         0.3000 
    180 H180        4.9889  -10.8957  -44.4401 H         1 UNK         0.0600 
    181 H181        4.1659  -13.8372  -44.7388 H         1 UNK         0.0600 
    182 H182        4.8726  -13.1247  -43.2942 H         1 UNK         0.0600 
    183 H183        5.8045  -13.1919  -44.7806 H         1 UNK         0.0600 
    184 H184        4.1668  -12.4341  -46.7346 H         1 UNK         0.3000 
    185 H185        3.1225   -9.7640  -48.7704 H         1 UNK         0.0600 
    186 H186        5.5999   -9.5351  -48.9960 H         1 UNK         0.0600 
    187 H187        5.7808  -11.2845  -48.9544 H         1 UNK         0.0600 
    188 H188        4.9342  -10.5108  -50.2953 H         1 UNK         0.0600 
    189 H189        3.6660  -12.5121  -49.3224 H         1 UNK         0.3000 
    190 H190       -1.7418  -22.1047  -47.1057 H         1 UNK         0.3000 
    191 H191       -2.5817  -23.9561  -49.0380 H         1 UNK         0.0600 
    192 H192       -4.2174  -22.4560  -46.9183 H         1 UNK         0.0600 
    193 H193       -4.8864  -23.2426  -48.3404 H         1 UNK         0.0600 
    194 H194       -3.8102  -21.8657  -48.5251 H         1 UNK         0.0600 
    195 H195       -2.7623  -24.1476  -45.4609 H         1 UNK         0.3000 
    196 H196       -4.1154  -26.6394  -45.2976 H         1 UNK         0.0600 
    197 H197       -3.2753  -26.6428  -42.9479 H         1 UNK         0.0600 
    198 H198       -3.9298  -25.0724  -43.3886 H         1 UNK         0.0600 
    199 H199       -2.1861  -25.3126  -43.3200 H         1 UNK         0.0600 
    200 H200       -0.6215  -25.8639  -45.4803 H         1 UNK         0.3000 
    201 H201        0.3171  -28.5597  -45.2407 H         1 UNK         0.0600 
    202 H202        1.7506  -26.5939  -44.7720 H         1 UNK         0.0600 
    203 H203        1.6554  -26.0846  -46.4553 H         1 UNK         0.0600 
    204 H204        2.4694  -27.5855  -46.0326 H         1 UNK         0.0600 
    205 H205       -0.3867  -26.4823  -48.0867 H         1 UNK         0.3000 
    206 H206        0.3632  -28.4050  -50.0688 H         1 UNK         0.0600 
    207 H207        0.2917  -25.9534  -50.4860 H         1 UNK         0.0600 
    208 H208       -0.7609  -26.7938  -51.6149 H         1 UNK         0.0600 
    209 H209       -1.4544  -25.9399  -50.2420 H         1 UNK         0.0600 
    210 H210       -2.6002  -27.8717  -48.2987 H         1 UNK         0.3000 
    211 H211       -4.5674  -28.8278  -48.1361 H         1 UNK         0.0600 
    212 H212       -3.5861  -31.1504  -49.8770 H         1 UNK         0.0600 
    213 H213       -4.9987  -31.1407  -48.8328 H         1 UNK         0.0600 
    214 H214       -3.3935  -31.0437  -48.1272 H         1 UNK         0.0600 
    215 H215       -4.1405  -26.7834  -49.9540 H         1 UNK         0.3000 
    216 H216       -6.4863  -26.9303  -51.6128 H         1 UNK         0.0600 
    217 H217       -3.7230  -26.6433  -52.9454 H         1 UNK         0.0600 
    218 H218       -5.2639  -26.3517  -53.7454 H         1 UNK         0.0600 
    219 H219       -4.8513  -27.9721  -53.2064 H         1 UNK         0.0600 
    220 H220       -7.1628  -24.7901  -52.1301 H         1 UNK         0.3000 
    221 H221       -6.4586  -22.8329  -50.2254 H         1 UNK         0.0600 
    222 H222       -8.0820  -22.5837  -52.8121 H         1 UNK         0.0600 
    223 H223       -8.7141  -23.0111  -51.2214 H         1 UNK         0.0600 
    224 H224       -8.0650  -21.4044  -51.5073 H         1 UNK         0.0600 
    225 H225       -5.0952  -21.1367  -50.2084 H         1 UNK         0.3000 
    226 H226       -3.1399  -20.7200  -52.3127 H         1 UNK         0.0600 
    227 H227       -2.4564  -20.4902  -49.9763 H         1 UNK         0.0600 
    228 H228       -2.3521  -18.9072  -50.7173 H         1 UNK         0.0600 
    229 H229       -3.7042  -19.2851  -49.6620 H         1 UNK         0.0600 
    230 H230       -6.1424  -19.1889  -51.3039 H         1 UNK         0.3000 
    231 H231       -7.4715  -17.6216  -52.1073 H         1 UNK         0.0600 
    232 H232       -6.0977  -18.1019  -54.8010 H         1 UNK         0.0600 
    233 H233       -7.7085  -17.4443  -54.5477 H         1 UNK         0.0600 
    234 H234       -7.3719  -19.1130  -54.1212 H         1 UNK         0.0600 
    235 H235       -4.8323  -16.7185  -51.0839 H         1 UNK         0.3000 
    236 H236       -3.6498  -14.8822  -50.6833 H         1 UNK         0.0600 
    237 H237       -4.8902  -12.7099  -50.6489 H         1 UNK         0.0600 
    238 H238       -6.1842  -13.4184  -51.5998 H         1 UNK         0.0600 
    239 H239       -5.8566  -14.0103  -49.9720 H         1 UNK         0.0600 
    240 H240       -2.7096  -15.9714  -52.8552 H         1 UNK         0.3000 
    241 H241       -2.7389  -14.4430  -55.2001 H         1 UNK         0.0600 
    242 H242        0.1723  -12.4527  -53.2652 H         1 UNK         0.3800 
    243 H243       -0.8793  -13.5185  -52.3765 H         1 UNK         0.3800 
    244 H244       -1.1926  -15.9800  -56.1196 H         1 UNK         0.0800 
    245 H245       -2.2467  -16.8960  -55.0929 H         1 UNK         0.0800 
    246 H246       -1.5180  -17.3794  -52.4626 H         1 UNK         0.0800 
    247 H247       -1.2001  -18.7558  -53.5015 H         1 UNK         0.0800 
@<TRIPOS>BOND
     1    1    2 1    
     2    1  127 1    
     3    1  128 1    
     4    1  129 1    
     5    2    3 2    
     6    2    4 am   BACKBONE|DICT|INTERRES
     7    4    5 1    
     8    4  130 1    
     9    5    6 1    
    10    5   65 1    
    11    5  131 1    
    12    6    7 1    
    13    6  132 1    
    14    6  133 1    
    15    7    8 1    
    16    8    9 1    
    17    8  134 1    
    18    8  135 1    
    19    9   10 ar   
    20    9   14 ar   
    21   10   11 ar   
    22   10  136 1    
    23   11   12 ar   
    24   11  126 1    
    25   12   13 ar   
    26   12  137 1    
    27   13   14 ar   
    28   13   15 1    
    29   14  138 1    
    30   15   16 1    
    31   15  139 1    
    32   15  140 1    
    33   16   17 1    
    34   17   18 1    
    35   17  141 1    
    36   17  142 1    
    37   18   19 1    
    38   18   67 1    
    39   18  143 1    
    40   19   20 am   BACKBONE|DICT|INTERRES
    41   19  144 1    
    42   20   21 2    
    43   20   22 1    
    44   22   23 1    
    45   22   24 1    
    46   22  145 1    
    47   23  146 1    
    48   23  147 1    
    49   23  148 1    
    50   24   25 am   BACKBONE|DICT|INTERRES
    51   24  149 1    
    52   25   26 2    
    53   25   27 1    
    54   27   28 1    
    55   27   29 1    
    56   27  150 1    
    57   28  151 1    
    58   28  152 1    
    59   28  153 1    
    60   29   30 am   BACKBONE|DICT|INTERRES
    61   29  154 1    
    62   30   31 2    
    63   30   32 1    
    64   32   33 1    
    65   32   34 1    
    66   32  155 1    
    67   33  156 1    
    68   33  157 1    
    69   33  158 1    
    70   34   35 am   BACKBONE|DICT|INTERRES
    71   34  159 1    
    72   35   36 2    
    73   35   37 1    
    74   37   38 1    
    75   37   39 1    
    76   37  160 1    
    77   38  161 1    
    78   38  162 1    
    79   38  163 1    
    80   39   40 am   BACKBONE|DICT|INTERRES
    81   39  164 1    
    82   40   41 2    
    83   40   42 1    
    84   42   43 1    
    85   42   44 1    
    86   42  165 1    
    87   43  166 1    
    88   43  167 1    
    89   43  168 1    
    90   44   45 am   BACKBONE|DICT|INTERRES
    91   44  169 1    
    92   45   46 2    
    93   45   47 1    
    94   47   48 1    
    95   47   49 1    
    96   47  170 1    
    97   48  171 1    
    98   48  172 1    
    99   48  173 1    
   100   49   50 am   BACKBONE|DICT|INTERRES
   101   49  174 1    
   102   50   51 2    
   103   50   52 1    
   104   52   53 1    
   105   52   54 1    
   106   52  175 1    
   107   53  176 1    
   108   53  177 1    
   109   53  178 1    
   110   54   55 am   BACKBONE|DICT|INTERRES
   111   54  179 1    
   112   55   56 2    
   113   55   57 1    
   114   57   58 1    
   115   57   59 1    
   116   57  180 1    
   117   58  181 1    
   118   58  182 1    
   119   58  183 1    
   120   59   60 am   BACKBONE|DICT|INTERRES
   121   59  184 1    
   122   60   61 2    
   123   60   62 1    
   124   62   63 1    
   125   62   64 1    
   126   62  185 1    
   127   63  186 1    
   128   63  187 1    
   129   63  188 1    
   130   64   65 am   BACKBONE|DICT|INTERRES
   131   64  189 1    
   132   65   66 2    
   133   67   68 2    
   134   67   69 am   BACKBONE|DICT|INTERRES
   135   69   70 1    
   136   69  190 1    
   137   70   71 1    
   138   70   72 1    
   139   70  191 1    
   140   71  192 1    
   141   71  193 1    
   142   71  194 1    
   143   72   73 2    
   144   72   74 am   BACKBONE|DICT|INTERRES
   145   74   75 1    
   146   74  195 1    
   147   75   76 1    
   148   75   77 1    
   149   75  196 1    
   150   76  197 1    
   151   76  198 1    
   152   76  199 1    
   153   77   78 2    
   154   77   79 am   BACKBONE|DICT|INTERRES
   155   79   80 1    
   156   79  200 1    
   157   80   81 1    
   158   80   82 1    
   159   80  201 1    
   160   81  202 1    
   161   81  203 1    
   162   81  204 1    
   163   82   83 2    
   164   82   84 am   BACKBONE|DICT|INTERRES
   165   84   85 1    
   166   84  205 1    
   167   85   86 1    
   168   85   87 1    
   169   85  206 1    
   170   86  207 1    
   171   86  208 1    
   172   86  209 1    
   173   87   88 2    
   174   87   89 am   BACKBONE|DICT|INTERRES
   175   89   90 1    
   176   89  210 1    
   177   90   91 1    
   178   90   92 1    
   179   90  211 1    
   180   91  212 1    
   181   91  213 1    
   182   91  214 1    
   183   92   93 2    
   184   92   94 am   BACKBONE|DICT|INTERRES
   185   94   95 1    
   186   94  215 1    
   187   95   96 1    
   188   95   97 1    
   189   95  216 1    
   190   96  217 1    
   191   96  218 1    
   192   96  219 1    
   193   97   98 2    
   194   97   99 am   BACKBONE|DICT|INTERRES
   195   99  100 1    
   196   99  220 1    
   197  100  101 1    
   198  100  102 1    
   199  100  221 1    
   200  101  222 1    
   201  101  223 1    
   202  101  224 1    
   203  102  103 2    
   204  102  104 am   BACKBONE|DICT|INTERRES
   205  104  105 1    
   206  104  225 1    
   207  105  106 1    
   208  105  107 1    
   209  105  226 1    
   210  106  227 1    
   211  106  228 1    
   212  106  229 1    
   213  107  108 2    
   214  107  109 am   BACKBONE|DICT|INTERRES
   215  109  110 1    
   216  109  230 1    
   217  110  111 1    
   218  110  112 1    
   219  110  231 1    
   220  111  232 1    
   221  111  233 1    
   222  111  234 1    
   223  112  113 2    
   224  112  114 am   BACKBONE|DICT|INTERRES
   225  114  115 1    
   226  114  235 1    
   227  115  116 1    
   228  115  117 1    
   229  115  236 1    
   230  116  237 1    
   231  116  238 1    
   232  116  239 1    
   233  117  118 2    
   234  117  119 am   BACKBONE|DICT|INTERRES
   235  119  120 1    
   236  119  240 1    
   237  120  121 1    
   238  120  124 1    
   239  120  241 1    
   240  121  122 am   BACKBONE|DICT|INTERRES
   241  121  123 2    
   242  122  242 1    
   243  122  243 1    
   244  124  125 1    
   245  124  244 1    
   246  124  245 1    
   247  125  126 1    
   248  126  246 1    
   249  126  247 1    
@<TRIPOS>SUBSTRUCTURE
     1 UNK         1 GROUP             0       ****    0 ROOT    
