@<TRIPOS>MOLECULE
3R540
247   249    1
SMALL
USER_CHARGES


@<TRIPOS>ATOM
      1 CA          0.4454   -9.4965  -51.6250 C.3       0 UNK        -0.1800 
      2 C           0.5449  -10.2664  -50.3152 C.2       0 UNK         0.5000 
      3 O           0.8000   -9.6662  -49.2705 O.2       0 UNK        -0.5000 
      4 N           0.3534  -11.5902  -50.3694 N.am      1 UNK        -0.5000 
      5 CA          0.3385  -12.4822  -49.2052 C.3       1 UNK         0.1400 
      6 C6          0.6111  -13.9528  -49.6178 C.3       23 UNK        -0.0398 
      7 S7          1.4245  -14.9038  -48.2850 S.3       23 UNK        -0.2404 
      8 C8          2.8345  -15.6652  -49.1452 C.3       23 UNK        -0.0205 
      9 C9          2.4242  -16.9523  -49.8427 C.ar      23 UNK        -0.0193 
     10 C10         1.8028  -16.9118  -51.0956 C.ar      23 UNK        -0.1150 
     11 C11         1.4057  -18.0932  -51.7262 C.ar      23 UNK        -0.0193 
     12 C12         1.6544  -19.3195  -51.1092 C.ar      23 UNK        -0.1150 
     13 C13         2.2939  -19.3742  -49.8701 C.ar      23 UNK        -0.0193 
     14 C14         2.6677  -18.1880  -49.2333 C.ar      23 UNK        -0.1150 
     15 C15         2.5867  -20.7226  -49.2418 C.3       23 UNK        -0.0205 
     16 S16         1.1422  -21.3495  -48.3412 S.3       23 UNK        -0.2404 
     17 C17         1.5320  -23.1308  -48.3351 C.3       23 UNK        -0.0398 
     18 CA          0.9145  -23.9366  -47.1671 C.3       11 UNK         0.1400 
     19 N           1.4745  -23.5368  -45.8746 N.am      11 UNK        -0.5000 
     20 C           2.0828  -24.3701  -45.0211 C.2       10 UNK         0.5000 
     21 O           2.2523  -25.5712  -45.2433 O.2       10 UNK        -0.5000 
     22 CA          2.5838  -23.7568  -43.6990 C.3       10 UNK         0.1400 
     23 CB          3.4540  -24.7195  -42.8643 C.3       10 UNK        -0.1800 
     24 N           3.2654  -22.4760  -43.8868 N.am      10 UNK        -0.5000 
     25 C           4.3912  -22.2117  -44.5644 C.2       9 UNK         0.5000 
     26 O           5.0555  -23.0605  -45.1601 O.2       9 UNK        -0.5000 
     27 CA          4.8635  -20.7403  -44.5701 C.3       9 UNK         0.1400 
     28 CB          4.5619  -20.0829  -45.9252 C.3       9 UNK        -0.1800 
     29 N           4.2558  -19.9336  -43.5074 N.am      9 UNK        -0.5000 
     30 C           4.5513  -20.0318  -42.2031 C.2       8 UNK         0.5000 
     31 O           5.4579  -20.7365  -41.7582 O.2       8 UNK        -0.5000 
     32 CA          3.6459  -19.2521  -41.2293 C.3       8 UNK         0.1400 
     33 CB          4.1207  -17.7995  -41.0751 C.3       8 UNK        -0.1800 
     34 N           2.2392  -19.2736  -41.6397 N.am      8 UNK        -0.5000 
     35 C           1.4705  -20.3727  -41.6534 C.2       7 UNK         0.5000 
     36 O           1.8440  -21.4707  -41.2430 O.2       7 UNK        -0.5000 
     37 CA          0.0679  -20.2429  -42.2704 C.3       7 UNK         0.1400 
     38 CB         -0.9437  -19.7607  -41.2205 C.3       7 UNK        -0.1800 
     39 N           0.0519  -19.3534  -43.4323 N.am      7 UNK        -0.5000 
     40 C           0.6041  -19.6428  -44.6202 C.2       6 UNK         0.5000 
     41 O           1.1370  -20.7224  -44.8725 O.2       6 UNK        -0.5000 
     42 CA          0.5922  -18.5326  -45.6908 C.3       6 UNK         0.1400 
     43 CB         -0.7072  -18.5637  -46.5053 C.3       6 UNK        -0.1800 
     44 N           0.7786  -17.1980  -45.1207 N.am      6 UNK        -0.5000 
     45 C           1.8905  -16.7965  -44.4904 C.2       5 UNK         0.5000 
     46 O           2.9067  -17.4847  -44.3983 O.2       5 UNK        -0.5000 
     47 CA          1.8308  -15.4348  -43.7769 C.3       5 UNK         0.1400 
     48 CB          2.1384  -14.2750  -44.7341 C.3       5 UNK        -0.1800 
     49 N           0.5332  -15.2162  -43.1369 N.am      5 UNK        -0.5000 
     50 C           0.1375  -15.8319  -42.0147 C.2       4 UNK         0.5000 
     51 O           0.8458  -16.6176  -41.3859 O.2       4 UNK        -0.5000 
     52 CA         -1.2982  -15.5473  -41.5323 C.3       4 UNK         0.1400 
     53 CB         -1.3380  -14.2681  -40.6833 C.3       4 UNK        -0.1800 
     54 N          -2.2558  -15.4265  -42.6334 N.am      4 UNK        -0.5000 
     55 C          -2.6261  -16.4401  -43.4289 C.2       3 UNK         0.5000 
     56 O          -2.2278  -17.5938  -43.2903 O.2       3 UNK        -0.5000 
     57 CA         -3.5525  -16.1012  -44.6126 C.3       3 UNK         0.1400 
     58 CB         -5.0265  -16.2379  -44.2053 C.3       3 UNK        -0.1800 
     59 N          -3.3190  -14.7712  -45.1850 N.am      3 UNK        -0.5000 
     60 C          -2.1551  -14.3699  -45.7121 C.2       2 UNK         0.5000 
     61 O          -1.1358  -15.0658  -45.7235 O.2       2 UNK        -0.5000 
     62 CA         -2.1079  -12.9425  -46.2718 C.3       2 UNK         0.1400 
     63 CB         -1.9362  -11.9227  -45.1343 C.3       2 UNK        -0.1800 
     64 N          -0.9652  -12.8424  -47.1716 N.am      2 UNK        -0.5000 
     65 C          -0.9815  -12.3468  -48.4106 C.2       1 UNK         0.5000 
     66 O          -1.9768  -11.8331  -48.9299 O.2       1 UNK        -0.5000 
     67 C          -0.6273  -23.8758  -47.1465 C.2       11 UNK         0.5000 
     68 O          -1.2250  -23.2669  -46.2544 O.2       11 UNK        -0.5000 
     69 N          -1.2432  -24.5149  -48.1520 N.am      12 UNK        -0.5000 
     70 CA         -2.6919  -24.6767  -48.3060 C.3       12 UNK         0.1400 
     71 CB         -2.9616  -25.6303  -49.4798 C.3       12 UNK        -0.1800 
     72 C          -3.4769  -23.3672  -48.5033 C.2       12 UNK         0.5000 
     73 O          -4.6719  -23.3412  -48.2077 O.2       12 UNK        -0.5000 
     74 N          -2.8068  -22.3030  -48.9706 N.am      13 UNK        -0.5000 
     75 CA         -3.3900  -20.9796  -49.2204 C.3       13 UNK         0.1400 
     76 CB         -2.3242  -20.0647  -49.8447 C.3       13 UNK        -0.1800 
     77 C          -4.0216  -20.3242  -47.9742 C.2       13 UNK         0.5000 
     78 O          -4.9547  -19.5349  -48.1150 O.2       13 UNK        -0.5000 
     79 N          -3.5439  -20.6962  -46.7774 N.am      14 UNK        -0.5000 
     80 CA         -4.1024  -20.2720  -45.4931 C.3       14 UNK         0.1400 
     81 CB         -3.1652  -20.7264  -44.3684 C.3       14 UNK        -0.1800 
     82 C          -5.5177  -20.8199  -45.2370 C.2       14 UNK         0.5000 
     83 O          -6.3451  -20.1170  -44.6566 O.2       14 UNK        -0.5000 
     84 N          -5.7608  -22.0650  -45.6652 N.am      15 UNK        -0.5000 
     85 CA         -7.0354  -22.7603  -45.5064 C.3       15 UNK         0.1400 
     86 CB         -6.7681  -24.2637  -45.3319 C.3       15 UNK        -0.1800 
     87 C          -7.9601  -22.5126  -46.7072 C.2       15 UNK         0.5000 
     88 O          -9.1617  -22.3172  -46.5212 O.2       15 UNK        -0.5000 
     89 N          -7.3842  -22.5317  -47.9163 N.am      16 UNK        -0.5000 
     90 CA         -8.1011  -22.3771  -49.1797 C.3       16 UNK         0.1400 
     91 CB         -7.1931  -22.8527  -50.3240 C.3       16 UNK        -0.1800 
     92 C          -8.5712  -20.9383  -49.4515 C.2       16 UNK         0.5000 
     93 O          -9.5334  -20.7600  -50.1981 O.2       16 UNK        -0.5000 
     94 N          -7.8545  -19.9431  -48.9060 N.am      17 UNK        -0.5000 
     95 CA         -7.9854  -18.4895  -49.1048 C.3       17 UNK         0.1400 
     96 CB         -9.3843  -17.9820  -48.7059 C.3       17 UNK        -0.1800 
     97 C          -7.5874  -18.0037  -50.5167 C.2       17 UNK         0.5000 
     98 O          -7.0722  -16.8929  -50.6528 O.2       17 UNK        -0.5000 
     99 N          -7.8060  -18.8451  -51.5333 N.am      18 UNK        -0.5000 
    100 CA        -7.3017  -18.7193  -52.8975 C.3       18 UNK         0.1400 
    101 CB        -8.0433  -19.7455  -53.7717 C.3       18 UNK        -0.1800 
    102 C         -5.7755  -18.9371  -52.9759 C.2       18 UNK         0.5000 
    103 O         -5.1471  -19.3304  -51.9903 O.2       18 UNK        -0.5000 
    104 N         -5.2147  -18.6971  -54.1698 N.am      19 UNK        -0.5000 
    105 CA        -3.7860  -18.8067  -54.4842 C.3       19 UNK         0.1400 
    106 CB        -3.5719  -18.4123  -55.9532 C.3       19 UNK        -0.1800 
    107 C         -3.1724  -20.1916  -54.1942 C.2       19 UNK         0.5000 
    108 O         -2.0312  -20.2517  -53.7382 O.2       19 UNK        -0.5000 
    109 N         -3.9558  -21.2578  -54.4233 N.am      20 UNK        -0.5000 
    110 CA        -3.6972  -22.6612  -54.0811 C.3       20 UNK         0.1400 
    111 CB        -3.8861  -22.8738  -52.5642 C.3       20 UNK        -0.1800 
    112 C         -2.3415  -23.1896  -54.5955 C.2       20 UNK         0.5000 
    113 O         -2.2746  -23.7031  -55.7128 O.2       20 UNK        -0.5000 
    114 N         -1.2965  -23.0629  -53.7665 N.am      21 UNK        -0.5000 
    115 CA         0.0833  -23.4323  -54.0746 C.3       21 UNK         0.1400 
    116 CB         0.9006  -23.4227  -52.7725 C.3       21 UNK        -0.1800 
    117 C          0.7359  -22.5244  -55.1366 C.2       21 UNK         0.5000 
    118 O          1.5972  -22.9987  -55.8791 O.2       21 UNK        -0.5000 
    119 N          0.3202  -21.2526  -55.2003 N.am      22 UNK        -0.5000 
    120 CA         0.7325  -20.3036  -56.2445 C.3       22 UNK         0.1400 
    121 C         -0.1053  -20.5024  -57.5358 C.2       22 UNK         0.5000 
    122 N          0.5222  -20.4670  -58.7033 N.am      22 UNK        -0.7600 
    123 O         -1.3248  -20.6439  -57.4931 O.2       22 UNK        -0.5000 
    124 C124        0.6521  -18.8324  -55.7660 C.3       23 UNK        -0.0398 
    125 S125        1.8331  -18.4745  -54.4231 S.3       23 UNK        -0.2404 
    126 C126        0.6962  -18.0616  -53.0667 C.3       23 UNK        -0.0205 
    127 H127        0.2285  -10.1543  -52.4671 H         1 UNK         0.0600 
    128 H128        1.3836   -8.9807  -51.8297 H         1 UNK         0.0600 
    129 H129       -0.3480   -8.7517  -51.5626 H         1 UNK         0.0600 
    130 H130        0.1084  -12.0150  -51.2522 H         1 UNK         0.3000 
    131 H131        1.1487  -12.1559  -48.5487 H         1 UNK         0.0600 
    132 H132       -0.3010  -14.4674  -49.9263 H         1 UNK         0.0800 
    133 H133        1.2654  -13.9655  -50.4893 H         1 UNK         0.0800 
    134 H134        3.6134  -15.8734  -48.4100 H         1 UNK         0.0800 
    135 H135        3.2742  -14.9661  -49.8579 H         1 UNK         0.0800 
    136 H136        1.6180  -15.9634  -51.5776 H         1 UNK         0.1150 
    137 H137        1.3533  -20.2337  -51.5998 H         1 UNK         0.1150 
    138 H138        3.1510  -18.2272  -48.2670 H         1 UNK         0.1150 
    139 H139        2.8673  -21.4280  -50.0259 H         1 UNK         0.0800 
    140 H140        3.4401  -20.6580  -48.5675 H         1 UNK         0.0800 
    141 H141        2.6160  -23.2522  -48.3065 H         1 UNK         0.0800 
    142 H142        1.2187  -23.5469  -49.2939 H         1 UNK         0.0800 
    143 H143        1.1610  -24.9831  -47.3573 H         1 UNK         0.0600 
    144 H144        1.3274  -22.5665  -45.6070 H         1 UNK         0.3000 
    145 H145        1.6886  -23.5383  -43.1154 H         1 UNK         0.0600 
    146 H146        3.7624  -24.2557  -41.9271 H         1 UNK         0.0600 
    147 H147        2.9020  -25.6252  -42.6108 H         1 UNK         0.0600 
    148 H148        4.3533  -25.0234  -43.4007 H         1 UNK         0.0600 
    149 H149        2.7826  -21.6809  -43.4918 H         1 UNK         0.3000 
    150 H150        5.9455  -20.7406  -44.4239 H         1 UNK         0.0600 
    151 H151        5.0600  -20.6169  -46.7350 H         1 UNK         0.0600 
    152 H152        4.9115  -19.0506  -45.9522 H         1 UNK         0.0600 
    153 H153        3.4931  -20.0798  -46.1396 H         1 UNK         0.0600 
    154 H154        3.5514  -19.2608  -43.7952 H         1 UNK         0.3000 
    155 H155        3.7163  -19.7344  -40.2521 H         1 UNK         0.0600 
    156 H156        5.1490  -17.7633  -40.7136 H         1 UNK         0.0600 
    157 H157        3.5041  -17.2570  -40.3583 H         1 UNK         0.0600 
    158 H158        4.0880  -17.2591  -42.0206 H         1 UNK         0.0600 
    159 H159        1.8340  -18.3916  -41.9317 H         1 UNK         0.3000 
    160 H160       -0.2421  -21.2360  -42.6032 H         1 UNK         0.0600 
    161 H161       -0.7082  -18.7595  -40.8613 H         1 UNK         0.0600 
    162 H162       -0.9543  -20.4250  -40.3556 H         1 UNK         0.0600 
    163 H163       -1.9551  -19.7415  -41.6249 H         1 UNK         0.0600 
    164 H164       -0.4631  -18.4850  -43.3311 H         1 UNK         0.3000 
    165 H165        1.4213  -18.7254  -46.3742 H         1 UNK         0.0600 
    166 H166       -0.6658  -17.8633  -47.3399 H         1 UNK         0.0600 
    167 H167       -0.8786  -19.5574  -46.9181 H         1 UNK         0.0600 
    168 H168       -1.5721  -18.3102  -45.8945 H         1 UNK         0.0600 
    169 H169        0.0046  -16.5456  -45.2065 H         1 UNK         0.3000 
    170 H170        2.6021  -15.4375  -43.0037 H         1 UNK         0.0600 
    171 H171        3.0675  -14.4500  -45.2782 H         1 UNK         0.0600 
    172 H172        1.3470  -14.1380  -45.4684 H         1 UNK         0.0600 
    173 H173        2.2506  -13.3375  -44.1895 H         1 UNK         0.0600 
    174 H174       -0.1305  -14.6463  -43.6407 H         1 UNK         0.3000 
    175 H175       -1.6088  -16.3836  -40.9025 H         1 UNK         0.0600 
    176 H176       -0.6459  -14.3363  -39.8429 H         1 UNK         0.0600 
    177 H177       -1.0622  -13.3879  -41.2655 H         1 UNK         0.0600 
    178 H178       -2.3328  -14.0999  -40.2704 H         1 UNK         0.0600 
    179 H179       -2.6314  -14.5081  -42.8167 H         1 UNK         0.3000 
    180 H180       -3.3539  -16.8304  -45.3998 H         1 UNK         0.0600 
    181 H181       -5.2287  -17.2306  -43.7998 H         1 UNK         0.0600 
    182 H182       -5.3038  -15.5083  -43.4435 H         1 UNK         0.0600 
    183 H183       -5.6871  -16.0997  -45.0615 H         1 UNK         0.0600 
    184 H184       -4.1078  -14.1406  -45.1954 H         1 UNK         0.3000 
    185 H185       -3.0418  -12.7489  -46.8036 H         1 UNK         0.0600 
    186 H186       -2.7769  -11.9592  -44.4405 H         1 UNK         0.0600 
    187 H187       -1.0264  -12.1068  -44.5610 H         1 UNK         0.0600 
    188 H188       -1.8834  -10.9063  -45.5249 H         1 UNK         0.0600 
    189 H189       -0.1530  -13.3658  -46.8696 H         1 UNK         0.3000 
    190 H190       -0.6785  -24.9892  -48.8416 H         1 UNK         0.3000 
    191 H191       -3.0716  -25.1414  -47.3937 H         1 UNK         0.0600 
    192 H192       -2.5602  -25.2398  -50.4158 H         1 UNK         0.0600 
    193 H193       -4.0322  -25.7858  -49.6217 H         1 UNK         0.0600 
    194 H194       -2.5146  -26.6090  -49.3045 H         1 UNK         0.0600 
    195 H195       -1.8206  -22.4050  -49.1579 H         1 UNK         0.3000 
    196 H196       -4.1909  -21.1066  -49.9508 H         1 UNK         0.0600 
    197 H197       -2.7374  -19.0788  -50.0623 H         1 UNK         0.0600 
    198 H198       -1.9541  -20.4699  -50.7865 H         1 UNK         0.0600 
    199 H199       -1.4696  -19.9244  -49.1837 H         1 UNK         0.0600 
    200 H200       -2.7864  -21.3662  -46.7456 H         1 UNK         0.3000 
    201 H201       -4.1526  -19.1817  -45.4852 H         1 UNK         0.0600 
    202 H202       -3.5165  -20.3708  -43.3993 H         1 UNK         0.0600 
    203 H203       -3.0860  -21.8131  -44.3170 H         1 UNK         0.0600 
    204 H204       -2.1658  -20.3302  -44.5175 H         1 UNK         0.0600 
    205 H205       -5.0446  -22.5477  -46.1918 H         1 UNK         0.3000 
    206 H206       -7.5427  -22.4021  -44.6079 H         1 UNK         0.0600 
    207 H207       -6.1552  -24.4540  -44.4507 H         1 UNK         0.0600 
    208 H208       -7.7013  -24.8136  -45.2038 H         1 UNK         0.0600 
    209 H209       -6.2528  -24.6870  -46.1954 H         1 UNK         0.0600 
    210 H210       -6.3915  -22.7453  -47.9838 H         1 UNK         0.3000 
    211 H211       -8.9854  -23.0174  -49.1549 H         1 UNK         0.0600 
    212 H212       -7.7057  -22.7945  -51.2850 H         1 UNK         0.0600 
    213 H213       -6.8838  -23.8883  -50.1811 H         1 UNK         0.0600 
    214 H214       -6.2933  -22.2414  -50.3936 H         1 UNK         0.0600 
    215 H215       -7.0368  -20.2055  -48.3689 H         1 UNK         0.3000 
    216 H216       -7.2698  -18.0396  -48.4150 H         1 UNK         0.0600 
    217 H217       -9.4187  -16.8921  -48.7235 H         1 UNK         0.0600 
    218 H218       -9.6457  -18.2997  -47.6965 H         1 UNK         0.0600 
    219 H219      -10.1595  -18.3399  -49.3835 H         1 UNK         0.0600 
    220 H220       -8.2865  -19.7083  -51.3096 H         1 UNK         0.3000 
    221 H221       -7.5247  -17.7131  -53.2574 H         1 UNK         0.0600 
    222 H222       -7.8249  -20.7684  -53.4615 H         1 UNK         0.0600 
    223 H223       -9.1229  -19.6036  -53.7149 H         1 UNK         0.0600 
    224 H224       -7.7640  -19.6533  -54.8218 H         1 UNK         0.0600 
    225 H225       -5.8080  -18.3851  -54.9249 H         1 UNK         0.3000 
    226 H226       -3.2599  -18.0840  -53.8571 H         1 UNK         0.0600 
    227 H227       -2.5174  -18.4493  -56.2228 H         1 UNK         0.0600 
    228 H228       -4.1028  -19.0820  -56.6309 H         1 UNK         0.0600 
    229 H229       -3.9168  -17.3961  -56.1448 H         1 UNK         0.0600 
    230 H230       -4.8610  -21.0772  -54.8317 H         1 UNK         0.3000 
    231 H231       -4.4661  -23.2465  -54.5878 H         1 UNK         0.0600 
    232 H232       -4.9053  -22.6302  -52.2677 H         1 UNK         0.0600 
    233 H233       -3.2168  -22.2493  -51.9738 H         1 UNK         0.0600 
    234 H234       -3.7076  -23.9127  -52.2847 H         1 UNK         0.0600 
    235 H235       -1.4463  -22.5680  -52.8998 H         1 UNK         0.3000 
    236 H236        0.0807  -24.4507  -54.4687 H         1 UNK         0.0600 
    237 H237        0.4985  -24.1321  -52.0490 H         1 UNK         0.0600 
    238 H238        1.9380  -23.7027  -52.9596 H         1 UNK         0.0600 
    239 H239        0.9054  -22.4366  -52.3080 H         1 UNK         0.0600 
    240 H240       -0.4390  -20.9521  -54.5959 H         1 UNK         0.3000 
    241 H241        1.7772  -20.5036  -56.4925 H         1 UNK         0.0600 
    242 H242       -0.0143  -20.5793  -59.5497 H         1 UNK         0.3800 
    243 H243        1.5216  -20.3454  -58.7653 H         1 UNK         0.3800 
    244 H244        0.8834  -18.1516  -56.5871 H         1 UNK         0.0800 
    245 H245       -0.3602  -18.5869  -55.4456 H         1 UNK         0.0800 
    246 H246       -0.1236  -18.7772  -53.0406 H         1 UNK         0.0800 
    247 H247        0.2495  -17.0830  -53.2488 H         1 UNK         0.0800 
@<TRIPOS>BOND
     1    1    2 1    
     2    1  127 1    
     3    1  128 1    
     4    1  129 1    
     5    2    3 2    
     6    2    4 am   BACKBONE|DICT|INTERRES
     7    4    5 1    
     8    4  130 1    
     9    5    6 1    
    10    5   65 1    
    11    5  131 1    
    12    6    7 1    
    13    6  132 1    
    14    6  133 1    
    15    7    8 1    
    16    8    9 1    
    17    8  134 1    
    18    8  135 1    
    19    9   10 ar   
    20    9   14 ar   
    21   10   11 ar   
    22   10  136 1    
    23   11   12 ar   
    24   11  126 1    
    25   12   13 ar   
    26   12  137 1    
    27   13   14 ar   
    28   13   15 1    
    29   14  138 1    
    30   15   16 1    
    31   15  139 1    
    32   15  140 1    
    33   16   17 1    
    34   17   18 1    
    35   17  141 1    
    36   17  142 1    
    37   18   19 1    
    38   18   67 1    
    39   18  143 1    
    40   19   20 am   BACKBONE|DICT|INTERRES
    41   19  144 1    
    42   20   21 2    
    43   20   22 1    
    44   22   23 1    
    45   22   24 1    
    46   22  145 1    
    47   23  146 1    
    48   23  147 1    
    49   23  148 1    
    50   24   25 am   BACKBONE|DICT|INTERRES
    51   24  149 1    
    52   25   26 2    
    53   25   27 1    
    54   27   28 1    
    55   27   29 1    
    56   27  150 1    
    57   28  151 1    
    58   28  152 1    
    59   28  153 1    
    60   29   30 am   BACKBONE|DICT|INTERRES
    61   29  154 1    
    62   30   31 2    
    63   30   32 1    
    64   32   33 1    
    65   32   34 1    
    66   32  155 1    
    67   33  156 1    
    68   33  157 1    
    69   33  158 1    
    70   34   35 am   BACKBONE|DICT|INTERRES
    71   34  159 1    
    72   35   36 2    
    73   35   37 1    
    74   37   38 1    
    75   37   39 1    
    76   37  160 1    
    77   38  161 1    
    78   38  162 1    
    79   38  163 1    
    80   39   40 am   BACKBONE|DICT|INTERRES
    81   39  164 1    
    82   40   41 2    
    83   40   42 1    
    84   42   43 1    
    85   42   44 1    
    86   42  165 1    
    87   43  166 1    
    88   43  167 1    
    89   43  168 1    
    90   44   45 am   BACKBONE|DICT|INTERRES
    91   44  169 1    
    92   45   46 2    
    93   45   47 1    
    94   47   48 1    
    95   47   49 1    
    96   47  170 1    
    97   48  171 1    
    98   48  172 1    
    99   48  173 1    
   100   49   50 am   BACKBONE|DICT|INTERRES
   101   49  174 1    
   102   50   51 2    
   103   50   52 1    
   104   52   53 1    
   105   52   54 1    
   106   52  175 1    
   107   53  176 1    
   108   53  177 1    
   109   53  178 1    
   110   54   55 am   BACKBONE|DICT|INTERRES
   111   54  179 1    
   112   55   56 2    
   113   55   57 1    
   114   57   58 1    
   115   57   59 1    
   116   57  180 1    
   117   58  181 1    
   118   58  182 1    
   119   58  183 1    
   120   59   60 am   BACKBONE|DICT|INTERRES
   121   59  184 1    
   122   60   61 2    
   123   60   62 1    
   124   62   63 1    
   125   62   64 1    
   126   62  185 1    
   127   63  186 1    
   128   63  187 1    
   129   63  188 1    
   130   64   65 am   BACKBONE|DICT|INTERRES
   131   64  189 1    
   132   65   66 2    
   133   67   68 2    
   134   67   69 am   BACKBONE|DICT|INTERRES
   135   69   70 1    
   136   69  190 1    
   137   70   71 1    
   138   70   72 1    
   139   70  191 1    
   140   71  192 1    
   141   71  193 1    
   142   71  194 1    
   143   72   73 2    
   144   72   74 am   BACKBONE|DICT|INTERRES
   145   74   75 1    
   146   74  195 1    
   147   75   76 1    
   148   75   77 1    
   149   75  196 1    
   150   76  197 1    
   151   76  198 1    
   152   76  199 1    
   153   77   78 2    
   154   77   79 am   BACKBONE|DICT|INTERRES
   155   79   80 1    
   156   79  200 1    
   157   80   81 1    
   158   80   82 1    
   159   80  201 1    
   160   81  202 1    
   161   81  203 1    
   162   81  204 1    
   163   82   83 2    
   164   82   84 am   BACKBONE|DICT|INTERRES
   165   84   85 1    
   166   84  205 1    
   167   85   86 1    
   168   85   87 1    
   169   85  206 1    
   170   86  207 1    
   171   86  208 1    
   172   86  209 1    
   173   87   88 2    
   174   87   89 am   BACKBONE|DICT|INTERRES
   175   89   90 1    
   176   89  210 1    
   177   90   91 1    
   178   90   92 1    
   179   90  211 1    
   180   91  212 1    
   181   91  213 1    
   182   91  214 1    
   183   92   93 2    
   184   92   94 am   BACKBONE|DICT|INTERRES
   185   94   95 1    
   186   94  215 1    
   187   95   96 1    
   188   95   97 1    
   189   95  216 1    
   190   96  217 1    
   191   96  218 1    
   192   96  219 1    
   193   97   98 2    
   194   97   99 am   BACKBONE|DICT|INTERRES
   195   99  100 1    
   196   99  220 1    
   197  100  101 1    
   198  100  102 1    
   199  100  221 1    
   200  101  222 1    
   201  101  223 1    
   202  101  224 1    
   203  102  103 2    
   204  102  104 am   BACKBONE|DICT|INTERRES
   205  104  105 1    
   206  104  225 1    
   207  105  106 1    
   208  105  107 1    
   209  105  226 1    
   210  106  227 1    
   211  106  228 1    
   212  106  229 1    
   213  107  108 2    
   214  107  109 am   BACKBONE|DICT|INTERRES
   215  109  110 1    
   216  109  230 1    
   217  110  111 1    
   218  110  112 1    
   219  110  231 1    
   220  111  232 1    
   221  111  233 1    
   222  111  234 1    
   223  112  113 2    
   224  112  114 am   BACKBONE|DICT|INTERRES
   225  114  115 1    
   226  114  235 1    
   227  115  116 1    
   228  115  117 1    
   229  115  236 1    
   230  116  237 1    
   231  116  238 1    
   232  116  239 1    
   233  117  118 2    
   234  117  119 am   BACKBONE|DICT|INTERRES
   235  119  120 1    
   236  119  240 1    
   237  120  121 1    
   238  120  124 1    
   239  120  241 1    
   240  121  122 am   BACKBONE|DICT|INTERRES
   241  121  123 2    
   242  122  242 1    
   243  122  243 1    
   244  124  125 1    
   245  124  244 1    
   246  124  245 1    
   247  125  126 1    
   248  126  246 1    
   249  126  247 1    
@<TRIPOS>SUBSTRUCTURE
     1 UNK         1 GROUP             0       ****    0 ROOT    
