@<TRIPOS>MOLECULE
3R540
247   249    1
SMALL
USER_CHARGES


@<TRIPOS>ATOM
      1 CA          0.2721  -11.1811  -49.9216 C.3       0 UNK        -0.1800 
      2 C          -0.3521  -12.2165  -48.9976 C.2       0 UNK         0.5000 
      3 O          -1.1573  -11.8627  -48.1364 O.2       0 UNK        -0.5000 
      4 N           0.0326  -13.4901  -49.1585 N.am      1 UNK        -0.5000 
      5 CA         -0.4159  -14.6754  -48.4109 C.3       1 UNK         0.1400 
      6 C6         -1.9499  -14.9111  -48.4936 C.3       23 UNK        -0.0398 
      7 S7         -2.4956  -16.5829  -47.9952 S.3       23 UNK        -0.2404 
      8 C8         -2.5223  -17.4902  -49.5849 C.3       23 UNK        -0.0205 
      9 C9         -1.1436  -17.8497  -50.1409 C.ar      23 UNK        -0.0193 
     10 C10        -0.9730  -17.9752  -51.5240 C.ar      23 UNK        -0.1150 
     11 C11         0.2834  -18.2679  -52.0653 C.ar      23 UNK        -0.0193 
     12 C12         1.3801  -18.4229  -51.2141 C.ar      23 UNK        -0.1150 
     13 C13         1.2275  -18.2971  -49.8317 C.ar      23 UNK        -0.0193 
     14 C14        -0.0402  -18.0497  -49.3023 C.ar      23 UNK        -0.1150 
     15 C15         2.4446  -18.3426  -48.9216 C.3       23 UNK        -0.0205 
     16 S16         2.7172  -19.9797  -48.1814 S.3       23 UNK        -0.2404 
     17 C17         1.7041  -19.8824  -46.6653 C.3       23 UNK        -0.0398 
     18 CA          0.9245  -21.1898  -46.4019 C.3       11 UNK         0.1400 
     19 N           0.5461  -21.3187  -44.9952 N.am      11 UNK        -0.5000 
     20 C           0.4187  -22.4872  -44.3530 C.2       10 UNK         0.5000 
     21 O           0.6547  -23.5815  -44.8658 O.2       10 UNK        -0.5000 
     22 CA         -0.0808  -22.4220  -42.8972 C.3       10 UNK         0.1400 
     23 CB          1.0937  -22.1943  -41.9333 C.3       10 UNK        -0.1800 
     24 N          -1.0877  -21.3815  -42.6804 N.am      10 UNK        -0.5000 
     25 C          -2.3012  -21.3700  -43.2481 C.2       9 UNK         0.5000 
     26 O          -2.7057  -22.2412  -44.0171 O.2       9 UNK        -0.5000 
     27 CA         -3.2027  -20.1641  -42.9330 C.3       9 UNK         0.1400 
     28 CB         -3.9764  -20.4045  -41.6283 C.3       9 UNK        -0.1800 
     29 N          -2.5099  -18.8772  -42.8432 N.am      9 UNK        -0.5000 
     30 C          -1.6764  -18.3266  -43.7352 C.2       8 UNK         0.5000 
     31 O          -1.2601  -18.9126  -44.7350 O.2       8 UNK        -0.5000 
     32 CA         -1.2151  -16.8809  -43.4608 C.3       8 UNK         0.1400 
     33 CB         -2.2582  -15.8716  -43.9735 C.3       8 UNK        -0.1800 
     34 N          -0.8452  -16.5974  -42.0653 N.am      8 UNK        -0.5000 
     35 C          -1.6066  -16.5966  -40.9579 C.2       7 UNK         0.5000 
     36 O          -2.8104  -16.8558  -40.9529 O.2       7 UNK        -0.5000 
     37 CA         -0.9088  -16.2906  -39.6171 C.3       7 UNK         0.1400 
     38 CB         -0.5996  -17.5992  -38.8730 C.3       7 UNK        -0.1800 
     39 N           0.3309  -15.5288  -39.7650 N.am      7 UNK        -0.5000 
     40 C           0.3984  -14.2408  -40.1270 C.2       6 UNK         0.5000 
     41 O          -0.5897  -13.5249  -40.2930 O.2       6 UNK        -0.5000 
     42 CA          1.8058  -13.6558  -40.3618 C.3       6 UNK         0.1400 
     43 CB          2.2688  -12.8655  -39.1281 C.3       6 UNK        -0.1800 
     44 N           2.8415  -14.6367  -40.7143 N.am      6 UNK        -0.5000 
     45 C           2.8099  -15.4424  -41.7834 C.2       5 UNK         0.5000 
     46 O           1.8301  -15.5757  -42.5199 O.2       5 UNK        -0.5000 
     47 CA          4.0730  -16.2499  -42.0872 C.3       5 UNK         0.1400 
     48 CB          3.9122  -17.7144  -41.6414 C.3       5 UNK        -0.1800 
     49 N           4.2717  -16.1721  -43.5269 N.am      5 UNK        -0.5000 
     50 C           5.4105  -16.3995  -44.1861 C.2       4 UNK         0.5000 
     51 O           6.4583  -16.7598  -43.6485 O.2       4 UNK        -0.5000 
     52 CA          5.3680  -16.1689  -45.7067 C.3       4 UNK         0.1400 
     53 CB          4.7977  -17.4023  -46.4195 C.3       4 UNK        -0.1800 
     54 N           4.5774  -14.9894  -46.0711 N.am      4 UNK        -0.5000 
     55 C           5.0131  -13.7271  -45.9443 C.2       3 UNK         0.5000 
     56 O           6.1308  -13.4302  -45.5208 O.2       3 UNK        -0.5000 
     57 CA          4.0464  -12.6036  -46.3676 C.3       3 UNK         0.1400 
     58 CB          4.2365  -12.2598  -47.8532 C.3       3 UNK        -0.1800 
     59 N           2.6393  -12.9282  -46.1361 N.am      3 UNK        -0.5000 
     60 C           2.0604  -13.0379  -44.9324 C.2       2 UNK         0.5000 
     61 O           2.6650  -12.8447  -43.8781 O.2       2 UNK        -0.5000 
     62 CA          0.5574  -13.3956  -44.8949 C.3       2 UNK         0.1400 
     63 CB         -0.2470  -12.2879  -44.1959 C.3       2 UNK        -0.1800 
     64 N          -0.0202  -13.6257  -46.2221 N.am      2 UNK        -0.5000 
     65 C           0.1472  -14.7221  -46.9714 C.2       1 UNK         0.5000 
     66 O           0.7905  -15.7034  -46.5975 O.2       1 UNK        -0.5000 
     67 C          -0.3121  -21.3349  -47.3087 C.2       11 UNK         0.5000 
     68 O          -0.2189  -21.9721  -48.3564 O.2       11 UNK        -0.5000 
     69 N          -1.4645  -20.8056  -46.8692 N.am      12 UNK        -0.5000 
     70 CA         -2.7468  -20.9235  -47.5653 C.3       12 UNK         0.1400 
     71 CB         -3.8227  -20.1131  -46.8301 C.3       12 UNK        -0.1800 
     72 C          -3.1970  -22.3841  -47.7499 C.2       12 UNK         0.5000 
     73 O          -3.7058  -22.7281  -48.8152 O.2       12 UNK        -0.5000 
     74 N          -2.9602  -23.2286  -46.7361 N.am      13 UNK        -0.5000 
     75 CA         -3.1998  -24.6714  -46.7802 C.3       13 UNK         0.1400 
     76 CB         -2.8948  -25.2841  -45.4056 C.3       13 UNK        -0.1800 
     77 C          -2.3931  -25.3814  -47.8846 C.2       13 UNK         0.5000 
     78 O          -2.9463  -26.2225  -48.5951 O.2       13 UNK        -0.5000 
     79 N          -1.1175  -24.9970  -48.0359 N.am      14 UNK        -0.5000 
     80 CA         -0.2322  -25.4727  -49.1002 C.3       14 UNK         0.1400 
     81 CB          1.2219  -25.1057  -48.7663 C.3       14 UNK        -0.1800 
     82 C          -0.6381  -24.9314  -50.4842 C.2       14 UNK         0.5000 
     83 O          -0.5290  -25.6554  -51.4748 O.2       14 UNK        -0.5000 
     84 N          -1.1518  -23.6949  -50.5262 N.am      15 UNK        -0.5000 
     85 CA         -1.7014  -23.0137  -51.7007 C.3       15 UNK         0.1400 
     86 CB         -1.7018  -21.4999  -51.4372 C.3       15 UNK        -0.1800 
     87 C          -3.0982  -23.5426  -52.1042 C.2       15 UNK         0.5000 
     88 O          -4.0373  -22.7612  -52.2832 O.2       15 UNK        -0.5000 
     89 N          -3.1931  -24.8697  -52.2585 N.am      16 UNK        -0.5000 
     90 CA         -4.3569  -25.6496  -52.6788 C.3       16 UNK         0.1400 
     91 CB         -4.7111  -25.3376  -54.1475 C.3       16 UNK        -0.1800 
     92 C          -5.5571  -25.5160  -51.7201 C.2       16 UNK         0.5000 
     93 O          -6.6688  -25.2282  -52.1635 O.2       16 UNK        -0.5000 
     94 N          -5.3120  -25.7441  -50.4206 N.am      17 UNK        -0.5000 
     95 CA         -6.3113  -25.8120  -49.3460 C.3       17 UNK         0.1400 
     96 CB         -7.1931  -27.0679  -49.5103 C.3       17 UNK        -0.1800 
     97 C          -7.1319  -24.5137  -49.1936 C.2       17 UNK         0.5000 
     98 O          -8.3623  -24.5545  -49.1385 O.2       17 UNK        -0.5000 
     99 N          -6.4171  -23.3827  -49.1414 N.am      18 UNK        -0.5000 
    100 CA        -6.9120  -22.0114  -48.9930 C.3       18 UNK         0.1400 
    101 CB        -7.6990  -21.8290  -47.6785 C.3       18 UNK        -0.1800 
    102 C         -7.6515  -21.4608  -50.2280 C.2       18 UNK         0.5000 
    103 O         -8.3096  -20.4245  -50.1225 O.2       18 UNK        -0.5000 
    104 N         -7.4951  -22.1135  -51.3893 N.am      19 UNK        -0.5000 
    105 CA        -7.9523  -21.5936  -52.6803 C.3       19 UNK         0.1400 
    106 CB        -8.0005  -22.7320  -53.7087 C.3       19 UNK        -0.1800 
    107 C         -7.0623  -20.4462  -53.1967 C.2       19 UNK         0.5000 
    108 O         -7.5447  -19.6170  -53.9689 O.2       19 UNK        -0.5000 
    109 N         -5.7902  -20.4268  -52.7638 N.am      20 UNK        -0.5000 
    110 CA        -4.7356  -19.4817  -53.1417 C.3       20 UNK         0.1400 
    111 CB        -5.0646  -18.0519  -52.6648 C.3       20 UNK        -0.1800 
    112 C         -4.4013  -19.5721  -54.6438 C.2       20 UNK         0.5000 
    113 O         -4.2533  -18.5486  -55.3139 O.2       20 UNK        -0.5000 
    114 N         -4.3023  -20.8127  -55.1460 N.am      21 UNK        -0.5000 
    115 CA        -4.1366  -21.1545  -56.5645 C.3       21 UNK         0.1400 
    116 CB        -4.1671  -22.6828  -56.7146 C.3       21 UNK        -0.1800 
    117 C         -2.8745  -20.5693  -57.2303 C.2       21 UNK         0.5000 
    118 O         -2.8823  -20.3228  -58.4370 O.2       21 UNK        -0.5000 
    119 N         -1.8290  -20.3384  -56.4299 N.am      22 UNK        -0.5000 
    120 CA        -0.6045  -19.6173  -56.8068 C.3       22 UNK         0.1400 
    121 C         -0.7638  -18.0721  -56.9401 C.2       22 UNK         0.5000 
    122 N         -1.8867  -17.4689  -56.5679 N.am      22 UNK        -0.7600 
    123 O          0.1544  -17.4026  -57.4056 O.2       22 UNK        -0.5000 
    124 C124        0.5948  -20.0030  -55.8964 C.3       23 UNK        -0.0398 
    125 S125        0.2039  -20.1042  -54.1137 S.3       23 UNK        -0.2404 
    126 C126        0.4667  -18.3916  -53.5693 C.3       23 UNK        -0.0205 
    127 H127        0.8177  -10.4393  -49.3383 H         1 UNK         0.0600 
    128 H128       -0.5048  -10.6674  -50.4878 H         1 UNK         0.0600 
    129 H129        0.9662  -11.6342  -50.6298 H         1 UNK         0.0600 
    130 H130        0.7106  -13.6903  -49.8812 H         1 UNK         0.3000 
    131 H131        0.0668  -15.4908  -48.9432 H         1 UNK         0.0600 
    132 H132       -2.4810  -14.1880  -47.8731 H         1 UNK         0.0800 
    133 H133       -2.2941  -14.7312  -49.5127 H         1 UNK         0.0800 
    134 H134       -3.0894  -18.4103  -49.4493 H         1 UNK         0.0800 
    135 H135       -3.0785  -16.8986  -50.3135 H         1 UNK         0.0800 
    136 H136       -1.8173  -17.8389  -52.1847 H         1 UNK         0.1150 
    137 H137        2.3574  -18.6224  -51.6307 H         1 UNK         0.1150 
    138 H138       -0.1525  -17.9541  -48.2332 H         1 UNK         0.1150 
    139 H139        3.3364  -18.0712  -49.4883 H         1 UNK         0.0800 
    140 H140        2.3487  -17.5873  -48.1404 H         1 UNK         0.0800 
    141 H141        1.0381  -19.0194  -46.6811 H         1 UNK         0.0800 
    142 H142        2.3980  -19.6996  -45.8436 H         1 UNK         0.0800 
    143 H143        1.5933  -22.0198  -46.6425 H         1 UNK         0.0600 
    144 H144        0.2499  -20.4709  -44.5286 H         1 UNK         0.3000 
    145 H145       -0.5371  -23.3857  -42.6608 H         1 UNK         0.0600 
    146 H146        0.7641  -22.2286  -40.8947 H         1 UNK         0.0600 
    147 H147        1.8550  -22.9658  -42.0568 H         1 UNK         0.0600 
    148 H148        1.5736  -21.2294  -42.1021 H         1 UNK         0.0600 
    149 H149       -0.8367  -20.6188  -42.0692 H         1 UNK         0.3000 
    150 H150       -3.9309  -20.0757  -43.7386 H         1 UNK         0.0600 
    151 H151       -4.5271  -21.3454  -41.6660 H         1 UNK         0.0600 
    152 H152       -4.7024  -19.6112  -41.4489 H         1 UNK         0.0600 
    153 H153       -3.3085  -20.4472  -40.7670 H         1 UNK         0.0600 
    154 H154       -2.7777  -18.2808  -42.0632 H         1 UNK         0.3000 
    155 H155       -0.3032  -16.7314  -44.0415 H         1 UNK         0.0600 
    156 H156       -3.2260  -16.0016  -43.4888 H         1 UNK         0.0600 
    157 H157       -1.9344  -14.8467  -43.7998 H         1 UNK         0.0600 
    158 H158       -2.4131  -15.9865  -45.0462 H         1 UNK         0.0600 
    159 H159        0.1319  -16.3417  -41.9551 H         1 UNK         0.3000 
    160 H160       -1.6028  -15.7054  -39.0100 H         1 UNK         0.0600 
    161 H161        0.1028  -18.2223  -39.4283 H         1 UNK         0.0600 
    162 H162       -1.5067  -18.1853  -38.7183 H         1 UNK         0.0600 
    163 H163       -0.1708  -17.4025  -37.8902 H         1 UNK         0.0600 
    164 H164        1.1955  -16.0348  -39.6433 H         1 UNK         0.3000 
    165 H165        1.7232  -12.9598  -41.1990 H         1 UNK         0.0600 
    166 H166        3.2108  -12.3510  -39.3190 H         1 UNK         0.0600 
    167 H167        1.5367  -12.1053  -38.8520 H         1 UNK         0.0600 
    168 H168        2.4086  -13.5160  -38.2639 H         1 UNK         0.0600 
    169 H169        3.6807  -14.6106  -40.1531 H         1 UNK         0.3000 
    170 H170        4.9266  -15.7971  -41.5785 H         1 UNK         0.0600 
    171 H171        3.0750  -18.1985  -42.1463 H         1 UNK         0.0600 
    172 H172        4.8101  -18.2948  -41.8534 H         1 UNK         0.0600 
    173 H173        3.7313  -17.7779  -40.5679 H         1 UNK         0.0600 
    174 H174        3.4577  -15.8500  -44.0344 H         1 UNK         0.3000 
    175 H175        6.3941  -16.0251  -46.0522 H         1 UNK         0.0600 
    176 H176        4.8458  -17.2860  -47.5020 H         1 UNK         0.0600 
    177 H177        3.7585  -17.5800  -46.1418 H         1 UNK         0.0600 
    178 H178        5.3632  -18.2998  -46.1656 H         1 UNK         0.0600 
    179 H179        3.6430  -15.1489  -46.4190 H         1 UNK         0.3000 
    180 H180        4.2914  -11.7174  -45.7781 H         1 UNK         0.0600 
    181 H181        3.9854  -13.1031  -48.4979 H         1 UNK         0.0600 
    182 H182        5.2715  -11.9848  -48.0608 H         1 UNK         0.0600 
    183 H183        3.6124  -11.4153  -48.1463 H         1 UNK         0.0600 
    184 H184        2.0667  -13.0841  -46.9512 H         1 UNK         0.3000 
    185 H185        0.4540  -14.3115  -44.3127 H         1 UNK         0.0600 
    186 H186       -0.1488  -11.3334  -44.7143 H         1 UNK         0.0600 
    187 H187       -1.3075  -12.5349  -44.1497 H         1 UNK         0.0600 
    188 H188        0.0946  -12.1440  -43.1700 H         1 UNK         0.0600 
    189 H189       -0.5262  -12.8498  -46.6423 H         1 UNK         0.3000 
    190 H190       -1.4559  -20.2518  -46.0166 H         1 UNK         0.3000 
    191 H191       -2.6089  -20.4864  -48.5534 H         1 UNK         0.0600 
    192 H192       -3.4702  -19.1136  -46.5763 H         1 UNK         0.0600 
    193 H193       -4.7107  -19.9953  -47.4508 H         1 UNK         0.0600 
    194 H194       -4.1346  -20.6061  -45.9108 H         1 UNK         0.0600 
    195 H195       -2.6096  -22.8529  -45.8593 H         1 UNK         0.3000 
    196 H196       -4.2597  -24.8209  -46.9899 H         1 UNK         0.0600 
    197 H197       -3.0581  -26.3625  -45.4116 H         1 UNK         0.0600 
    198 H198       -3.5407  -24.8623  -44.6354 H         1 UNK         0.0600 
    199 H199       -1.8606  -25.1077  -45.1067 H         1 UNK         0.0600 
    200 H200       -0.7555  -24.2691  -47.4361 H         1 UNK         0.3000 
    201 H201       -0.3039  -26.5618  -49.1370 H         1 UNK         0.0600 
    202 H202        1.5209  -25.5156  -47.8014 H         1 UNK         0.0600 
    203 H203        1.3731  -24.0268  -48.7326 H         1 UNK         0.0600 
    204 H204        1.9048  -25.5068  -49.5162 H         1 UNK         0.0600 
    205 H205       -1.1605  -23.1597  -49.6639 H         1 UNK         0.3000 
    206 H206       -1.0322  -23.1992  -52.5431 H         1 UNK         0.0600 
    207 H207       -0.7272  -21.1510  -51.0941 H         1 UNK         0.0600 
    208 H208       -1.9348  -20.9552  -52.3496 H         1 UNK         0.0600 
    209 H209       -2.4426  -21.2183  -50.6914 H         1 UNK         0.0600 
    210 H210       -2.3488  -25.4037  -52.0731 H         1 UNK         0.3000 
    211 H211       -4.0540  -26.6966  -52.6346 H         1 UNK         0.0600 
    212 H212       -5.0216  -24.3019  -54.2752 H         1 UNK         0.0600 
    213 H213       -5.5271  -25.9703  -54.4985 H         1 UNK         0.0600 
    214 H214       -3.8592  -25.5139  -54.8040 H         1 UNK         0.0600 
    215 H215       -4.3580  -25.9292  -50.1290 H         1 UNK         0.3000 
    216 H216       -5.7564  -25.9318  -48.4159 H         1 UNK         0.0600 
    217 H217       -7.8632  -27.1890  -48.6584 H         1 UNK         0.0600 
    218 H218       -6.5849  -27.9702  -49.5736 H         1 UNK         0.0600 
    219 H219       -7.8112  -27.0163  -50.4073 H         1 UNK         0.0600 
    220 H220       -5.4034  -23.4445  -49.2114 H         1 UNK         0.3000 
    221 H221       -6.0188  -21.3928  -48.9123 H         1 UNK         0.0600 
    222 H222       -8.6582  -22.3464  -47.7026 H         1 UNK         0.0600 
    223 H223       -7.1333  -22.2049  -46.8259 H         1 UNK         0.0600 
    224 H224       -7.9041  -20.7749  -47.4887 H         1 UNK         0.0600 
    225 H225       -6.9693  -22.9783  -51.4030 H         1 UNK         0.3000 
    226 H226       -8.9654  -21.2040  -52.5606 H         1 UNK         0.0600 
    227 H227       -8.6378  -23.5478  -53.3671 H         1 UNK         0.0600 
    228 H228       -8.4009  -22.3817  -54.6608 H         1 UNK         0.0600 
    229 H229       -7.0082  -23.1382  -53.9017 H         1 UNK         0.0600 
    230 H230       -5.4753  -21.2106  -52.2022 H         1 UNK         0.3000 
    231 H231       -3.8406  -19.7958  -52.6079 H         1 UNK         0.0600 
    232 H232       -5.9259  -17.6353  -53.1873 H         1 UNK         0.0600 
    233 H233       -4.2237  -17.3799  -52.8390 H         1 UNK         0.0600 
    234 H234       -5.2788  -18.0335  -51.5962 H         1 UNK         0.0600 
    235 H235       -4.4288  -21.5871  -54.5085 H         1 UNK         0.3000 
    236 H236       -4.9963  -20.7440  -57.0977 H         1 UNK         0.0600 
    237 H237       -5.1224  -23.0905  -56.3841 H         1 UNK         0.0600 
    238 H238       -4.0354  -22.9782  -57.7564 H         1 UNK         0.0600 
    239 H239       -3.3757  -23.1596  -56.1350 H         1 UNK         0.0600 
    240 H240       -1.9109  -20.5683  -55.4506 H         1 UNK         0.3000 
    241 H241       -0.3426  -19.9484  -57.8136 H         1 UNK         0.0600 
    242 H242       -1.9636  -16.4705  -56.6758 H         1 UNK         0.3800 
    243 H243       -2.6719  -17.9861  -56.1816 H         1 UNK         0.3800 
    244 H244        0.9445  -20.9933  -56.1905 H         1 UNK         0.0800 
    245 H245        1.4516  -19.3446  -56.0507 H         1 UNK         0.0800 
    246 H246        1.4682  -18.0658  -53.8541 H         1 UNK         0.0800 
    247 H247       -0.2329  -17.7302  -54.0813 H         1 UNK         0.0800 
@<TRIPOS>BOND
     1    1    2 1    
     2    1  127 1    
     3    1  128 1    
     4    1  129 1    
     5    2    3 2    
     6    2    4 am   BACKBONE|DICT|INTERRES
     7    4    5 1    
     8    4  130 1    
     9    5    6 1    
    10    5   65 1    
    11    5  131 1    
    12    6    7 1    
    13    6  132 1    
    14    6  133 1    
    15    7    8 1    
    16    8    9 1    
    17    8  134 1    
    18    8  135 1    
    19    9   10 ar   
    20    9   14 ar   
    21   10   11 ar   
    22   10  136 1    
    23   11   12 ar   
    24   11  126 1    
    25   12   13 ar   
    26   12  137 1    
    27   13   14 ar   
    28   13   15 1    
    29   14  138 1    
    30   15   16 1    
    31   15  139 1    
    32   15  140 1    
    33   16   17 1    
    34   17   18 1    
    35   17  141 1    
    36   17  142 1    
    37   18   19 1    
    38   18   67 1    
    39   18  143 1    
    40   19   20 am   BACKBONE|DICT|INTERRES
    41   19  144 1    
    42   20   21 2    
    43   20   22 1    
    44   22   23 1    
    45   22   24 1    
    46   22  145 1    
    47   23  146 1    
    48   23  147 1    
    49   23  148 1    
    50   24   25 am   BACKBONE|DICT|INTERRES
    51   24  149 1    
    52   25   26 2    
    53   25   27 1    
    54   27   28 1    
    55   27   29 1    
    56   27  150 1    
    57   28  151 1    
    58   28  152 1    
    59   28  153 1    
    60   29   30 am   BACKBONE|DICT|INTERRES
    61   29  154 1    
    62   30   31 2    
    63   30   32 1    
    64   32   33 1    
    65   32   34 1    
    66   32  155 1    
    67   33  156 1    
    68   33  157 1    
    69   33  158 1    
    70   34   35 am   BACKBONE|DICT|INTERRES
    71   34  159 1    
    72   35   36 2    
    73   35   37 1    
    74   37   38 1    
    75   37   39 1    
    76   37  160 1    
    77   38  161 1    
    78   38  162 1    
    79   38  163 1    
    80   39   40 am   BACKBONE|DICT|INTERRES
    81   39  164 1    
    82   40   41 2    
    83   40   42 1    
    84   42   43 1    
    85   42   44 1    
    86   42  165 1    
    87   43  166 1    
    88   43  167 1    
    89   43  168 1    
    90   44   45 am   BACKBONE|DICT|INTERRES
    91   44  169 1    
    92   45   46 2    
    93   45   47 1    
    94   47   48 1    
    95   47   49 1    
    96   47  170 1    
    97   48  171 1    
    98   48  172 1    
    99   48  173 1    
   100   49   50 am   BACKBONE|DICT|INTERRES
   101   49  174 1    
   102   50   51 2    
   103   50   52 1    
   104   52   53 1    
   105   52   54 1    
   106   52  175 1    
   107   53  176 1    
   108   53  177 1    
   109   53  178 1    
   110   54   55 am   BACKBONE|DICT|INTERRES
   111   54  179 1    
   112   55   56 2    
   113   55   57 1    
   114   57   58 1    
   115   57   59 1    
   116   57  180 1    
   117   58  181 1    
   118   58  182 1    
   119   58  183 1    
   120   59   60 am   BACKBONE|DICT|INTERRES
   121   59  184 1    
   122   60   61 2    
   123   60   62 1    
   124   62   63 1    
   125   62   64 1    
   126   62  185 1    
   127   63  186 1    
   128   63  187 1    
   129   63  188 1    
   130   64   65 am   BACKBONE|DICT|INTERRES
   131   64  189 1    
   132   65   66 2    
   133   67   68 2    
   134   67   69 am   BACKBONE|DICT|INTERRES
   135   69   70 1    
   136   69  190 1    
   137   70   71 1    
   138   70   72 1    
   139   70  191 1    
   140   71  192 1    
   141   71  193 1    
   142   71  194 1    
   143   72   73 2    
   144   72   74 am   BACKBONE|DICT|INTERRES
   145   74   75 1    
   146   74  195 1    
   147   75   76 1    
   148   75   77 1    
   149   75  196 1    
   150   76  197 1    
   151   76  198 1    
   152   76  199 1    
   153   77   78 2    
   154   77   79 am   BACKBONE|DICT|INTERRES
   155   79   80 1    
   156   79  200 1    
   157   80   81 1    
   158   80   82 1    
   159   80  201 1    
   160   81  202 1    
   161   81  203 1    
   162   81  204 1    
   163   82   83 2    
   164   82   84 am   BACKBONE|DICT|INTERRES
   165   84   85 1    
   166   84  205 1    
   167   85   86 1    
   168   85   87 1    
   169   85  206 1    
   170   86  207 1    
   171   86  208 1    
   172   86  209 1    
   173   87   88 2    
   174   87   89 am   BACKBONE|DICT|INTERRES
   175   89   90 1    
   176   89  210 1    
   177   90   91 1    
   178   90   92 1    
   179   90  211 1    
   180   91  212 1    
   181   91  213 1    
   182   91  214 1    
   183   92   93 2    
   184   92   94 am   BACKBONE|DICT|INTERRES
   185   94   95 1    
   186   94  215 1    
   187   95   96 1    
   188   95   97 1    
   189   95  216 1    
   190   96  217 1    
   191   96  218 1    
   192   96  219 1    
   193   97   98 2    
   194   97   99 am   BACKBONE|DICT|INTERRES
   195   99  100 1    
   196   99  220 1    
   197  100  101 1    
   198  100  102 1    
   199  100  221 1    
   200  101  222 1    
   201  101  223 1    
   202  101  224 1    
   203  102  103 2    
   204  102  104 am   BACKBONE|DICT|INTERRES
   205  104  105 1    
   206  104  225 1    
   207  105  106 1    
   208  105  107 1    
   209  105  226 1    
   210  106  227 1    
   211  106  228 1    
   212  106  229 1    
   213  107  108 2    
   214  107  109 am   BACKBONE|DICT|INTERRES
   215  109  110 1    
   216  109  230 1    
   217  110  111 1    
   218  110  112 1    
   219  110  231 1    
   220  111  232 1    
   221  111  233 1    
   222  111  234 1    
   223  112  113 2    
   224  112  114 am   BACKBONE|DICT|INTERRES
   225  114  115 1    
   226  114  235 1    
   227  115  116 1    
   228  115  117 1    
   229  115  236 1    
   230  116  237 1    
   231  116  238 1    
   232  116  239 1    
   233  117  118 2    
   234  117  119 am   BACKBONE|DICT|INTERRES
   235  119  120 1    
   236  119  240 1    
   237  120  121 1    
   238  120  124 1    
   239  120  241 1    
   240  121  122 am   BACKBONE|DICT|INTERRES
   241  121  123 2    
   242  122  242 1    
   243  122  243 1    
   244  124  125 1    
   245  124  244 1    
   246  124  245 1    
   247  125  126 1    
   248  126  246 1    
   249  126  247 1    
@<TRIPOS>SUBSTRUCTURE
     1 UNK         1 GROUP             0       ****    0 ROOT    
