@<TRIPOS>MOLECULE
3R540
247   249    1
SMALL
USER_CHARGES


@<TRIPOS>ATOM
      1 CA          6.0612  -11.0394  -47.2307 C.3       0 UNK        -0.1800 
      2 C           5.0366  -12.1611  -47.3319 C.2       0 UNK         0.5000 
      3 O           4.7390  -12.8116  -46.3289 O.2       0 UNK        -0.5000 
      4 N           4.5052  -12.3911  -48.5400 N.am      1 UNK        -0.5000 
      5 CA          3.5380  -13.4415  -48.8748 C.3       1 UNK         0.1400 
      6 C6          3.3013  -13.5121  -50.4067 C.3       23 UNK        -0.0398 
      7 S7          2.7644  -15.1679  -50.9454 S.3       23 UNK        -0.2404 
      8 C8          1.0353  -14.8588  -51.4188 C.3       23 UNK        -0.0205 
      9 C9          0.2379  -16.1494  -51.3540 C.ar      23 UNK        -0.0193 
     10 C10         0.0089  -16.9205  -52.4972 C.ar      23 UNK        -0.1150 
     11 C11        -0.6851  -18.1326  -52.4041 C.ar      23 UNK        -0.0193 
     12 C12        -1.1389  -18.5746  -51.1575 C.ar      23 UNK        -0.1150 
     13 C13        -0.9321  -17.7992  -50.0137 C.ar      23 UNK        -0.0193 
     14 C14        -0.2523  -16.5849  -50.1234 C.ar      23 UNK        -0.1150 
     15 C15        -1.4377  -18.2662  -48.6582 C.3       23 UNK        -0.0205 
     16 S16        -0.0915  -18.4293  -47.4449 S.3       23 UNK        -0.2404 
     17 C17         0.8734  -19.8245  -48.1115 C.3       23 UNK        -0.0398 
     18 CA          0.6200  -21.1815  -47.4142 C.3       11 UNK         0.1400 
     19 N           0.9567  -21.1904  -45.9854 N.am      11 UNK        -0.5000 
     20 C           1.1307  -22.3222  -45.2866 C.2       10 UNK         0.5000 
     21 O           1.0031  -23.4445  -45.7763 O.2       10 UNK        -0.5000 
     22 CA          1.4658  -22.1971  -43.7914 C.3       10 UNK         0.1400 
     23 CB          2.9278  -21.7733  -43.5863 C.3       10 UNK        -0.1800 
     24 N           0.5708  -21.2885  -43.0774 N.am      10 UNK        -0.5000 
     25 C          -0.7479  -21.4830  -42.9306 C.2       9 UNK         0.5000 
     26 O          -1.3534  -22.4499  -43.3921 O.2       9 UNK        -0.5000 
     27 CA         -1.5287  -20.4047  -42.1588 C.3       9 UNK         0.1400 
     28 CB         -1.3648  -20.5917  -40.6431 C.3       9 UNK        -0.1800 
     29 N          -1.1293  -19.0494  -42.5327 N.am      9 UNK        -0.5000 
     30 C          -1.3059  -18.5217  -43.7520 C.2       8 UNK         0.5000 
     31 O          -1.8822  -19.1040  -44.6702 O.2       8 UNK        -0.5000 
     32 CA         -0.6984  -17.1284  -43.9947 C.3       8 UNK         0.1400 
     33 CB         -1.5921  -16.0285  -43.4026 C.3       8 UNK        -0.1800 
     34 N           0.6569  -17.0013  -43.4585 N.am      8 UNK        -0.5000 
     35 C           1.7086  -17.7507  -43.8231 C.2       7 UNK         0.5000 
     36 O           1.6723  -18.6294  -44.6834 O.2       7 UNK        -0.5000 
     37 CA          3.0151  -17.5107  -43.0506 C.3       7 UNK         0.1400 
     38 CB          3.7438  -16.2612  -43.5716 C.3       7 UNK        -0.1800 
     39 N           2.7763  -17.3899  -41.6123 N.am      7 UNK        -0.5000 
     40 C           2.3678  -18.3987  -40.8282 C.2       6 UNK         0.5000 
     41 O           2.1887  -19.5487  -41.2281 O.2       6 UNK        -0.5000 
     42 CA          2.0672  -18.0511  -39.3593 C.3       6 UNK         0.1400 
     43 CB          3.3602  -18.0260  -38.5307 C.3       6 UNK        -0.1800 
     44 N           1.3752  -16.7692  -39.2208 N.am      6 UNK        -0.5000 
     45 C           0.1306  -16.5308  -39.6584 C.2       5 UNK         0.5000 
     46 O          -0.5827  -17.3821  -40.1878 O.2       5 UNK        -0.5000 
     47 CA         -0.3825  -15.0848  -39.5256 C.3       5 UNK         0.1400 
     48 CB         -1.0168  -14.8615  -38.1448 C.3       5 UNK        -0.1800 
     49 N           0.6577  -14.0766  -39.7536 N.am      5 UNK        -0.5000 
     50 C           1.3208  -13.9198  -40.9062 C.2       4 UNK         0.5000 
     51 O           1.1525  -14.6362  -41.8967 O.2       4 UNK        -0.5000 
     52 CA          2.3880  -12.8186  -40.9413 C.3       4 UNK         0.1400 
     53 CB          3.7478  -13.3883  -40.5069 C.3       4 UNK        -0.1800 
     54 N           2.5011  -12.3222  -42.3083 N.am      4 UNK        -0.5000 
     55 C           2.1149  -11.1138  -42.7319 C.2       3 UNK         0.5000 
     56 O           1.7221  -10.2158  -41.9857 O.2       3 UNK        -0.5000 
     57 CA          2.1653  -10.8678  -44.2521 C.3       3 UNK         0.1400 
     58 CB          3.4563  -10.1316  -44.6354 C.3       3 UNK        -0.1800 
     59 N           2.0556  -12.1018  -45.0382 N.am      3 UNK        -0.5000 
     60 C           0.9092  -12.7787  -45.2101 C.2       2 UNK         0.5000 
     61 O          -0.1639  -12.4127  -44.7278 O.2       2 UNK        -0.5000 
     62 CA          0.9728  -14.0799  -46.0428 C.3       2 UNK         0.1400 
     63 CB         -0.3804  -14.4499  -46.6857 C.3       2 UNK        -0.1800 
     64 N           2.0546  -14.1026  -47.0366 N.am      2 UNK        -0.5000 
     65 C           2.2259  -13.2694  -48.0754 C.2       1 UNK         0.5000 
     66 O           1.4415  -12.3694  -48.3815 O.2       1 UNK        -0.5000 
     67 C          -0.7926  -21.7346  -47.6928 C.2       11 UNK         0.5000 
     68 O          -0.9697  -22.4540  -48.6755 O.2       11 UNK        -0.5000 
     69 N          -1.7577  -21.4387  -46.8089 N.am      12 UNK        -0.5000 
     70 CA         -3.1259  -21.9546  -46.8873 C.3       12 UNK         0.1400 
     71 CB         -4.0245  -21.1777  -45.9154 C.3       12 UNK        -0.1800 
     72 C          -3.2253  -23.4695  -46.6246 C.2       12 UNK         0.5000 
     73 O          -4.1653  -24.0957  -47.1120 O.2       12 UNK        -0.5000 
     74 N          -2.2703  -24.0271  -45.8678 N.am      13 UNK        -0.5000 
     75 CA         -2.1320  -25.4641  -45.6393 C.3       13 UNK         0.1400 
     76 CB         -1.4146  -25.7008  -44.3013 C.3       13 UNK        -0.1800 
     77 C          -1.3821  -26.1626  -46.7887 C.2       13 UNK         0.5000 
     78 O          -1.7227  -27.2971  -47.1264 O.2       13 UNK        -0.5000 
     79 N          -0.3671  -25.4910  -47.3531 N.am      14 UNK        -0.5000 
     80 CA          0.4435  -25.9864  -48.4668 C.3       14 UNK         0.1400 
     81 CB          1.7014  -25.1169  -48.6170 C.3       14 UNK        -0.1800 
     82 C          -0.3432  -26.0447  -49.7881 C.2       14 UNK         0.5000 
     83 O          -0.3033  -27.0659  -50.4766 O.2       14 UNK        -0.5000 
     84 N          -1.0540  -24.9566  -50.1091 N.am      15 UNK        -0.5000 
     85 CA         -2.0055  -24.8861  -51.2158 C.3       15 UNK         0.1400 
     86 CB         -2.1996  -23.4097  -51.6036 C.3       15 UNK        -0.1800 
     87 C          -3.3496  -25.5221  -50.8159 C.2       15 UNK         0.5000 
     88 O          -3.6096  -25.7363  -49.6308 O.2       15 UNK        -0.5000 
     89 N          -4.2193  -25.7669  -51.8028 N.am      16 UNK        -0.5000 
     90 CA         -5.5897  -26.2468  -51.5986 C.3       16 UNK         0.1400 
     91 CB         -6.0739  -26.9485  -52.8807 C.3       16 UNK        -0.1800 
     92 C          -6.5203  -25.0993  -51.1463 C.2       16 UNK         0.5000 
     93 O          -7.4239  -24.7078  -51.8849 O.2       16 UNK        -0.5000 
     94 N          -6.2440  -24.5615  -49.9490 N.am      17 UNK        -0.5000 
     95 CA         -6.9069  -23.4290  -49.2883 C.3       17 UNK         0.1400 
     96 CB         -8.4079  -23.7078  -49.0604 C.3       17 UNK        -0.1800 
     97 C          -6.6453  -22.0639  -49.9637 C.2       17 UNK         0.5000 
     98 O          -7.3903  -21.1141  -49.7156 O.2       17 UNK        -0.5000 
     99 N          -5.5737  -21.9815  -50.7685 N.am      18 UNK        -0.5000 
    100 CA        -5.1149  -20.8066  -51.5201 C.3       18 UNK         0.1400 
    101 CB        -4.6107  -19.7124  -50.5528 C.3       18 UNK        -0.1800 
    102 C         -6.1637  -20.3111  -52.5430 C.2       18 UNK         0.5000 
    103 O         -6.8936  -21.1315  -53.1050 O.2       18 UNK        -0.5000 
    104 N         -6.1992  -18.9939  -52.7961 N.am      19 UNK        -0.5000 
    105 CA        -7.0864  -18.2955  -53.7323 C.3       19 UNK         0.1400 
    106 CB        -8.5353  -18.2858  -53.1952 C.3       19 UNK        -0.1800 
    107 C         -6.9508  -18.8526  -55.1643 C.2       19 UNK         0.5000 
    108 O         -5.9234  -18.6235  -55.8027 O.2       19 UNK        -0.5000 
    109 N         -7.9561  -19.6055  -55.6310 N.am      20 UNK        -0.5000 
    110 CA        -7.9696  -20.2859  -56.9280 C.3       20 UNK         0.1400 
    111 CB        -9.3489  -20.9265  -57.1430 C.3       20 UNK        -0.1800 
    112 C         -6.8543  -21.3391  -57.0900 C.2       20 UNK         0.5000 
    113 O         -6.4056  -21.5729  -58.2135 O.2       20 UNK        -0.5000 
    114 N         -6.3926  -21.9252  -55.9741 N.am      21 UNK        -0.5000 
    115 CA        -5.2911  -22.8913  -55.9399 C.3       21 UNK         0.1400 
    116 CB        -5.2449  -23.5627  -54.5608 C.3       21 UNK        -0.1800 
    117 C         -3.9189  -22.2782  -56.2840 C.2       21 UNK         0.5000 
    118 O         -2.9970  -23.0246  -56.6150 O.2       21 UNK        -0.5000 
    119 N         -3.8044  -20.9451  -56.2149 N.am      22 UNK        -0.5000 
    120 CA        -2.6155  -20.1877  -56.6340 C.3       22 UNK         0.1400 
    121 C         -2.4515  -20.0701  -58.1797 C.2       22 UNK         0.5000 
    122 N         -3.4318  -20.4511  -58.9926 N.am      22 UNK        -0.7600 
    123 O         -1.4073  -19.6298  -58.6525 O.2       22 UNK        -0.5000 
    124 C124       -2.5551  -18.7866  -55.9739 C.3       23 UNK        -0.0398 
    125 S125       -2.6933  -18.8287  -54.1533 S.3       23 UNK        -0.2404 
    126 C126       -0.9499  -18.9649  -53.6475 C.3       23 UNK        -0.0205 
    127 H127        7.0083  -11.4322  -46.8612 H         1 UNK         0.0600 
    128 H128        5.7196  -10.2706  -46.5390 H         1 UNK         0.0600 
    129 H129        6.2438  -10.5685  -48.1969 H         1 UNK         0.0600 
    130 H130        4.7759  -11.7931  -49.3075 H         1 UNK         0.3000 
    131 H131        4.0032  -14.3810  -48.5675 H         1 UNK         0.0600 
    132 H132        2.6065  -12.7435  -50.7502 H         1 UNK         0.0800 
    133 H133        4.2357  -13.3152  -50.9344 H         1 UNK         0.0800 
    134 H134        0.5881  -14.1238  -50.7472 H         1 UNK         0.0800 
    135 H135        1.0002  -14.4295  -52.4212 H         1 UNK         0.0800 
    136 H136        0.3779  -16.5815  -53.4551 H         1 UNK         0.1150 
    137 H137       -1.6631  -19.5171  -51.0849 H         1 UNK         0.1150 
    138 H138       -0.0734  -15.9881  -49.2425 H         1 UNK         0.1150 
    139 H139       -2.1612  -17.5416  -48.2828 H         1 UNK         0.0800 
    140 H140       -1.9680  -19.2147  -48.7405 H         1 UNK         0.0800 
    141 H141        0.7035  -19.9135  -49.1855 H         1 UNK         0.0800 
    142 H142        1.9273  -19.5637  -48.0084 H         1 UNK         0.0800 
    143 H143        1.3089  -21.8828  -47.8894 H         1 UNK         0.0600 
    144 H144        1.0731  -20.2880  -45.5293 H         1 UNK         0.3000 
    145 H145        1.3439  -23.1875  -43.3477 H         1 UNK         0.0600 
    146 H146        3.1971  -21.7882  -42.5302 H         1 UNK         0.0600 
    147 H147        3.6069  -22.4522  -44.1035 H         1 UNK         0.0600 
    148 H148        3.1167  -20.7694  -43.9653 H         1 UNK         0.0600 
    149 H149        1.0002  -20.4801  -42.6404 H         1 UNK         0.3000 
    150 H150       -2.5865  -20.5219  -42.4032 H         1 UNK         0.0600 
    151 H151       -1.6640  -21.5952  -40.3383 H         1 UNK         0.0600 
    152 H152       -1.9845  -19.8852  -40.0906 H         1 UNK         0.0600 
    153 H153       -0.3311  -20.4456  -40.3282 H         1 UNK         0.0600 
    154 H154       -0.6966  -18.4838  -41.8086 H         1 UNK         0.3000 
    155 H155       -0.6410  -16.9671  -45.0704 H         1 UNK         0.0600 
    156 H156       -1.7345  -16.1577  -42.3302 H         1 UNK         0.0600 
    157 H157       -2.5785  -16.0389  -43.8675 H         1 UNK         0.0600 
    158 H158       -1.1649  -15.0386  -43.5638 H         1 UNK         0.0600 
    159 H159        0.7992  -16.2770  -42.7592 H         1 UNK         0.3000 
    160 H160        3.6648  -18.3730  -43.2145 H         1 UNK         0.0600 
    161 H161        3.1480  -15.3574  -43.4496 H         1 UNK         0.0600 
    162 H162        3.9701  -16.3599  -44.6340 H         1 UNK         0.0600 
    163 H163        4.6902  -16.1115  -43.0518 H         1 UNK         0.0600 
    164 H164        2.8444  -16.4655  -41.2154 H         1 UNK         0.3000 
    165 H165        1.4188  -18.8330  -38.9579 H         1 UNK         0.0600 
    166 H166        3.1483  -17.8561  -37.4750 H         1 UNK         0.0600 
    167 H167        3.8895  -18.9768  -38.6059 H         1 UNK         0.0600 
    168 H168        4.0415  -17.2433  -38.8669 H         1 UNK         0.0600 
    169 H169        1.8895  -16.0130  -38.7943 H         1 UNK         0.3000 
    170 H170       -1.1564  -14.9395  -40.2818 H         1 UNK         0.0600 
    171 H171       -1.8089  -15.5878  -37.9574 H         1 UNK         0.0600 
    172 H172       -0.2841  -14.9604  -37.3429 H         1 UNK         0.0600 
    173 H173       -1.4638  -13.8698  -38.0717 H         1 UNK         0.0600 
    174 H174        0.8610  -13.4583  -38.9813 H         1 UNK         0.3000 
    175 H175        2.0996  -12.0194  -40.2555 H         1 UNK         0.0600 
    176 H176        4.0710  -14.2056  -41.1529 H         1 UNK         0.0600 
    177 H177        4.5200  -12.6192  -40.5327 H         1 UNK         0.0600 
    178 H178        3.7062  -13.7711  -39.4864 H         1 UNK         0.0600 
    179 H179        2.7338  -13.0137  -43.0058 H         1 UNK         0.3000 
    180 H180        1.3235  -10.2202  -44.5068 H         1 UNK         0.0600 
    181 H181        4.3404  -10.7342  -44.4241 H         1 UNK         0.0600 
    182 H182        3.5547   -9.1982  -44.0796 H         1 UNK         0.0600 
    183 H183        3.4606   -9.8783  -45.6954 H         1 UNK         0.0600 
    184 H184        2.9060  -12.4476  -45.4716 H         1 UNK         0.3000 
    185 H185        1.2104  -14.8646  -45.3239 H         1 UNK         0.0600 
    186 H186       -1.1853  -14.4583  -45.9508 H         1 UNK         0.0600 
    187 H187       -0.6671  -13.7516  -47.4718 H         1 UNK         0.0600 
    188 H188       -0.3425  -15.4486  -47.1145 H         1 UNK         0.0600 
    189 H189        2.7882  -14.7727  -46.8529 H         1 UNK         0.3000 
    190 H190       -1.5491  -20.8137  -46.0377 H         1 UNK         0.3000 
    191 H191       -3.4935  -21.7776  -47.9004 H         1 UNK         0.0600 
    192 H192       -3.6900  -21.2918  -44.8835 H         1 UNK         0.0600 
    193 H193       -5.0559  -21.5284  -45.9693 H         1 UNK         0.0600 
    194 H194       -4.0307  -20.1134  -46.1513 H         1 UNK         0.0600 
    195 H195       -1.5734  -23.4289  -45.4421 H         1 UNK         0.3000 
    196 H196       -3.1260  -25.9111  -45.5689 H         1 UNK         0.0600 
    197 H197       -1.3084  -26.7670  -44.0980 H         1 UNK         0.0600 
    198 H198       -1.9744  -25.2655  -43.4733 H         1 UNK         0.0600 
    199 H199       -0.4158  -25.2633  -44.2943 H         1 UNK         0.0600 
    200 H200       -0.0975  -24.5959  -46.9587 H         1 UNK         0.3000 
    201 H201        0.7645  -27.0015  -48.2239 H         1 UNK         0.0600 
    202 H202        2.2938  -25.1183  -47.7018 H         1 UNK         0.0600 
    203 H203        1.4504  -24.0827  -48.8521 H         1 UNK         0.0600 
    204 H204        2.3397  -25.4901  -49.4187 H         1 UNK         0.0600 
    205 H205       -1.0450  -24.1592  -49.4778 H         1 UNK         0.3000 
    206 H206       -1.6028  -25.4265  -52.0749 H         1 UNK         0.0600 
    207 H207       -1.2471  -22.9380  -51.8461 H         1 UNK         0.0600 
    208 H208       -2.8389  -23.3112  -52.4810 H         1 UNK         0.0600 
    209 H209       -2.6547  -22.8375  -50.7942 H         1 UNK         0.0600 
    210 H210       -3.9540  -25.5643  -52.7551 H         1 UNK         0.3000 
    211 H211       -5.5906  -26.9951  -50.8029 H         1 UNK         0.0600 
    212 H212       -6.0831  -26.2767  -53.7382 H         1 UNK         0.0600 
    213 H213       -7.0869  -27.3328  -52.7551 H         1 UNK         0.0600 
    214 H214       -5.4357  -27.7967  -53.1285 H         1 UNK         0.0600 
    215 H215       -5.4407  -24.9398  -49.4516 H         1 UNK         0.3000 
    216 H216       -6.4461  -23.3558  -48.3030 H         1 UNK         0.0600 
    217 H217       -8.8497  -22.9551  -48.4066 H         1 UNK         0.0600 
    218 H218       -8.5624  -24.6769  -48.5862 H         1 UNK         0.0600 
    219 H219       -8.9705  -23.6951  -49.9941 H         1 UNK         0.0600 
    220 H220       -5.0637  -22.8355  -50.9315 H         1 UNK         0.3000 
    221 H221       -4.2591  -21.1369  -52.1099 H         1 UNK         0.0600 
    222 H222       -5.4263  -19.2575  -49.9898 H         1 UNK         0.0600 
    223 H223       -3.9048  -20.1272  -49.8341 H         1 UNK         0.0600 
    224 H224       -4.0911  -18.9158  -51.0858 H         1 UNK         0.0600 
    225 H225       -5.5271  -18.4070  -52.3233 H         1 UNK         0.3000 
    226 H226       -6.7438  -17.2606  -53.7748 H         1 UNK         0.0600 
    227 H227       -8.5853  -17.7819  -52.2299 H         1 UNK         0.0600 
    228 H228       -9.2022  -17.7489  -53.8710 H         1 UNK         0.0600 
    229 H229       -8.9361  -19.2907  -53.0582 H         1 UNK         0.0600 
    230 H230       -8.7440  -19.7766  -55.0233 H         1 UNK         0.3000 
    231 H231       -7.8185  -19.5296  -57.7010 H         1 UNK         0.0600 
    232 H232       -9.4032  -21.4212  -58.1137 H         1 UNK         0.0600 
    233 H233      -10.1408  -20.1778  -57.1168 H         1 UNK         0.0600 
    234 H234       -9.5674  -21.6751  -56.3802 H         1 UNK         0.0600 
    235 H235       -6.7863  -21.6570  -55.0770 H         1 UNK         0.3000 
    236 H236       -5.5015  -23.6620  -56.6843 H         1 UNK         0.0600 
    237 H237       -6.2213  -23.9597  -54.2843 H         1 UNK         0.0600 
    238 H238       -4.5373  -24.3919  -54.5586 H         1 UNK         0.0600 
    239 H239       -4.9354  -22.8661  -53.7831 H         1 UNK         0.0600 
    240 H240       -4.6070  -20.3892  -55.9466 H         1 UNK         0.3000 
    241 H241       -1.7401  -20.7393  -56.2860 H         1 UNK         0.0600 
    242 H242       -3.3053  -20.3716  -59.9894 H         1 UNK         0.3800 
    243 H243       -4.3004  -20.8180  -58.6273 H         1 UNK         0.3800 
    244 H244       -1.6370  -18.2666  -56.2517 H         1 UNK         0.0800 
    245 H245       -3.3670  -18.1629  -56.3504 H         1 UNK         0.0800 
    246 H246       -0.7155  -20.0120  -53.4504 H         1 UNK         0.0800 
    247 H247       -0.2871  -18.6503  -54.4544 H         1 UNK         0.0800 
@<TRIPOS>BOND
     1    1    2 1    
     2    1  127 1    
     3    1  128 1    
     4    1  129 1    
     5    2    3 2    
     6    2    4 am   BACKBONE|DICT|INTERRES
     7    4    5 1    
     8    4  130 1    
     9    5    6 1    
    10    5   65 1    
    11    5  131 1    
    12    6    7 1    
    13    6  132 1    
    14    6  133 1    
    15    7    8 1    
    16    8    9 1    
    17    8  134 1    
    18    8  135 1    
    19    9   10 ar   
    20    9   14 ar   
    21   10   11 ar   
    22   10  136 1    
    23   11   12 ar   
    24   11  126 1    
    25   12   13 ar   
    26   12  137 1    
    27   13   14 ar   
    28   13   15 1    
    29   14  138 1    
    30   15   16 1    
    31   15  139 1    
    32   15  140 1    
    33   16   17 1    
    34   17   18 1    
    35   17  141 1    
    36   17  142 1    
    37   18   19 1    
    38   18   67 1    
    39   18  143 1    
    40   19   20 am   BACKBONE|DICT|INTERRES
    41   19  144 1    
    42   20   21 2    
    43   20   22 1    
    44   22   23 1    
    45   22   24 1    
    46   22  145 1    
    47   23  146 1    
    48   23  147 1    
    49   23  148 1    
    50   24   25 am   BACKBONE|DICT|INTERRES
    51   24  149 1    
    52   25   26 2    
    53   25   27 1    
    54   27   28 1    
    55   27   29 1    
    56   27  150 1    
    57   28  151 1    
    58   28  152 1    
    59   28  153 1    
    60   29   30 am   BACKBONE|DICT|INTERRES
    61   29  154 1    
    62   30   31 2    
    63   30   32 1    
    64   32   33 1    
    65   32   34 1    
    66   32  155 1    
    67   33  156 1    
    68   33  157 1    
    69   33  158 1    
    70   34   35 am   BACKBONE|DICT|INTERRES
    71   34  159 1    
    72   35   36 2    
    73   35   37 1    
    74   37   38 1    
    75   37   39 1    
    76   37  160 1    
    77   38  161 1    
    78   38  162 1    
    79   38  163 1    
    80   39   40 am   BACKBONE|DICT|INTERRES
    81   39  164 1    
    82   40   41 2    
    83   40   42 1    
    84   42   43 1    
    85   42   44 1    
    86   42  165 1    
    87   43  166 1    
    88   43  167 1    
    89   43  168 1    
    90   44   45 am   BACKBONE|DICT|INTERRES
    91   44  169 1    
    92   45   46 2    
    93   45   47 1    
    94   47   48 1    
    95   47   49 1    
    96   47  170 1    
    97   48  171 1    
    98   48  172 1    
    99   48  173 1    
   100   49   50 am   BACKBONE|DICT|INTERRES
   101   49  174 1    
   102   50   51 2    
   103   50   52 1    
   104   52   53 1    
   105   52   54 1    
   106   52  175 1    
   107   53  176 1    
   108   53  177 1    
   109   53  178 1    
   110   54   55 am   BACKBONE|DICT|INTERRES
   111   54  179 1    
   112   55   56 2    
   113   55   57 1    
   114   57   58 1    
   115   57   59 1    
   116   57  180 1    
   117   58  181 1    
   118   58  182 1    
   119   58  183 1    
   120   59   60 am   BACKBONE|DICT|INTERRES
   121   59  184 1    
   122   60   61 2    
   123   60   62 1    
   124   62   63 1    
   125   62   64 1    
   126   62  185 1    
   127   63  186 1    
   128   63  187 1    
   129   63  188 1    
   130   64   65 am   BACKBONE|DICT|INTERRES
   131   64  189 1    
   132   65   66 2    
   133   67   68 2    
   134   67   69 am   BACKBONE|DICT|INTERRES
   135   69   70 1    
   136   69  190 1    
   137   70   71 1    
   138   70   72 1    
   139   70  191 1    
   140   71  192 1    
   141   71  193 1    
   142   71  194 1    
   143   72   73 2    
   144   72   74 am   BACKBONE|DICT|INTERRES
   145   74   75 1    
   146   74  195 1    
   147   75   76 1    
   148   75   77 1    
   149   75  196 1    
   150   76  197 1    
   151   76  198 1    
   152   76  199 1    
   153   77   78 2    
   154   77   79 am   BACKBONE|DICT|INTERRES
   155   79   80 1    
   156   79  200 1    
   157   80   81 1    
   158   80   82 1    
   159   80  201 1    
   160   81  202 1    
   161   81  203 1    
   162   81  204 1    
   163   82   83 2    
   164   82   84 am   BACKBONE|DICT|INTERRES
   165   84   85 1    
   166   84  205 1    
   167   85   86 1    
   168   85   87 1    
   169   85  206 1    
   170   86  207 1    
   171   86  208 1    
   172   86  209 1    
   173   87   88 2    
   174   87   89 am   BACKBONE|DICT|INTERRES
   175   89   90 1    
   176   89  210 1    
   177   90   91 1    
   178   90   92 1    
   179   90  211 1    
   180   91  212 1    
   181   91  213 1    
   182   91  214 1    
   183   92   93 2    
   184   92   94 am   BACKBONE|DICT|INTERRES
   185   94   95 1    
   186   94  215 1    
   187   95   96 1    
   188   95   97 1    
   189   95  216 1    
   190   96  217 1    
   191   96  218 1    
   192   96  219 1    
   193   97   98 2    
   194   97   99 am   BACKBONE|DICT|INTERRES
   195   99  100 1    
   196   99  220 1    
   197  100  101 1    
   198  100  102 1    
   199  100  221 1    
   200  101  222 1    
   201  101  223 1    
   202  101  224 1    
   203  102  103 2    
   204  102  104 am   BACKBONE|DICT|INTERRES
   205  104  105 1    
   206  104  225 1    
   207  105  106 1    
   208  105  107 1    
   209  105  226 1    
   210  106  227 1    
   211  106  228 1    
   212  106  229 1    
   213  107  108 2    
   214  107  109 am   BACKBONE|DICT|INTERRES
   215  109  110 1    
   216  109  230 1    
   217  110  111 1    
   218  110  112 1    
   219  110  231 1    
   220  111  232 1    
   221  111  233 1    
   222  111  234 1    
   223  112  113 2    
   224  112  114 am   BACKBONE|DICT|INTERRES
   225  114  115 1    
   226  114  235 1    
   227  115  116 1    
   228  115  117 1    
   229  115  236 1    
   230  116  237 1    
   231  116  238 1    
   232  116  239 1    
   233  117  118 2    
   234  117  119 am   BACKBONE|DICT|INTERRES
   235  119  120 1    
   236  119  240 1    
   237  120  121 1    
   238  120  124 1    
   239  120  241 1    
   240  121  122 am   BACKBONE|DICT|INTERRES
   241  121  123 2    
   242  122  242 1    
   243  122  243 1    
   244  124  125 1    
   245  124  244 1    
   246  124  245 1    
   247  125  126 1    
   248  126  246 1    
   249  126  247 1    
@<TRIPOS>SUBSTRUCTURE
     1 UNK         1 GROUP             0       ****    0 ROOT    
