@<TRIPOS>MOLECULE
3R540
247   249    1
SMALL
USER_CHARGES


@<TRIPOS>ATOM
      1 CA          0.4772  -13.3176  -45.8383 C.3       0 UNK        -0.1800 
      2 C           1.8930  -13.5457  -46.3463 C.2       0 UNK         0.5000 
      3 O           2.7878  -13.8417  -45.5535 O.2       0 UNK        -0.5000 
      4 N           2.1023  -13.3946  -47.6618 N.am      1 UNK        -0.5000 
      5 CA          3.3670  -13.5402  -48.4049 C.3       1 UNK         0.1400 
      6 C6          4.0479  -14.9308  -48.2672 C.3       23 UNK        -0.0398 
      7 S7          2.9401  -16.3195  -48.6839 S.3       23 UNK        -0.2404 
      8 C8          3.6452  -16.9094  -50.2518 C.3       23 UNK        -0.0205 
      9 C9          2.9232  -18.1601  -50.7283 C.ar      23 UNK        -0.0193 
     10 C10         1.9041  -18.0740  -51.6814 C.ar      23 UNK        -0.1150 
     11 C11         1.2374  -19.2260  -52.1099 C.ar      23 UNK        -0.0193 
     12 C12         1.5854  -20.4653  -51.5658 C.ar      23 UNK        -0.1150 
     13 C13         2.5961  -20.5665  -50.6065 C.ar      23 UNK        -0.0193 
     14 C14         3.2739  -19.4087  -50.2069 C.ar      23 UNK        -0.1150 
     15 C15         2.9407  -21.9356  -50.0254 C.3       23 UNK        -0.0205 
     16 S16         3.2866  -21.9308  -48.2323 S.3       23 UNK        -0.2404 
     17 C17         1.7734  -21.1833  -47.5369 C.3       23 UNK        -0.0398 
     18 CA          0.7839  -22.2312  -46.9760 C.3       11 UNK         0.1400 
     19 N          -0.0386  -21.6821  -45.8965 N.am      11 UNK        -0.5000 
     20 C          -0.8486  -22.4003  -45.1064 C.2       10 UNK         0.5000 
     21 O          -0.9609  -23.6242  -45.1734 O.2       10 UNK        -0.5000 
     22 CA         -1.7201  -21.6097  -44.1123 C.3       10 UNK         0.1400 
     23 CB         -0.9118  -21.1893  -42.8757 C.3       10 UNK        -0.1800 
     24 N          -2.3266  -20.4303  -44.7311 N.am      10 UNK        -0.5000 
     25 C          -3.2242  -20.4834  -45.7258 C.2       9 UNK         0.5000 
     26 O          -3.6882  -21.5319  -46.1730 O.2       9 UNK        -0.5000 
     27 CA         -3.6335  -19.1454  -46.3612 C.3       9 UNK         0.1400 
     28 CB         -4.7680  -18.4811  -45.5678 C.3       9 UNK        -0.1800 
     29 N          -2.5046  -18.2233  -46.4797 N.am      9 UNK        -0.5000 
     30 C          -1.4749  -18.3990  -47.3209 C.2       8 UNK         0.5000 
     31 O          -1.3607  -19.3635  -48.0740 O.2       8 UNK        -0.5000 
     32 CA         -0.3509  -17.3514  -47.2657 C.3       8 UNK         0.1400 
     33 CB         -0.7471  -16.0904  -48.0492 C.3       8 UNK        -0.1800 
     34 N           0.0011  -16.9807  -45.8951 N.am      8 UNK        -0.5000 
     35 C           0.4874  -17.8221  -44.9716 C.2       7 UNK         0.5000 
     36 O           0.7447  -19.0040  -45.1921 O.2       7 UNK        -0.5000 
     37 CA          0.6553  -17.2675  -43.5449 C.3       7 UNK         0.1400 
     38 CB          2.0760  -16.7271  -43.3321 C.3       7 UNK        -0.1800 
     39 N          -0.3143  -16.2206  -43.2178 N.am      7 UNK        -0.5000 
     40 C          -1.6416  -16.3829  -43.1537 C.2       6 UNK         0.5000 
     41 O          -2.1949  -17.4632  -43.3698 O.2       6 UNK        -0.5000 
     42 CA         -2.4775  -15.1258  -42.8154 C.3       6 UNK         0.1400 
     43 CB         -3.9698  -15.4479  -42.6184 C.3       6 UNK        -0.1800 
     44 N          -1.9921  -14.4010  -41.6352 N.am      6 UNK        -0.5000 
     45 C          -0.8967  -13.6329  -41.5815 C.2       5 UNK         0.5000 
     46 O          -0.1293  -13.4795  -42.5345 O.2       5 UNK        -0.5000 
     47 CA         -0.5779  -12.9842  -40.2226 C.3       5 UNK         0.1400 
     48 CB          0.0719  -14.0123  -39.2825 C.3       5 UNK        -0.1800 
     49 N           0.3386  -11.8564  -40.3777 N.am      5 UNK        -0.5000 
     50 C           0.0019  -10.6391  -40.8257 C.2       4 UNK         0.5000 
     51 O          -1.1573  -10.2873  -41.0491 O.2       4 UNK        -0.5000 
     52 CA          1.1611   -9.6503  -41.0669 C.3       4 UNK         0.1400 
     53 CB          1.3996   -8.7842  -39.8204 C.3       4 UNK        -0.1800 
     54 N           2.4064  -10.3386  -41.4197 N.am      4 UNK        -0.5000 
     55 C           2.6630  -10.8461  -42.6322 C.2       3 UNK         0.5000 
     56 O           1.9406  -10.6697  -43.6165 O.2       3 UNK        -0.5000 
     57 CA          3.9142  -11.7352  -42.7359 C.3       3 UNK         0.1400 
     58 CB          3.6018  -13.1462  -42.2080 C.3       3 UNK        -0.1800 
     59 N           4.3670  -11.8519  -44.1197 N.am      3 UNK        -0.5000 
     60 C           5.1921  -10.9877  -44.7307 C.2       2 UNK         0.5000 
     61 O           5.6835  -10.0119  -44.1609 O.2       2 UNK        -0.5000 
     62 CA          5.5482  -11.2397  -46.2113 C.3       2 UNK         0.1400 
     63 CB          7.0360  -11.5999  -46.3734 C.3       2 UNK        -0.1800 
     64 N           4.7243  -12.2903  -46.8027 N.am      2 UNK        -0.5000 
     65 C           4.3565  -12.3990  -48.0815 C.2       1 UNK         0.5000 
     66 O           4.7353  -11.6400  -48.9745 O.2       1 UNK        -0.5000 
     67 C          -0.0789  -22.8566  -48.0911 C.2       11 UNK         0.5000 
     68 O           0.2112  -23.9709  -48.5232 O.2       11 UNK        -0.5000 
     69 N          -1.1491  -22.1595  -48.4993 N.am      12 UNK        -0.5000 
     70 CA         -2.1345  -22.6281  -49.4743 C.3       12 UNK         0.1400 
     71 CB         -3.1576  -21.5169  -49.7426 C.3       12 UNK        -0.1800 
     72 C          -2.8512  -23.9143  -49.0291 C.2       12 UNK         0.5000 
     73 O          -3.0035  -24.8313  -49.8349 O.2       12 UNK        -0.5000 
     74 N          -3.2451  -23.9751  -47.7492 N.am      13 UNK        -0.5000 
     75 CA         -3.8548  -25.1503  -47.1274 C.3       13 UNK         0.1400 
     76 CB         -4.3862  -24.7794  -45.7347 C.3       13 UNK        -0.1800 
     77 C          -2.8920  -26.3494  -47.0458 C.2       13 UNK         0.5000 
     78 O          -3.3143  -27.4787  -47.2957 O.2       13 UNK        -0.5000 
     79 N          -1.6190  -26.0838  -46.7199 N.am      14 UNK        -0.5000 
     80 CA         -0.5512  -27.0831  -46.6663 C.3       14 UNK         0.1400 
     81 CB          0.6793  -26.4843  -45.9674 C.3       14 UNK        -0.1800 
     82 C          -0.1801  -27.6330  -48.0564 C.2       14 UNK         0.5000 
     83 O          -0.0026  -28.8432  -48.2020 O.2       14 UNK        -0.5000 
     84 N          -0.0788  -26.7401  -49.0504 N.am      15 UNK        -0.5000 
     85 CA          0.2110  -27.0727  -50.4463 C.3       15 UNK         0.1400 
     86 CB          0.5806  -25.7871  -51.2037 C.3       15 UNK        -0.1800 
     87 C          -0.9540  -27.7929  -51.1514 C.2       15 UNK         0.5000 
     88 O          -0.7037  -28.6403  -52.0100 O.2       15 UNK        -0.5000 
     89 N          -2.1891  -27.4372  -50.7677 N.am      16 UNK        -0.5000 
     90 CA         -3.4769  -27.8418  -51.3380 C.3       16 UNK         0.1400 
     91 CB         -3.6479  -29.3756  -51.3202 C.3       16 UNK        -0.1800 
     92 C          -3.7222  -27.2363  -52.7365 C.2       16 UNK         0.5000 
     93 O          -2.8564  -26.5540  -53.2894 O.2       16 UNK        -0.5000 
     94 N          -4.9366  -27.4517  -53.2634 N.am      17 UNK        -0.5000 
     95 CA         -5.4738  -27.0132  -54.5643 C.3       17 UNK         0.1400 
     96 CB         -4.6464  -27.5878  -55.7302 C.3       17 UNK        -0.1800 
     97 C          -5.6758  -25.4900  -54.7290 C.2       17 UNK         0.5000 
     98 O          -6.5516  -25.0812  -55.4935 O.2       17 UNK        -0.5000 
     99 N          -4.8981  -24.6743  -54.0084 N.am      18 UNK        -0.5000 
    100 CA        -4.9519  -23.2138  -53.9639 C.3       18 UNK         0.1400 
    101 CB        -3.6215  -22.6981  -53.3863 C.3       18 UNK        -0.1800 
    102 C         -6.1799  -22.7002  -53.1816 C.2       18 UNK         0.5000 
    103 O         -6.0361  -22.0774  -52.1282 O.2       18 UNK        -0.5000 
    104 N         -7.3773  -22.9669  -53.7193 N.am      19 UNK        -0.5000 
    105 CA        -8.6859  -22.6301  -53.1451 C.3       19 UNK         0.1400 
    106 CB        -9.7837  -23.2383  -54.0310 C.3       19 UNK        -0.1800 
    107 C         -8.9334  -21.1208  -52.9374 C.2       19 UNK         0.5000 
    108 O         -9.7733  -20.7523  -52.1158 O.2       19 UNK        -0.5000 
    109 N         -8.1825  -20.2769  -53.6586 N.am      20 UNK        -0.5000 
    110 CA        -8.1472  -18.8216  -53.4955 C.3       20 UNK         0.1400 
    111 CB        -7.4705  -18.2098  -54.7328 C.3       20 UNK        -0.1800 
    112 C         -7.4309  -18.3581  -52.2071 C.2       20 UNK         0.5000 
    113 O         -7.5094  -17.1752  -51.8730 O.2       20 UNK        -0.5000 
    114 N         -6.7249  -19.2767  -51.5271 N.am      21 UNK        -0.5000 
    115 CA        -5.9669  -19.0885  -50.2844 C.3       21 UNK         0.1400 
    116 CB        -6.8954  -18.6775  -49.1227 C.3       21 UNK        -0.1800 
    117 C         -4.7438  -18.1577  -50.4285 C.2       21 UNK         0.5000 
    118 O         -4.2399  -17.6589  -49.4227 O.2       21 UNK        -0.5000 
    119 N         -4.2844  -17.9486  -51.6710 N.am      22 UNK        -0.5000 
    120 CA        -3.1095  -17.1388  -52.0429 C.3       22 UNK         0.1400 
    121 C         -3.2062  -15.6259  -51.6682 C.2       22 UNK         0.5000 
    122 N         -4.3960  -15.0789  -51.4470 N.am      22 UNK        -0.7600 
    123 O         -2.1998  -14.9244  -51.6161 O.2       22 UNK        -0.5000 
    124 C124       -1.7781  -17.8041  -51.5949 C.3       23 UNK        -0.0398 
    125 S125       -1.5049  -19.3921  -52.4537 S.3       23 UNK        -0.2404 
    126 C126        0.1487  -19.1459  -53.1695 C.3       23 UNK        -0.0205 
    127 H127        0.1483  -14.1683  -45.2450 H         1 UNK         0.0600 
    128 H128       -0.2316  -13.1738  -46.6540 H         1 UNK         0.0600 
    129 H129        0.4490  -12.4338  -45.2011 H         1 UNK         0.0600 
    130 H130        1.3190  -13.1215  -48.2381 H         1 UNK         0.3000 
    131 H131        3.0968  -13.4223  -49.4557 H         1 UNK         0.0600 
    132 H132        4.4033  -15.0923  -47.2486 H         1 UNK         0.0800 
    133 H133        4.9352  -14.9789  -48.9006 H         1 UNK         0.0800 
    134 H134        3.5792  -16.1191  -51.0012 H         1 UNK         0.0800 
    135 H135        4.7060  -17.1272  -50.1186 H         1 UNK         0.0800 
    136 H136        1.6328  -17.1109  -52.0903 H         1 UNK         0.1150 
    137 H137        1.0601  -21.3527  -51.8909 H         1 UNK         0.1150 
    138 H138        4.0629  -19.4727  -49.4710 H         1 UNK         0.1150 
    139 H139        2.1332  -22.6444  -50.2159 H         1 UNK         0.0800 
    140 H140        3.8165  -22.3221  -50.5476 H         1 UNK         0.0800 
    141 H141        1.2907  -20.5126  -48.2495 H         1 UNK         0.0800 
    142 H142        2.1220  -20.5395  -46.7297 H         1 UNK         0.0800 
    143 H143        1.3655  -23.0393  -46.5268 H         1 UNK         0.0600 
    144 H144        0.0320  -20.6799  -45.7415 H         1 UNK         0.3000 
    145 H145       -2.5275  -22.2666  -43.7817 H         1 UNK         0.0600 
    146 H146       -1.5362  -20.6556  -42.1589 H         1 UNK         0.0600 
    147 H147       -0.0752  -20.5421  -43.1376 H         1 UNK         0.0600 
    148 H148       -0.5023  -22.0619  -42.3655 H         1 UNK         0.0600 
    149 H149       -2.0147  -19.5232  -44.4081 H         1 UNK         0.3000 
    150 H150       -4.0036  -19.3571  -47.3655 H         1 UNK         0.0600 
    151 H151       -5.6409  -19.1333  -45.5208 H         1 UNK         0.0600 
    152 H152       -5.0839  -17.5495  -46.0379 H         1 UNK         0.0600 
    153 H153       -4.4711  -18.2587  -44.5428 H         1 UNK         0.0600 
    154 H154       -2.4931  -17.4380  -45.8465 H         1 UNK         0.3000 
    155 H155        0.5316  -17.7902  -47.7354 H         1 UNK         0.0600 
    156 H156       -1.0117  -16.3337  -49.0777 H         1 UNK         0.0600 
    157 H157        0.0762  -15.3800  -48.0949 H         1 UNK         0.0600 
    158 H158       -1.6046  -15.5862  -47.6022 H         1 UNK         0.0600 
    159 H159       -0.1852  -16.0305  -45.6173 H         1 UNK         0.3000 
    160 H160        0.4973  -18.0945  -42.8500 H         1 UNK         0.0600 
    161 H161        2.2864  -15.8835  -43.9885 H         1 UNK         0.0600 
    162 H162        2.8218  -17.4962  -43.5373 H         1 UNK         0.0600 
    163 H163        2.2236  -16.3958  -42.3041 H         1 UNK         0.0600 
    164 H164        0.0503  -15.2902  -43.0288 H         1 UNK         0.3000 
    165 H165       -2.3987  -14.4597  -43.6772 H         1 UNK         0.0600 
    166 H166       -4.5475  -14.5432  -42.4281 H         1 UNK         0.0600 
    167 H167       -4.3919  -15.9158  -43.5087 H         1 UNK         0.0600 
    168 H168       -4.1270  -16.1299  -41.7819 H         1 UNK         0.0600 
    169 H169       -2.5416  -14.5148  -40.7955 H         1 UNK         0.3000 
    170 H170       -1.5082  -12.6289  -39.7745 H         1 UNK         0.0600 
    171 H171        1.0007  -14.4068  -39.6974 H         1 UNK         0.0600 
    172 H172        0.2990  -13.5708  -38.3119 H         1 UNK         0.0600 
    173 H173       -0.5923  -14.8588  -39.1041 H         1 UNK         0.0600 
    174 H174        1.3184  -12.0623  -40.2630 H         1 UNK         0.3000 
    175 H175        0.8730   -8.9911  -41.8888 H         1 UNK         0.0600 
    176 H176        1.6950   -9.3862  -38.9602 H         1 UNK         0.0600 
    177 H177        2.1808   -8.0448  -39.9978 H         1 UNK         0.0600 
    178 H178        0.4951   -8.2401  -39.5450 H         1 UNK         0.0600 
    179 H179        3.0606  -10.5020  -40.6678 H         1 UNK         0.3000 
    180 H180        4.7100  -11.3019  -42.1261 H         1 UNK         0.0600 
    181 H181        4.4648  -13.8051  -42.3046 H         1 UNK         0.0600 
    182 H182        2.7713  -13.6025  -42.7492 H         1 UNK         0.0600 
    183 H183        3.3294  -13.1228  -41.1526 H         1 UNK         0.0600 
    184 H184        3.9087  -12.5855  -44.6475 H         1 UNK         0.3000 
    185 H185        5.3552  -10.3036  -46.7394 H         1 UNK         0.0600 
    186 H186        7.2749  -12.5406  -45.8762 H         1 UNK         0.0600 
    187 H187        7.3076  -11.6976  -47.4246 H         1 UNK         0.0600 
    188 H188        7.6766  -10.8281  -45.9448 H         1 UNK         0.0600 
    189 H189        4.2993  -12.9524  -46.1617 H         1 UNK         0.3000 
    190 H190       -1.2873  -21.2160  -48.1437 H         1 UNK         0.3000 
    191 H191       -1.6048  -22.8405  -50.4051 H         1 UNK         0.0600 
    192 H192       -2.6732  -20.6091  -50.0975 H         1 UNK         0.0600 
    193 H193       -3.7193  -21.2623  -48.8450 H         1 UNK         0.0600 
    194 H194       -3.8777  -21.8211  -50.5009 H         1 UNK         0.0600 
    195 H195       -3.1338  -23.1544  -47.1611 H         1 UNK         0.3000 
    196 H196       -4.7046  -25.4499  -47.7443 H         1 UNK         0.0600 
    197 H197       -5.1324  -23.9871  -45.7967 H         1 UNK         0.0600 
    198 H198       -3.5880  -24.4347  -45.0768 H         1 UNK         0.0600 
    199 H199       -4.8606  -25.6368  -45.2559 H         1 UNK         0.0600 
    200 H200       -1.3650  -25.1318  -46.4761 H         1 UNK         0.3000 
    201 H201       -0.9058  -27.9207  -46.0621 H         1 UNK         0.0600 
    202 H202        0.4381  -26.1608  -44.9547 H         1 UNK         0.0600 
    203 H203        1.0720  -25.6228  -46.5078 H         1 UNK         0.0600 
    204 H204        1.4819  -27.2190  -45.8924 H         1 UNK         0.0600 
    205 H205       -0.1724  -25.7503  -48.8311 H         1 UNK         0.3000 
    206 H206        1.0756  -27.7394  -50.4647 H         1 UNK         0.0600 
    207 H207       -0.2406  -25.0689  -51.1976 H         1 UNK         0.0600 
    208 H208        1.4513  -25.3037  -50.7602 H         1 UNK         0.0600 
    209 H209        0.8213  -26.0019  -52.2456 H         1 UNK         0.0600 
    210 H210       -2.2581  -26.6579  -50.1212 H         1 UNK         0.3000 
    211 H211       -4.2308  -27.4136  -50.6757 H         1 UNK         0.0600 
    212 H212       -3.0209  -29.8658  -52.0653 H         1 UNK         0.0600 
    213 H213       -4.6792  -29.6601  -51.5297 H         1 UNK         0.0600 
    214 H214       -3.3941  -29.7882  -50.3435 H         1 UNK         0.0600 
    215 H215       -5.5913  -27.9838  -52.7070 H         1 UNK         0.3000 
    216 H216       -6.4697  -27.4544  -54.6279 H         1 UNK         0.0600 
    217 H217       -5.1179  -27.3650  -56.6881 H         1 UNK         0.0600 
    218 H218       -4.5596  -28.6718  -55.6557 H         1 UNK         0.0600 
    219 H219       -3.6393  -27.1712  -55.7609 H         1 UNK         0.0600 
    220 H220       -4.1666  -25.1139  -53.4600 H         1 UNK         0.3000 
    221 H221       -5.0390  -22.8368  -54.9849 H         1 UNK         0.0600 
    222 H222       -3.4201  -23.1254  -52.4038 H         1 UNK         0.0600 
    223 H223       -2.7852  -22.9572  -54.0357 H         1 UNK         0.0600 
    224 H224       -3.6264  -21.6121  -53.2834 H         1 UNK         0.0600 
    225 H225       -7.3860  -23.5330  -54.5623 H         1 UNK         0.3000 
    226 H226       -8.7404  -23.1009  -52.1615 H         1 UNK         0.0600 
    227 H227       -9.6744  -24.3203  -54.1079 H         1 UNK         0.0600 
    228 H228      -10.7746  -23.0415  -53.6194 H         1 UNK         0.0600 
    229 H229       -9.7586  -22.8256  -55.0403 H         1 UNK         0.0600 
    230 H230       -7.5325  -20.6736  -54.3207 H         1 UNK         0.3000 
    231 H231       -9.1743  -18.4540  -53.4477 H         1 UNK         0.0600 
    232 H232       -7.4549  -17.1206  -54.6735 H         1 UNK         0.0600 
    233 H233       -8.0042  -18.4746  -55.6458 H         1 UNK         0.0600 
    234 H234       -6.4386  -18.5475  -54.8363 H         1 UNK         0.0600 
    235 H235       -6.6918  -20.2234  -51.8940 H         1 UNK         0.3000 
    236 H236       -5.5663  -20.0713  -50.0390 H         1 UNK         0.0600 
    237 H237       -7.2766  -17.6637  -49.2464 H         1 UNK         0.0600 
    238 H238       -7.7487  -19.3509  -49.0430 H         1 UNK         0.0600 
    239 H239       -6.3681  -18.7114  -48.1692 H         1 UNK         0.0600 
    240 H240       -4.7673  -18.3989  -52.4333 H         1 UNK         0.3000 
    241 H241       -3.1047  -17.1262  -53.1333 H         1 UNK         0.0600 
    242 H242       -4.4574  -14.0996  -51.2180 H         1 UNK         0.3800 
    243 H243       -5.2335  -15.6402  -51.4883 H         1 UNK         0.3800 
    244 H244       -0.9291  -17.1482  -51.7894 H         1 UNK         0.0800 
    245 H245       -1.7768  -17.9903  -50.5211 H         1 UNK         0.0800 
    246 H246        0.3237  -19.9188  -53.9192 H         1 UNK         0.0800 
    247 H247        0.1847  -18.1937  -53.7010 H         1 UNK         0.0800 
@<TRIPOS>BOND
     1    1    2 1    
     2    1  127 1    
     3    1  128 1    
     4    1  129 1    
     5    2    3 2    
     6    2    4 am   BACKBONE|DICT|INTERRES
     7    4    5 1    
     8    4  130 1    
     9    5    6 1    
    10    5   65 1    
    11    5  131 1    
    12    6    7 1    
    13    6  132 1    
    14    6  133 1    
    15    7    8 1    
    16    8    9 1    
    17    8  134 1    
    18    8  135 1    
    19    9   10 ar   
    20    9   14 ar   
    21   10   11 ar   
    22   10  136 1    
    23   11   12 ar   
    24   11  126 1    
    25   12   13 ar   
    26   12  137 1    
    27   13   14 ar   
    28   13   15 1    
    29   14  138 1    
    30   15   16 1    
    31   15  139 1    
    32   15  140 1    
    33   16   17 1    
    34   17   18 1    
    35   17  141 1    
    36   17  142 1    
    37   18   19 1    
    38   18   67 1    
    39   18  143 1    
    40   19   20 am   BACKBONE|DICT|INTERRES
    41   19  144 1    
    42   20   21 2    
    43   20   22 1    
    44   22   23 1    
    45   22   24 1    
    46   22  145 1    
    47   23  146 1    
    48   23  147 1    
    49   23  148 1    
    50   24   25 am   BACKBONE|DICT|INTERRES
    51   24  149 1    
    52   25   26 2    
    53   25   27 1    
    54   27   28 1    
    55   27   29 1    
    56   27  150 1    
    57   28  151 1    
    58   28  152 1    
    59   28  153 1    
    60   29   30 am   BACKBONE|DICT|INTERRES
    61   29  154 1    
    62   30   31 2    
    63   30   32 1    
    64   32   33 1    
    65   32   34 1    
    66   32  155 1    
    67   33  156 1    
    68   33  157 1    
    69   33  158 1    
    70   34   35 am   BACKBONE|DICT|INTERRES
    71   34  159 1    
    72   35   36 2    
    73   35   37 1    
    74   37   38 1    
    75   37   39 1    
    76   37  160 1    
    77   38  161 1    
    78   38  162 1    
    79   38  163 1    
    80   39   40 am   BACKBONE|DICT|INTERRES
    81   39  164 1    
    82   40   41 2    
    83   40   42 1    
    84   42   43 1    
    85   42   44 1    
    86   42  165 1    
    87   43  166 1    
    88   43  167 1    
    89   43  168 1    
    90   44   45 am   BACKBONE|DICT|INTERRES
    91   44  169 1    
    92   45   46 2    
    93   45   47 1    
    94   47   48 1    
    95   47   49 1    
    96   47  170 1    
    97   48  171 1    
    98   48  172 1    
    99   48  173 1    
   100   49   50 am   BACKBONE|DICT|INTERRES
   101   49  174 1    
   102   50   51 2    
   103   50   52 1    
   104   52   53 1    
   105   52   54 1    
   106   52  175 1    
   107   53  176 1    
   108   53  177 1    
   109   53  178 1    
   110   54   55 am   BACKBONE|DICT|INTERRES
   111   54  179 1    
   112   55   56 2    
   113   55   57 1    
   114   57   58 1    
   115   57   59 1    
   116   57  180 1    
   117   58  181 1    
   118   58  182 1    
   119   58  183 1    
   120   59   60 am   BACKBONE|DICT|INTERRES
   121   59  184 1    
   122   60   61 2    
   123   60   62 1    
   124   62   63 1    
   125   62   64 1    
   126   62  185 1    
   127   63  186 1    
   128   63  187 1    
   129   63  188 1    
   130   64   65 am   BACKBONE|DICT|INTERRES
   131   64  189 1    
   132   65   66 2    
   133   67   68 2    
   134   67   69 am   BACKBONE|DICT|INTERRES
   135   69   70 1    
   136   69  190 1    
   137   70   71 1    
   138   70   72 1    
   139   70  191 1    
   140   71  192 1    
   141   71  193 1    
   142   71  194 1    
   143   72   73 2    
   144   72   74 am   BACKBONE|DICT|INTERRES
   145   74   75 1    
   146   74  195 1    
   147   75   76 1    
   148   75   77 1    
   149   75  196 1    
   150   76  197 1    
   151   76  198 1    
   152   76  199 1    
   153   77   78 2    
   154   77   79 am   BACKBONE|DICT|INTERRES
   155   79   80 1    
   156   79  200 1    
   157   80   81 1    
   158   80   82 1    
   159   80  201 1    
   160   81  202 1    
   161   81  203 1    
   162   81  204 1    
   163   82   83 2    
   164   82   84 am   BACKBONE|DICT|INTERRES
   165   84   85 1    
   166   84  205 1    
   167   85   86 1    
   168   85   87 1    
   169   85  206 1    
   170   86  207 1    
   171   86  208 1    
   172   86  209 1    
   173   87   88 2    
   174   87   89 am   BACKBONE|DICT|INTERRES
   175   89   90 1    
   176   89  210 1    
   177   90   91 1    
   178   90   92 1    
   179   90  211 1    
   180   91  212 1    
   181   91  213 1    
   182   91  214 1    
   183   92   93 2    
   184   92   94 am   BACKBONE|DICT|INTERRES
   185   94   95 1    
   186   94  215 1    
   187   95   96 1    
   188   95   97 1    
   189   95  216 1    
   190   96  217 1    
   191   96  218 1    
   192   96  219 1    
   193   97   98 2    
   194   97   99 am   BACKBONE|DICT|INTERRES
   195   99  100 1    
   196   99  220 1    
   197  100  101 1    
   198  100  102 1    
   199  100  221 1    
   200  101  222 1    
   201  101  223 1    
   202  101  224 1    
   203  102  103 2    
   204  102  104 am   BACKBONE|DICT|INTERRES
   205  104  105 1    
   206  104  225 1    
   207  105  106 1    
   208  105  107 1    
   209  105  226 1    
   210  106  227 1    
   211  106  228 1    
   212  106  229 1    
   213  107  108 2    
   214  107  109 am   BACKBONE|DICT|INTERRES
   215  109  110 1    
   216  109  230 1    
   217  110  111 1    
   218  110  112 1    
   219  110  231 1    
   220  111  232 1    
   221  111  233 1    
   222  111  234 1    
   223  112  113 2    
   224  112  114 am   BACKBONE|DICT|INTERRES
   225  114  115 1    
   226  114  235 1    
   227  115  116 1    
   228  115  117 1    
   229  115  236 1    
   230  116  237 1    
   231  116  238 1    
   232  116  239 1    
   233  117  118 2    
   234  117  119 am   BACKBONE|DICT|INTERRES
   235  119  120 1    
   236  119  240 1    
   237  120  121 1    
   238  120  124 1    
   239  120  241 1    
   240  121  122 am   BACKBONE|DICT|INTERRES
   241  121  123 2    
   242  122  242 1    
   243  122  243 1    
   244  124  125 1    
   245  124  244 1    
   246  124  245 1    
   247  125  126 1    
   248  126  246 1    
   249  126  247 1    
@<TRIPOS>SUBSTRUCTURE
     1 UNK         1 GROUP             0       ****    0 ROOT    
