@<TRIPOS>MOLECULE
3R540
247   249    1
SMALL
USER_CHARGES


@<TRIPOS>ATOM
      1 CA         -8.7546  -14.8226  -48.0826 C.3       0 UNK        -0.1800 
      2 C          -7.6568  -13.7773  -48.2265 C.2       0 UNK         0.5000 
      3 O          -7.8717  -12.6114  -47.8934 O.2       0 UNK        -0.5000 
      4 N          -6.4863  -14.1889  -48.7281 N.am      1 UNK        -0.5000 
      5 CA         -5.2896  -13.3541  -48.8677 C.3       1 UNK         0.1400 
      6 C6         -4.2680  -14.0213  -49.8214 C.3       23 UNK        -0.0398 
      7 S7         -3.1056  -12.8395  -50.5904 S.3       23 UNK        -0.2404 
      8 C8         -1.5496  -13.1481  -49.6922 C.3       23 UNK        -0.0205 
      9 C9         -0.9874  -14.5360  -49.9583 C.ar      23 UNK        -0.0193 
     10 C10        -0.2750  -14.8009  -51.1318 C.ar      23 UNK        -0.1150 
     11 C11         0.2258  -16.0824  -51.3847 C.ar      23 UNK        -0.0193 
     12 C12         0.0027  -17.1010  -50.4513 C.ar      23 UNK        -0.1150 
     13 C13        -0.6901  -16.8427  -49.2675 C.ar      23 UNK        -0.0193 
     14 C14        -1.1770  -15.5574  -49.0249 C.ar      23 UNK        -0.1150 
     15 C15        -0.9074  -17.9413  -48.2433 C.3       23 UNK        -0.0205 
     16 S16        -2.6009  -18.5910  -48.3126 S.3       23 UNK        -0.2404 
     17 C17        -2.6610  -19.5812  -46.7833 C.3       23 UNK        -0.0398 
     18 CA         -2.3666  -21.0805  -47.0467 C.3       11 UNK         0.1400 
     19 N          -0.9635  -21.4361  -46.8122 N.am      11 UNK        -0.5000 
     20 C          -0.4100  -22.6156  -47.1288 C.2       10 UNK         0.5000 
     21 O          -1.0100  -23.5138  -47.7153 O.2       10 UNK        -0.5000 
     22 CA          1.0341  -22.8602  -46.6563 C.3       10 UNK         0.1400 
     23 CB          2.0529  -22.1883  -47.5897 C.3       10 UNK        -0.1800 
     24 N           1.2391  -22.4137  -45.2776 N.am      10 UNK        -0.5000 
     25 C           0.6485  -22.9758  -44.2127 C.2       9 UNK         0.5000 
     26 O          -0.0757  -23.9695  -44.2803 O.2       9 UNK        -0.5000 
     27 CA          0.8597  -22.2848  -42.8534 C.3       9 UNK         0.1400 
     28 CB          2.1605  -22.7597  -42.1892 C.3       9 UNK        -0.1800 
     29 N           0.8641  -20.8255  -42.9701 N.am      9 UNK        -0.5000 
     30 C          -0.2267  -20.0930  -43.2382 C.2       8 UNK         0.5000 
     31 O          -1.3509  -20.5720  -43.3792 O.2       8 UNK        -0.5000 
     32 CA         -0.0247  -18.5793  -43.4395 C.3       8 UNK         0.1400 
     33 CB         -0.0600  -17.8400  -42.0945 C.3       8 UNK        -0.1800 
     34 N           1.2128  -18.2419  -44.1457 N.am      8 UNK        -0.5000 
     35 C           1.5403  -18.6788  -45.3694 C.2       7 UNK         0.5000 
     36 O           0.8066  -19.3896  -46.0513 O.2       7 UNK        -0.5000 
     37 CA          2.9411  -18.3199  -45.8938 C.3       7 UNK         0.1400 
     38 CB          2.9326  -16.9447  -46.5772 C.3       7 UNK        -0.1800 
     39 N           3.9558  -18.3510  -44.8383 N.am      7 UNK        -0.5000 
     40 C           4.2962  -19.4385  -44.1327 C.2       6 UNK         0.5000 
     41 O           3.8242  -20.5551  -44.3501 O.2       6 UNK        -0.5000 
     42 CA          5.2701  -19.2532  -42.9498 C.3       6 UNK         0.1400 
     43 CB          6.7380  -19.3535  -43.4065 C.3       6 UNK        -0.1800 
     44 N           5.0162  -18.0428  -42.1513 N.am      6 UNK        -0.5000 
     45 C           5.1909  -16.7616  -42.5013 C.2       5 UNK         0.5000 
     46 O           5.7007  -16.3997  -43.5647 O.2       5 UNK        -0.5000 
     47 CA          4.6524  -15.7038  -41.5166 C.3       5 UNK         0.1400 
     48 CB          5.7830  -15.1705  -40.6241 C.3       5 UNK        -0.1800 
     49 N           4.0233  -14.5816  -42.2190 N.am      5 UNK        -0.5000 
     50 C           2.9889  -14.6953  -43.0635 C.2       4 UNK         0.5000 
     51 O           2.3755  -15.7518  -43.2425 O.2       4 UNK        -0.5000 
     52 CA          2.6166  -13.4301  -43.8633 C.3       4 UNK         0.1400 
     53 CB          3.8024  -12.9527  -44.7209 C.3       4 UNK        -0.1800 
     54 N           1.4909  -13.6893  -44.7588 N.am      4 UNK        -0.5000 
     55 C           0.2002  -13.5760  -44.4323 C.2       3 UNK         0.5000 
     56 O          -0.2088  -13.1370  -43.3543 O.2       3 UNK        -0.5000 
     57 CA         -0.7966  -14.0874  -45.4892 C.3       3 UNK         0.1400 
     58 CB         -1.2037  -15.5329  -45.1710 C.3       3 UNK        -0.1800 
     59 N          -2.0047  -13.2725  -45.5905 N.am      3 UNK        -0.5000 
     60 C          -2.0520  -11.9908  -45.9700 C.2       2 UNK         0.5000 
     61 O          -1.0594  -11.3310  -46.2837 O.2       2 UNK        -0.5000 
     62 CA         -3.4622  -11.3793  -46.0930 C.3       2 UNK         0.1400 
     63 CB         -3.4362   -9.8405  -46.1031 C.3       2 UNK        -0.1800 
     64 N          -4.1310  -11.8451  -47.3099 N.am      2 UNK        -0.5000 
     65 C          -4.6731  -13.0577  -47.4819 C.2       1 UNK         0.5000 
     66 O          -4.6849  -13.9282  -46.6067 O.2       1 UNK        -0.5000 
     67 C          -3.3312  -21.9884  -46.2602 C.2       11 UNK         0.5000 
     68 O          -4.3434  -22.3999  -46.8232 O.2       11 UNK        -0.5000 
     69 N          -3.0059  -22.3187  -45.0022 N.am      12 UNK        -0.5000 
     70 CA         -3.7796  -23.2528  -44.1804 C.3       12 UNK         0.1400 
     71 CB         -3.2386  -23.2669  -42.7431 C.3       12 UNK        -0.1800 
     72 C          -3.8127  -24.6733  -44.7748 C.2       12 UNK         0.5000 
     73 O          -4.8841  -25.2769  -44.8373 O.2       12 UNK        -0.5000 
     74 N          -2.6555  -25.1569  -45.2493 N.am      13 UNK        -0.5000 
     75 CA         -2.5139  -26.4385  -45.9444 C.3       13 UNK         0.1400 
     76 CB         -1.0223  -26.7610  -46.1205 C.3       13 UNK        -0.1800 
     77 C          -3.2465  -26.4720  -47.3009 C.2       13 UNK         0.5000 
     78 O          -3.8552  -27.4876  -47.6391 O.2       13 UNK        -0.5000 
     79 N          -3.1976  -25.3547  -48.0380 N.am      14 UNK        -0.5000 
     80 CA         -3.8624  -25.1604  -49.3283 C.3       14 UNK         0.1400 
     81 CB         -3.1645  -24.0103  -50.0713 C.3       14 UNK        -0.1800 
     82 C          -5.3776  -24.8859  -49.2213 C.2       14 UNK         0.5000 
     83 O          -6.0412  -24.8186  -50.2552 O.2       14 UNK        -0.5000 
     84 N          -5.8966  -24.7064  -47.9976 N.am      15 UNK        -0.5000 
     85 CA         -7.2798  -24.3486  -47.6630 C.3       15 UNK         0.1400 
     86 CB         -8.2571  -25.4768  -48.0545 C.3       15 UNK        -0.1800 
     87 C          -7.6791  -22.9660  -48.2241 C.2       15 UNK         0.5000 
     88 O          -8.7364  -22.8184  -48.8389 O.2       15 UNK        -0.5000 
     89 N          -6.7962  -21.9835  -47.9987 N.am      16 UNK        -0.5000 
     90 CA         -6.8744  -20.5665  -48.3714 C.3       16 UNK         0.1400 
     91 CB         -8.1380  -19.8953  -47.7944 C.3       16 UNK        -0.1800 
     92 C          -6.6905  -20.2833  -49.8761 C.2       16 UNK         0.5000 
     93 O          -6.8503  -19.1349  -50.2943 O.2       16 UNK        -0.5000 
     94 N          -6.3216  -21.3009  -50.6660 N.am      17 UNK        -0.5000 
     95 CA         -5.9595  -21.1641  -52.0742 C.3       17 UNK         0.1400 
     96 CB         -6.1395  -22.5163  -52.7836 C.3       17 UNK        -0.1800 
     97 C          -4.5205  -20.6320  -52.1908 C.2       17 UNK         0.5000 
     98 O          -3.5780  -21.4178  -52.2952 O.2       17 UNK        -0.5000 
     99 N          -4.3757  -19.3013  -52.1513 N.am      18 UNK        -0.5000 
    100 CA        -3.0999  -18.5791  -52.1907 C.3       18 UNK         0.1400 
    101 CB        -3.3772  -17.0698  -52.1382 C.3       18 UNK        -0.1800 
    102 C         -2.2134  -18.9345  -53.4001 C.2       18 UNK         0.5000 
    103 O         -0.9995  -19.0684  -53.2498 O.2       18 UNK        -0.5000 
    104 N         -2.8414  -19.1460  -54.5649 N.am      19 UNK        -0.5000 
    105 CA        -2.1785  -19.5829  -55.7946 C.3       19 UNK         0.1400 
    106 CB        -3.1883  -19.5557  -56.9516 C.3       19 UNK        -0.1800 
    107 C         -1.5292  -20.9756  -55.6743 C.2       19 UNK         0.5000 
    108 O         -0.4430  -21.1844  -56.2137 O.2       19 UNK        -0.5000 
    109 N         -2.1820  -21.8917  -54.9460 N.am      20 UNK        -0.5000 
    110 CA        -1.6609  -23.2281  -54.6574 C.3       20 UNK         0.1400 
    111 CB        -2.8222  -24.1662  -54.2962 C.3       20 UNK        -0.1800 
    112 C         -0.5995  -23.2051  -53.5425 C.2       20 UNK         0.5000 
    113 O          0.3277  -24.0143  -53.5787 O.2       20 UNK        -0.5000 
    114 N         -0.7426  -22.2743  -52.5885 N.am      21 UNK        -0.5000 
    115 CA         0.2054  -22.0405  -51.5010 C.3       21 UNK         0.1400 
    116 CB        -0.4263  -21.1094  -50.4576 C.3       21 UNK        -0.1800 
    117 C          1.5555  -21.4911  -52.0000 C.2       21 UNK         0.5000 
    118 O          2.5960  -22.0332  -51.6242 O.2       21 UNK        -0.5000 
    119 N          1.5216  -20.4487  -52.8435 N.am      22 UNK        -0.5000 
    120 CA         2.7233  -19.8900  -53.4914 C.3       22 UNK         0.1400 
    121 C          3.2309  -20.7229  -54.7025 C.2       22 UNK         0.5000 
    122 N          2.3856  -21.4521  -55.4192 N.am      22 UNK        -0.7600 
    123 O          4.4237  -20.7129  -54.9947 O.2       22 UNK        -0.5000 
    124 C124        2.5580  -18.3999  -53.8860 C.3       23 UNK        -0.0398 
    125 S125        2.5044  -17.3087  -52.4232 S.3       23 UNK        -0.2404 
    126 C126        0.9605  -16.3742  -52.6869 C.3       23 UNK        -0.0205 
    127 H127       -8.4275  -15.8049  -48.4251 H         1 UNK         0.0600 
    128 H128       -9.6281  -14.5328  -48.6666 H         1 UNK         0.0600 
    129 H129       -9.0546  -14.9097  -47.0384 H         1 UNK         0.0600 
    130 H130       -6.3658  -15.1670  -48.9479 H         1 UNK         0.3000 
    131 H131       -5.6097  -12.4089  -49.3123 H         1 UNK         0.0600 
    132 H132       -4.8000  -14.4862  -50.6527 H         1 UNK         0.0800 
    133 H133       -3.7425  -14.8380  -49.3281 H         1 UNK         0.0800 
    134 H134       -1.7115  -13.0022  -48.6256 H         1 UNK         0.0800 
    135 H135       -0.8161  -12.3979  -49.9907 H         1 UNK         0.0800 
    136 H136       -0.1275  -14.0107  -51.8546 H         1 UNK         0.1150 
    137 H137        0.3750  -18.0955  -50.6491 H         1 UNK         0.1150 
    138 H138       -1.7249  -15.3584  -48.1161 H         1 UNK         0.1150 
    139 H139       -0.2038  -18.7590  -48.4036 H         1 UNK         0.0800 
    140 H140       -0.7047  -17.5447  -47.2496 H         1 UNK         0.0800 
    141 H141       -3.6639  -19.4315  -46.3780 H         1 UNK         0.0800 
    142 H142       -1.9861  -19.1692  -46.0326 H         1 UNK         0.0800 
    143 H143       -2.5723  -21.2911  -48.0971 H         1 UNK         0.0600 
    144 H144       -0.3743  -20.7273  -46.3797 H         1 UNK         0.3000 
    145 H145        1.2141  -23.9369  -46.6869 H         1 UNK         0.0600 
    146 H146        3.0742  -22.3715  -47.2557 H         1 UNK         0.0600 
    147 H147        1.9672  -22.5824  -48.6032 H         1 UNK         0.0600 
    148 H148        1.9093  -21.1101  -47.6477 H         1 UNK         0.0600 
    149 H149        1.8159  -21.5941  -45.1396 H         1 UNK         0.3000 
    150 H150        0.0301  -22.5701  -42.2032 H         1 UNK         0.0600 
    151 H151        2.1447  -23.8395  -42.0362 H         1 UNK         0.0600 
    152 H152        2.2978  -22.2956  -41.2125 H         1 UNK         0.0600 
    153 H153        3.0359  -22.5306  -42.7966 H         1 UNK         0.0600 
    154 H154        1.7615  -20.3654  -42.9266 H         1 UNK         0.3000 
    155 H155       -0.8600  -18.2231  -44.0438 H         1 UNK         0.0600 
    156 H156        0.7890  -18.1091  -41.4651 H         1 UNK         0.0600 
    157 H157       -0.9702  -18.0751  -41.5412 H         1 UNK         0.0600 
    158 H158       -0.0393  -16.7596  -42.2399 H         1 UNK         0.0600 
    159 H159        1.8307  -17.5774  -43.6883 H         1 UNK         0.3000 
    160 H160        3.2144  -19.0685  -46.6401 H         1 UNK         0.0600 
    161 H161        2.6900  -16.1476  -45.8763 H         1 UNK         0.0600 
    162 H162        2.1948  -16.9125  -47.3805 H         1 UNK         0.0600 
    163 H163        3.9034  -16.7184  -47.0182 H         1 UNK         0.0600 
    164 H164        4.4011  -17.4729  -44.5918 H         1 UNK         0.3000 
    165 H165        5.0890  -20.0886  -42.2713 H         1 UNK         0.0600 
    166 H166        6.9941  -18.5914  -44.1426 H         1 UNK         0.0600 
    167 H167        7.4215  -19.2508  -42.5637 H         1 UNK         0.0600 
    168 H168        6.9326  -20.3229  -43.8667 H         1 UNK         0.0600 
    169 H169        4.5760  -18.2212  -41.2590 H         1 UNK         0.3000 
    170 H170        3.8931  -16.1649  -40.8816 H         1 UNK         0.0600 
    171 H171        6.5596  -14.6779  -41.2107 H         1 UNK         0.0600 
    172 H172        5.4062  -14.4533  -39.8947 H         1 UNK         0.0600 
    173 H173        6.2565  -15.9804  -40.0675 H         1 UNK         0.0600 
    174 H174        4.4933  -13.6918  -42.1438 H         1 UNK         0.3000 
    175 H175        2.3521  -12.6417  -43.1555 H         1 UNK         0.0600 
    176 H176        4.1528  -13.7362  -45.3947 H         1 UNK         0.0600 
    177 H177        3.5275  -12.0890  -45.3267 H         1 UNK         0.0600 
    178 H178        4.6480  -12.6508  -44.1021 H         1 UNK         0.0600 
    179 H179        1.7298  -14.0936  -45.6514 H         1 UNK         0.3000 
    180 H180       -0.3119  -14.0710  -46.4676 H         1 UNK         0.0600 
    181 H181       -1.9463  -15.9112  -45.8730 H         1 UNK         0.0600 
    182 H182       -1.6217  -15.6215  -44.1673 H         1 UNK         0.0600 
    183 H183       -0.3356  -16.1881  -45.2259 H         1 UNK         0.0600 
    184 H184       -2.8844  -13.7443  -45.4200 H         1 UNK         0.3000 
    185 H185       -4.0429  -11.6958  -45.2238 H         1 UNK         0.0600 
    186 H186       -4.4461   -9.4301  -46.1147 H         1 UNK         0.0600 
    187 H187       -2.9393   -9.4533  -45.2126 H         1 UNK         0.0600 
    188 H188       -2.9059   -9.4490  -46.9722 H         1 UNK         0.0600 
    189 H189       -4.1310  -11.1996  -48.0866 H         1 UNK         0.3000 
    190 H190       -2.1979  -21.8860  -44.5654 H         1 UNK         0.3000 
    191 H191       -4.8078  -22.8866  -44.1461 H         1 UNK         0.0600 
    192 H192       -3.8281  -23.9332  -42.1121 H         1 UNK         0.0600 
    193 H193       -3.2822  -22.2739  -42.2957 H         1 UNK         0.0600 
    194 H194       -2.2048  -23.6079  -42.7019 H         1 UNK         0.0600 
    195 H195       -1.8096  -24.6093  -45.1252 H         1 UNK         0.3000 
    196 H196       -2.9544  -27.2117  -45.3115 H         1 UNK         0.0600 
    197 H197       -0.5163  -26.0110  -46.7289 H         1 UNK         0.0600 
    198 H198       -0.5132  -26.8072  -45.1576 H         1 UNK         0.0600 
    199 H199       -0.8862  -27.7268  -46.6084 H         1 UNK         0.0600 
    200 H200       -2.6061  -24.5911  -47.7209 H         1 UNK         0.3000 
    201 H201       -3.7390  -26.0692  -49.9205 H         1 UNK         0.0600 
    202 H202       -3.5746  -23.8852  -51.0720 H         1 UNK         0.0600 
    203 H203       -3.2879  -23.0619  -49.5487 H         1 UNK         0.0600 
    204 H204       -2.0965  -24.1968  -50.1848 H         1 UNK         0.0600 
    205 H205       -5.2562  -24.7411  -47.2153 H         1 UNK         0.3000 
    206 H206       -7.3109  -24.2546  -46.5764 H         1 UNK         0.0600 
    207 H207       -7.9489  -26.4303  -47.6256 H         1 UNK         0.0600 
    208 H208       -9.2618  -25.2652  -47.6869 H         1 UNK         0.0600 
    209 H209       -8.3263  -25.6015  -49.1354 H         1 UNK         0.0600 
    210 H210       -5.9308  -22.2384  -47.5202 H         1 UNK         0.3000 
    211 H211       -6.0159  -20.0991  -47.8868 H         1 UNK         0.0600 
    212 H212       -8.0974  -18.8126  -47.9199 H         1 UNK         0.0600 
    213 H213       -8.2375  -20.0923  -46.7270 H         1 UNK         0.0600 
    214 H214       -9.0454  -20.2436  -48.2879 H         1 UNK         0.0600 
    215 H215       -6.2073  -22.2171  -50.2558 H         1 UNK         0.3000 
    216 H216       -6.6323  -20.4504  -52.5545 H         1 UNK         0.0600 
    217 H217       -5.5063  -23.2905  -52.3524 H         1 UNK         0.0600 
    218 H218       -5.8854  -22.4387  -53.8413 H         1 UNK         0.0600 
    219 H219       -7.1721  -22.8596  -52.7196 H         1 UNK         0.0600 
    220 H220       -5.2032  -18.7413  -51.9953 H         1 UNK         0.3000 
    221 H221       -2.5449  -18.8502  -51.2925 H         1 UNK         0.0600 
    222 H222       -3.8536  -16.7949  -51.1974 H         1 UNK         0.0600 
    223 H223       -4.0255  -16.7482  -52.9538 H         1 UNK         0.0600 
    224 H224       -2.4539  -16.4958  -52.2099 H         1 UNK         0.0600 
    225 H225       -3.8428  -19.0262  -54.6011 H         1 UNK         0.3000 
    226 H226       -1.3839  -18.8675  -56.0172 H         1 UNK         0.0600 
    227 H227       -4.0255  -20.2314  -56.7722 H         1 UNK         0.0600 
    228 H228       -3.5906  -18.5535  -57.1007 H         1 UNK         0.0600 
    229 H229       -2.7170  -19.8579  -57.8878 H         1 UNK         0.0600 
    230 H230       -3.0265  -21.6228  -54.4598 H         1 UNK         0.3000 
    231 H231       -1.1851  -23.6208  -55.5588 H         1 UNK         0.0600 
    232 H232       -3.3516  -23.8292  -53.4067 H         1 UNK         0.0600 
    233 H233       -2.4609  -25.1762  -54.0988 H         1 UNK         0.0600 
    234 H234       -3.5442  -24.2315  -55.1102 H         1 UNK         0.0600 
    235 H235       -1.5748  -21.6952  -52.6035 H         1 UNK         0.3000 
    236 H236        0.3953  -22.9998  -51.0148 H         1 UNK         0.0600 
    237 H237       -0.6676  -20.1361  -50.8768 H         1 UNK         0.0600 
    238 H238       -1.3462  -21.5360  -50.0611 H         1 UNK         0.0600 
    239 H239        0.2493  -20.9424  -49.6194 H         1 UNK         0.0600 
    240 H240        0.6279  -20.0236  -53.0785 H         1 UNK         0.3000 
    241 H241        3.5346  -19.9277  -52.7613 H         1 UNK         0.0600 
    242 H242        2.7413  -21.9876  -56.1946 H         1 UNK         0.3800 
    243 H243        1.3854  -21.4108  -55.2703 H         1 UNK         0.3800 
    244 H244        1.6701  -18.2696  -54.5060 H         1 UNK         0.0800 
    245 H245        3.4006  -18.0638  -54.4931 H         1 UNK         0.0800 
    246 H246        1.2081  -15.4474  -53.2064 H         1 UNK         0.0800 
    247 H247        0.2842  -16.9165  -53.3440 H         1 UNK         0.0800 
@<TRIPOS>BOND
     1    1    2 1    
     2    1  127 1    
     3    1  128 1    
     4    1  129 1    
     5    2    3 2    
     6    2    4 am   BACKBONE|DICT|INTERRES
     7    4    5 1    
     8    4  130 1    
     9    5    6 1    
    10    5   65 1    
    11    5  131 1    
    12    6    7 1    
    13    6  132 1    
    14    6  133 1    
    15    7    8 1    
    16    8    9 1    
    17    8  134 1    
    18    8  135 1    
    19    9   10 ar   
    20    9   14 ar   
    21   10   11 ar   
    22   10  136 1    
    23   11   12 ar   
    24   11  126 1    
    25   12   13 ar   
    26   12  137 1    
    27   13   14 ar   
    28   13   15 1    
    29   14  138 1    
    30   15   16 1    
    31   15  139 1    
    32   15  140 1    
    33   16   17 1    
    34   17   18 1    
    35   17  141 1    
    36   17  142 1    
    37   18   19 1    
    38   18   67 1    
    39   18  143 1    
    40   19   20 am   BACKBONE|DICT|INTERRES
    41   19  144 1    
    42   20   21 2    
    43   20   22 1    
    44   22   23 1    
    45   22   24 1    
    46   22  145 1    
    47   23  146 1    
    48   23  147 1    
    49   23  148 1    
    50   24   25 am   BACKBONE|DICT|INTERRES
    51   24  149 1    
    52   25   26 2    
    53   25   27 1    
    54   27   28 1    
    55   27   29 1    
    56   27  150 1    
    57   28  151 1    
    58   28  152 1    
    59   28  153 1    
    60   29   30 am   BACKBONE|DICT|INTERRES
    61   29  154 1    
    62   30   31 2    
    63   30   32 1    
    64   32   33 1    
    65   32   34 1    
    66   32  155 1    
    67   33  156 1    
    68   33  157 1    
    69   33  158 1    
    70   34   35 am   BACKBONE|DICT|INTERRES
    71   34  159 1    
    72   35   36 2    
    73   35   37 1    
    74   37   38 1    
    75   37   39 1    
    76   37  160 1    
    77   38  161 1    
    78   38  162 1    
    79   38  163 1    
    80   39   40 am   BACKBONE|DICT|INTERRES
    81   39  164 1    
    82   40   41 2    
    83   40   42 1    
    84   42   43 1    
    85   42   44 1    
    86   42  165 1    
    87   43  166 1    
    88   43  167 1    
    89   43  168 1    
    90   44   45 am   BACKBONE|DICT|INTERRES
    91   44  169 1    
    92   45   46 2    
    93   45   47 1    
    94   47   48 1    
    95   47   49 1    
    96   47  170 1    
    97   48  171 1    
    98   48  172 1    
    99   48  173 1    
   100   49   50 am   BACKBONE|DICT|INTERRES
   101   49  174 1    
   102   50   51 2    
   103   50   52 1    
   104   52   53 1    
   105   52   54 1    
   106   52  175 1    
   107   53  176 1    
   108   53  177 1    
   109   53  178 1    
   110   54   55 am   BACKBONE|DICT|INTERRES
   111   54  179 1    
   112   55   56 2    
   113   55   57 1    
   114   57   58 1    
   115   57   59 1    
   116   57  180 1    
   117   58  181 1    
   118   58  182 1    
   119   58  183 1    
   120   59   60 am   BACKBONE|DICT|INTERRES
   121   59  184 1    
   122   60   61 2    
   123   60   62 1    
   124   62   63 1    
   125   62   64 1    
   126   62  185 1    
   127   63  186 1    
   128   63  187 1    
   129   63  188 1    
   130   64   65 am   BACKBONE|DICT|INTERRES
   131   64  189 1    
   132   65   66 2    
   133   67   68 2    
   134   67   69 am   BACKBONE|DICT|INTERRES
   135   69   70 1    
   136   69  190 1    
   137   70   71 1    
   138   70   72 1    
   139   70  191 1    
   140   71  192 1    
   141   71  193 1    
   142   71  194 1    
   143   72   73 2    
   144   72   74 am   BACKBONE|DICT|INTERRES
   145   74   75 1    
   146   74  195 1    
   147   75   76 1    
   148   75   77 1    
   149   75  196 1    
   150   76  197 1    
   151   76  198 1    
   152   76  199 1    
   153   77   78 2    
   154   77   79 am   BACKBONE|DICT|INTERRES
   155   79   80 1    
   156   79  200 1    
   157   80   81 1    
   158   80   82 1    
   159   80  201 1    
   160   81  202 1    
   161   81  203 1    
   162   81  204 1    
   163   82   83 2    
   164   82   84 am   BACKBONE|DICT|INTERRES
   165   84   85 1    
   166   84  205 1    
   167   85   86 1    
   168   85   87 1    
   169   85  206 1    
   170   86  207 1    
   171   86  208 1    
   172   86  209 1    
   173   87   88 2    
   174   87   89 am   BACKBONE|DICT|INTERRES
   175   89   90 1    
   176   89  210 1    
   177   90   91 1    
   178   90   92 1    
   179   90  211 1    
   180   91  212 1    
   181   91  213 1    
   182   91  214 1    
   183   92   93 2    
   184   92   94 am   BACKBONE|DICT|INTERRES
   185   94   95 1    
   186   94  215 1    
   187   95   96 1    
   188   95   97 1    
   189   95  216 1    
   190   96  217 1    
   191   96  218 1    
   192   96  219 1    
   193   97   98 2    
   194   97   99 am   BACKBONE|DICT|INTERRES
   195   99  100 1    
   196   99  220 1    
   197  100  101 1    
   198  100  102 1    
   199  100  221 1    
   200  101  222 1    
   201  101  223 1    
   202  101  224 1    
   203  102  103 2    
   204  102  104 am   BACKBONE|DICT|INTERRES
   205  104  105 1    
   206  104  225 1    
   207  105  106 1    
   208  105  107 1    
   209  105  226 1    
   210  106  227 1    
   211  106  228 1    
   212  106  229 1    
   213  107  108 2    
   214  107  109 am   BACKBONE|DICT|INTERRES
   215  109  110 1    
   216  109  230 1    
   217  110  111 1    
   218  110  112 1    
   219  110  231 1    
   220  111  232 1    
   221  111  233 1    
   222  111  234 1    
   223  112  113 2    
   224  112  114 am   BACKBONE|DICT|INTERRES
   225  114  115 1    
   226  114  235 1    
   227  115  116 1    
   228  115  117 1    
   229  115  236 1    
   230  116  237 1    
   231  116  238 1    
   232  116  239 1    
   233  117  118 2    
   234  117  119 am   BACKBONE|DICT|INTERRES
   235  119  120 1    
   236  119  240 1    
   237  120  121 1    
   238  120  124 1    
   239  120  241 1    
   240  121  122 am   BACKBONE|DICT|INTERRES
   241  121  123 2    
   242  122  242 1    
   243  122  243 1    
   244  124  125 1    
   245  124  244 1    
   246  124  245 1    
   247  125  126 1    
   248  126  246 1    
   249  126  247 1    
@<TRIPOS>SUBSTRUCTURE
     1 UNK         1 GROUP             0       ****    0 ROOT    
