@<TRIPOS>MOLECULE
3R540
247   249    1
SMALL
USER_CHARGES


@<TRIPOS>ATOM
      1 CA         -1.1953  -11.3360  -45.6217 C.3       0 UNK        -0.1800 
      2 C          -2.3292  -11.9999  -46.3996 C.2       0 UNK         0.5000 
      3 O          -3.3115  -11.3344  -46.7195 O.2       0 UNK        -0.5000 
      4 N          -2.2445  -13.2952  -46.7328 N.am      1 UNK        -0.5000 
      5 CA         -1.1610  -14.2292  -46.3899 C.3       1 UNK         0.1400 
      6 C6         -1.0737  -15.4062  -47.3946 C.3       23 UNK        -0.0398 
      7 S7         -0.7819  -14.8081  -49.0947 S.3       23 UNK        -0.2404 
      8 C8          0.9255  -15.3435  -49.4370 C.3       23 UNK        -0.0205 
      9 C9          0.9660  -16.6019  -50.2932 C.ar      23 UNK        -0.0193 
     10 C10         0.4883  -16.5604  -51.6077 C.ar      23 UNK        -0.1150 
     11 C11         0.5467  -17.6929  -52.4229 C.ar      23 UNK        -0.0193 
     12 C12         1.0954  -18.8738  -51.9180 C.ar      23 UNK        -0.1150 
     13 C13         1.5893  -18.9273  -50.6118 C.ar      23 UNK        -0.0193 
     14 C14         1.5159  -17.7900  -49.7991 C.ar      23 UNK        -0.1150 
     15 C15         2.2344  -20.2090  -50.1075 C.3       23 UNK        -0.0205 
     16 S16         1.0071  -21.3624  -49.4238 S.3       23 UNK        -0.2404 
     17 C17         0.9038  -20.7566  -47.7117 C.3       23 UNK        -0.0398 
     18 CA         -0.0272  -21.6259  -46.8322 C.3       11 UNK         0.1400 
     19 N           0.4021  -21.6514  -45.4323 N.am      11 UNK        -0.5000 
     20 C          -0.1218  -22.4408  -44.4836 C.2       10 UNK         0.5000 
     21 O          -0.9808  -23.2946  -44.7016 O.2       10 UNK        -0.5000 
     22 CA          0.3520  -22.1937  -43.0393 C.3       10 UNK         0.1400 
     23 CB          1.6691  -22.9319  -42.7601 C.3       10 UNK        -0.1800 
     24 N           0.5092  -20.7680  -42.7452 N.am      10 UNK        -0.5000 
     25 C          -0.4984  -19.8834  -42.7462 C.2       9 UNK         0.5000 
     26 O          -1.6781  -20.1975  -42.9022 O.2       9 UNK        -0.5000 
     27 CA         -0.1264  -18.3964  -42.6185 C.3       9 UNK         0.1400 
     28 CB          0.0662  -17.9891  -41.1518 C.3       9 UNK        -0.1800 
     29 N           1.0622  -18.0464  -43.3913 N.am      9 UNK        -0.5000 
     30 C           1.1345  -18.0722  -44.7282 C.2       8 UNK         0.5000 
     31 O           0.1881  -18.3612  -45.4588 O.2       8 UNK        -0.5000 
     32 CA          2.5090  -17.7860  -45.3551 C.3       8 UNK         0.1400 
     33 CB          2.7432  -16.2780  -45.5186 C.3       8 UNK        -0.1800 
     34 N           3.5985  -18.3706  -44.5739 N.am      8 UNK        -0.5000 
     35 C           3.8400  -19.6851  -44.4792 C.2       7 UNK         0.5000 
     36 O           3.1893  -20.5420  -45.0763 O.2       7 UNK        -0.5000 
     37 CA          4.9713  -20.1123  -43.5260 C.3       7 UNK         0.1400 
     38 CB          6.3397  -19.9687  -44.2086 C.3       7 UNK        -0.1800 
     39 N           4.9692  -19.3515  -42.2750 N.am      7 UNK        -0.5000 
     40 C           4.0093  -19.4367  -41.3433 C.2       6 UNK         0.5000 
     41 O           3.0427  -20.1933  -41.4275 O.2       6 UNK        -0.5000 
     42 CA          4.1207  -18.4833  -40.1371 C.3       6 UNK         0.1400 
     43 CB          5.0015  -19.1030  -39.0421 C.3       6 UNK        -0.1800 
     44 N           4.6258  -17.1453  -40.4674 N.am      6 UNK        -0.5000 
     45 C           4.0785  -16.3169  -41.3672 C.2       5 UNK         0.5000 
     46 O           3.1264  -16.6272  -42.0840 O.2       5 UNK        -0.5000 
     47 CA          4.7438  -14.9364  -41.5262 C.3       5 UNK         0.1400 
     48 CB          6.0351  -15.0649  -42.3505 C.3       5 UNK        -0.1800 
     49 N           3.8752  -13.9554  -42.1821 N.am      5 UNK        -0.5000 
     50 C           2.7124  -13.4926  -41.7027 C.2       4 UNK         0.5000 
     51 O           2.2620  -13.8073  -40.5981 O.2       4 UNK        -0.5000 
     52 CA          1.9536  -12.4790  -42.5887 C.3       4 UNK         0.1400 
     53 CB          2.2248  -12.6422  -44.0979 C.3       4 UNK        -0.1800 
     54 N           0.5099  -12.5490  -42.3627 N.am      4 UNK        -0.5000 
     55 C          -0.1621  -11.8098  -41.4688 C.2       3 UNK         0.5000 
     56 O           0.3765  -10.9785  -40.7356 O.2       3 UNK        -0.5000 
     57 CA         -1.6942  -11.9841  -41.3930 C.3       3 UNK         0.1400 
     58 CB         -2.4057  -10.6650  -41.7397 C.3       3 UNK        -0.1800 
     59 N          -2.2101  -13.0257  -42.2824 N.am      3 UNK        -0.5000 
     60 C          -2.3180  -14.3233  -41.9723 C.2       2 UNK         0.5000 
     61 O          -1.9930  -14.8004  -40.8857 O.2       2 UNK        -0.5000 
     62 CA         -2.8804  -15.2431  -43.0739 C.3       2 UNK         0.1400 
     63 CB         -4.4059  -15.3656  -42.9452 C.3       2 UNK        -0.1800 
     64 N          -2.5471  -14.8086  -44.4351 N.am      2 UNK        -0.5000 
     65 C          -1.3061  -14.7452  -44.9428 C.2       1 UNK         0.5000 
     66 O          -0.2971  -15.0188  -44.2969 O.2       1 UNK        -0.5000 
     67 C          -1.5019  -21.1940  -46.9670 C.2       11 UNK         0.5000 
     68 O          -2.2672  -21.8640  -47.6585 O.2       11 UNK        -0.5000 
     69 N          -1.8850  -20.1190  -46.2626 N.am      12 UNK        -0.5000 
     70 CA         -3.2518  -19.5998  -46.1958 C.3       12 UNK         0.1400 
     71 CB         -3.2678  -18.2811  -45.4077 C.3       12 UNK        -0.1800 
     72 C          -4.2441  -20.6090  -45.5908 C.2       12 UNK         0.5000 
     73 O          -5.3329  -20.7858  -46.1369 O.2       12 UNK        -0.5000 
     74 N          -3.8347  -21.2928  -44.5124 N.am      13 UNK        -0.5000 
     75 CA         -4.5930  -22.3697  -43.8680 C.3       13 UNK         0.1400 
     76 CB         -3.8923  -22.7772  -42.5634 C.3       13 UNK        -0.1800 
     77 C          -4.8026  -23.5945  -44.7818 C.2       13 UNK         0.5000 
     78 O          -5.8536  -24.2320  -44.7144 O.2       13 UNK        -0.5000 
     79 N          -3.8196  -23.8710  -45.6480 N.am      14 UNK        -0.5000 
     80 CA         -3.8676  -24.8943  -46.6938 C.3       14 UNK         0.1400 
     81 CB         -2.4302  -25.3573  -46.9878 C.3       14 UNK        -0.1800 
     82 C          -4.5649  -24.4157  -47.9872 C.2       14 UNK         0.5000 
     83 O          -4.5763  -25.1621  -48.9677 O.2       14 UNK        -0.5000 
     84 N          -5.0941  -23.1806  -47.9939 N.am      15 UNK        -0.5000 
     85 CA         -5.7527  -22.4889  -49.1104 C.3       15 UNK         0.1400 
     86 CB         -7.1002  -23.1627  -49.4419 C.3       15 UNK        -0.1800 
     87 C          -4.8498  -22.3262  -50.3526 C.2       15 UNK         0.5000 
     88 O          -5.3524  -22.2980  -51.4765 O.2       15 UNK        -0.5000 
     89 N          -3.5294  -22.2566  -50.1219 N.am      16 UNK        -0.5000 
     90 CA         -2.4421  -22.2454  -51.1034 C.3       16 UNK         0.1400 
     91 CB         -2.3769  -20.8834  -51.8163 C.3       16 UNK        -0.1800 
     92 C          -2.4942  -23.4425  -52.0765 C.2       16 UNK         0.5000 
     93 O          -2.1992  -23.2859  -53.2643 O.2       16 UNK        -0.5000 
     94 N          -2.9163  -24.6063  -51.5549 N.am      17 UNK        -0.5000 
     95 CA         -3.2316  -25.8703  -52.2331 C.3       17 UNK         0.1400 
     96 CB         -2.0253  -26.4270  -53.0140 C.3       17 UNK        -0.1800 
     97 C          -4.4933  -25.7789  -53.1133 C.2       17 UNK         0.5000 
     98 O          -5.4133  -26.5810  -52.9488 O.2       17 UNK        -0.5000 
     99 N          -4.5245  -24.7855  -54.0026 N.am      18 UNK        -0.5000 
    100 CA        -5.6558  -24.3841  -54.8199 C.3       18 UNK         0.1400 
    101 CB        -5.7517  -25.2657  -56.0784 C.3       18 UNK        -0.1800 
    102 C         -5.4202  -22.9124  -55.1660 C.2       18 UNK         0.5000 
    103 O         -4.5480  -22.6214  -55.9854 O.2       18 UNK        -0.5000 
    104 N         -6.1658  -22.0074  -54.5208 N.am      19 UNK        -0.5000 
    105 CA        -5.9882  -20.5505  -54.5814 C.3       19 UNK         0.1400 
    106 CB        -6.9885  -19.8876  -53.6221 C.3       19 UNK        -0.1800 
    107 C         -6.1007  -19.9281  -55.9885 C.2       19 UNK         0.5000 
    108 O         -5.5640  -18.8426  -56.2103 O.2       19 UNK        -0.5000 
    109 N         -6.7706  -20.6269  -56.9161 N.am      20 UNK        -0.5000 
    110 CA        -6.8504  -20.2718  -58.3344 C.3       20 UNK         0.1400 
    111 CB        -7.8934  -21.1688  -59.0181 C.3       20 UNK        -0.1800 
    112 C         -5.4919  -20.3721  -59.0591 C.2       20 UNK         0.5000 
    113 O         -5.2416  -19.5941  -59.9806 O.2       20 UNK        -0.5000 
    114 N         -4.6416  -21.3114  -58.6231 N.am      21 UNK        -0.5000 
    115 CA        -3.2579  -21.4568  -59.0733 C.3       21 UNK         0.1400 
    116 CB        -2.9041  -22.9510  -59.1521 C.3       21 UNK        -0.1800 
    117 C         -2.3036  -20.7203  -58.1179 C.2       21 UNK         0.5000 
    118 O         -1.4063  -20.0157  -58.5802 O.2       21 UNK        -0.5000 
    119 N         -2.5475  -20.8798  -56.8104 N.am      22 UNK        -0.5000 
    120 CA        -1.7945  -20.3295  -55.6798 C.3       22 UNK         0.1400 
    121 C         -0.3707  -20.9458  -55.5777 C.2       22 UNK         0.5000 
    122 N         -0.2150  -22.0501  -54.8604 N.am      22 UNK        -0.7600 
    123 O          0.5966  -20.4362  -56.1374 O.2       22 UNK        -0.5000 
    124 C124       -1.8114  -18.7749  -55.6480 C.3       23 UNK        -0.0398 
    125 S125       -1.7100  -18.1227  -53.9482 S.3       23 UNK        -0.2404 
    126 C126        0.0407  -17.6420  -53.8547 C.3       23 UNK        -0.0205 
    127 H127       -0.2949  -11.2823  -46.2335 H         1 UNK         0.0600 
    128 H128       -0.9656  -11.8782  -44.7071 H         1 UNK         0.0600 
    129 H129       -1.4680  -10.3184  -45.3417 H         1 UNK         0.0600 
    130 H130       -2.9869  -13.6900  -47.2924 H         1 UNK         0.3000 
    131 H131       -0.2094  -13.6963  -46.4395 H         1 UNK         0.0600 
    132 H132       -2.0040  -15.9752  -47.4014 H         1 UNK         0.0800 
    133 H133       -0.2906  -16.1115  -47.1116 H         1 UNK         0.0800 
    134 H134        1.4801  -15.4769  -48.5076 H         1 UNK         0.0800 
    135 H135        1.4348  -14.5435  -49.9761 H         1 UNK         0.0800 
    136 H136        0.0698  -15.6423  -51.9960 H         1 UNK         0.1150 
    137 H137        1.1467  -19.7515  -52.5478 H         1 UNK         0.1150 
    138 H138        1.9032  -17.8251  -48.7909 H         1 UNK         0.1150 
    139 H139        2.7520  -20.7029  -50.9312 H         1 UNK         0.0800 
    140 H140        3.0013  -19.9868  -49.3638 H         1 UNK         0.0800 
    141 H141        0.6050  -19.7074  -47.7116 H         1 UNK         0.0800 
    142 H142        1.9186  -20.7804  -47.3156 H         1 UNK         0.0800 
    143 H143        0.0389  -22.6593  -47.1799 H         1 UNK         0.0600 
    144 H144        1.1446  -21.0122  -45.1727 H         1 UNK         0.3000 
    145 H145       -0.4098  -22.5926  -42.3666 H         1 UNK         0.0600 
    146 H146        1.9676  -22.8226  -41.7174 H         1 UNK         0.0600 
    147 H147        1.5682  -23.9994  -42.9596 H         1 UNK         0.0600 
    148 H148        2.4828  -22.5567  -43.3810 H         1 UNK         0.0600 
    149 H149        1.4495  -20.4449  -42.5371 H         1 UNK         0.3000 
    150 H150       -0.9554  -17.8208  -43.0266 H         1 UNK         0.0600 
    151 H151        0.8840  -18.5384  -40.6861 H         1 UNK         0.0600 
    152 H152       -0.8361  -18.1849  -40.5714 H         1 UNK         0.0600 
    153 H153        0.2844  -16.9239  -41.0657 H         1 UNK         0.0600 
    154 H154        1.8705  -17.7136  -42.8702 H         1 UNK         0.3000 
    155 H155        2.5190  -18.2384  -46.3488 H         1 UNK         0.0600 
    156 H156        2.8060  -15.7780  -44.5531 H         1 UNK         0.0600 
    157 H157        1.9300  -15.8114  -46.0744 H         1 UNK         0.0600 
    158 H158        3.6672  -16.0779  -46.0609 H         1 UNK         0.0600 
    159 H159        4.1247  -17.7377  -43.9898 H         1 UNK         0.3000 
    160 H160        4.8206  -21.1666  -43.2835 H         1 UNK         0.0600 
    161 H161        6.5637  -18.9294  -44.4519 H         1 UNK         0.0600 
    162 H162        6.3730  -20.5383  -45.1384 H         1 UNK         0.0600 
    163 H163        7.1396  -20.3442  -43.5702 H         1 UNK         0.0600 
    164 H164        5.7276  -18.7020  -42.1289 H         1 UNK         0.3000 
    165 H165        3.1160  -18.3572  -39.7298 H         1 UNK         0.0600 
    166 H166        6.0353  -19.2148  -39.3715 H         1 UNK         0.0600 
    167 H167        5.0000  -18.4907  -38.1402 H         1 UNK         0.0600 
    168 H168        4.6375  -20.0924  -38.7613 H         1 UNK         0.0600 
    169 H169        5.4201  -16.8252  -39.9323 H         1 UNK         0.3000 
    170 H170        4.9912  -14.5581  -40.5324 H         1 UNK         0.0600 
    171 H171        5.8345  -15.4356  -43.3568 H         1 UNK         0.0600 
    172 H172        6.5418  -14.1040  -42.4423 H         1 UNK         0.0600 
    173 H173        6.7383  -15.7541  -41.8813 H         1 UNK         0.0600 
    174 H174        4.1619  -13.6574  -43.1021 H         1 UNK         0.3000 
    175 H175        2.3168  -11.4895  -42.3040 H         1 UNK         0.0600 
    176 H176        3.2760  -12.4854  -44.3407 H         1 UNK         0.0600 
    177 H177        1.6607  -11.9101  -44.6751 H         1 UNK         0.0600 
    178 H178        1.9416  -13.6307  -44.4547 H         1 UNK         0.0600 
    179 H179        0.0172  -13.2761  -42.8645 H         1 UNK         0.3000 
    180 H180       -1.9394  -12.2386  -40.3597 H         1 UNK         0.0600 
    181 H181       -3.4875  -10.7647  -41.6490 H         1 UNK         0.0600 
    182 H182       -2.1821  -10.3413  -42.7568 H         1 UNK         0.0600 
    183 H183       -2.0996   -9.8636  -41.0661 H         1 UNK         0.0600 
    184 H184       -2.5192  -12.7273  -43.1948 H         1 UNK         0.3000 
    185 H185       -2.4538  -16.2329  -42.9215 H         1 UNK         0.0600 
    186 H186       -4.8070  -16.0833  -43.6607 H         1 UNK         0.0600 
    187 H187       -4.6873  -15.7112  -41.9495 H         1 UNK         0.0600 
    188 H188       -4.9027  -14.4093  -43.1134 H         1 UNK         0.0600 
    189 H189       -3.3210  -14.5342  -45.0228 H         1 UNK         0.3000 
    190 H190       -1.1747  -19.5910  -45.7610 H         1 UNK         0.3000 
    191 H191       -3.5696  -19.3892  -47.2191 H         1 UNK         0.0600 
    192 H192       -4.2479  -17.8068  -45.4652 H         1 UNK         0.0600 
    193 H193       -2.5386  -17.5760  -45.8020 H         1 UNK         0.0600 
    194 H194       -3.0405  -18.4339  -44.3532 H         1 UNK         0.0600 
    195 H195       -2.9448  -21.0446  -44.0881 H         1 UNK         0.3000 
    196 H196       -5.5791  -21.9748  -43.6150 H         1 UNK         0.0600 
    197 H197       -2.8930  -23.1707  -42.7493 H         1 UNK         0.0600 
    198 H198       -3.7966  -21.9289  -41.8854 H         1 UNK         0.0600 
    199 H199       -4.4578  -23.5499  -42.0411 H         1 UNK         0.0600 
    200 H200       -2.9696  -23.3204  -45.6030 H         1 UNK         0.3000 
    201 H201       -4.4299  -25.7539  -46.3242 H         1 UNK         0.0600 
    202 H202       -2.4175  -26.1741  -47.7103 H         1 UNK         0.0600 
    203 H203       -1.8223  -24.5489  -47.3949 H         1 UNK         0.0600 
    204 H204       -1.9405  -25.7188  -46.0834 H         1 UNK         0.0600 
    205 H205       -5.0019  -22.6257  -47.1515 H         1 UNK         0.3000 
    206 H206       -5.9656  -21.4783  -48.7602 H         1 UNK         0.0600 
    207 H207       -7.7211  -23.2608  -48.5514 H         1 UNK         0.0600 
    208 H208       -7.6649  -22.5746  -50.1663 H         1 UNK         0.0600 
    209 H209       -6.9608  -24.1575  -49.8663 H         1 UNK         0.0600 
    210 H210       -3.2189  -22.2480  -49.1511 H         1 UNK         0.3000 
    211 H211       -1.5215  -22.3649  -50.5332 H         1 UNK         0.0600 
    212 H212       -1.4878  -20.8161  -52.4434 H         1 UNK         0.0600 
    213 H213       -2.3214  -20.0648  -51.0985 H         1 UNK         0.0600 
    214 H214       -3.2476  -20.7168  -52.4505 H         1 UNK         0.0600 
    215 H215       -3.2085  -24.5868  -50.5844 H         1 UNK         0.3000 
    216 H216       -3.4566  -26.5789  -51.4343 H         1 UNK         0.0600 
    217 H217       -2.2459  -27.4206  -53.4057 H         1 UNK         0.0600 
    218 H218       -1.1489  -26.5172  -52.3724 H         1 UNK         0.0600 
    219 H219       -1.7563  -25.7986  -53.8631 H         1 UNK         0.0600 
    220 H220       -3.7234  -24.1587  -54.0332 H         1 UNK         0.3000 
    221 H221       -6.5782  -24.4766  -54.2427 H         1 UNK         0.0600 
    222 H222       -5.9476  -26.3057  -55.8177 H         1 UNK         0.0600 
    223 H223       -4.8315  -25.2369  -56.6635 H         1 UNK         0.0600 
    224 H224       -6.5643  -24.9335  -56.7254 H         1 UNK         0.0600 
    225 H225       -6.8181  -22.3365  -53.8232 H         1 UNK         0.3000 
    226 H226       -4.9803  -20.3351  -54.2210 H         1 UNK         0.0600 
    227 H227       -6.8422  -20.2324  -52.5983 H         1 UNK         0.0600 
    228 H228       -6.8675  -18.8035  -53.6167 H         1 UNK         0.0600 
    229 H229       -8.0194  -20.1025  -53.9060 H         1 UNK         0.0600 
    230 H230       -7.1925  -21.5010  -56.6401 H         1 UNK         0.3000 
    231 H231       -7.1891  -19.2361  -58.4059 H         1 UNK         0.0600 
    232 H232       -7.6189  -22.2228  -58.9593 H         1 UNK         0.0600 
    233 H233       -7.9947  -20.9143  -60.0740 H         1 UNK         0.0600 
    234 H234       -8.8761  -21.0508  -58.5610 H         1 UNK         0.0600 
    235 H235       -4.9085  -21.8726  -57.8222 H         1 UNK         0.3000 
    236 H236       -3.1385  -21.0295  -60.0712 H         1 UNK         0.0600 
    237 H237       -3.5493  -23.4698  -59.8612 H         1 UNK         0.0600 
    238 H238       -1.8750  -23.0904  -59.4854 H         1 UNK         0.0600 
    239 H239       -3.0060  -23.4451  -58.1850 H         1 UNK         0.0600 
    240 H240       -3.2896  -21.5248  -56.5451 H         1 UNK         0.3000 
    241 H241       -2.3541  -20.6776  -54.8106 H         1 UNK         0.0600 
    242 H242       -0.9951  -22.4918  -54.3762 H         1 UNK         0.3800 
    243 H243        0.7012  -22.4624  -54.7926 H         1 UNK         0.3800 
    244 H244       -2.7541  -18.4099  -56.0580 H         1 UNK         0.0800 
    245 H245       -1.0328  -18.3441  -56.2796 H         1 UNK         0.0800 
    246 H246        0.6483  -18.3026  -54.4739 H         1 UNK         0.0800 
    247 H247        0.1619  -16.6397  -54.2680 H         1 UNK         0.0800 
@<TRIPOS>BOND
     1    1    2 1    
     2    1  127 1    
     3    1  128 1    
     4    1  129 1    
     5    2    3 2    
     6    2    4 am   BACKBONE|DICT|INTERRES
     7    4    5 1    
     8    4  130 1    
     9    5    6 1    
    10    5   65 1    
    11    5  131 1    
    12    6    7 1    
    13    6  132 1    
    14    6  133 1    
    15    7    8 1    
    16    8    9 1    
    17    8  134 1    
    18    8  135 1    
    19    9   10 ar   
    20    9   14 ar   
    21   10   11 ar   
    22   10  136 1    
    23   11   12 ar   
    24   11  126 1    
    25   12   13 ar   
    26   12  137 1    
    27   13   14 ar   
    28   13   15 1    
    29   14  138 1    
    30   15   16 1    
    31   15  139 1    
    32   15  140 1    
    33   16   17 1    
    34   17   18 1    
    35   17  141 1    
    36   17  142 1    
    37   18   19 1    
    38   18   67 1    
    39   18  143 1    
    40   19   20 am   BACKBONE|DICT|INTERRES
    41   19  144 1    
    42   20   21 2    
    43   20   22 1    
    44   22   23 1    
    45   22   24 1    
    46   22  145 1    
    47   23  146 1    
    48   23  147 1    
    49   23  148 1    
    50   24   25 am   BACKBONE|DICT|INTERRES
    51   24  149 1    
    52   25   26 2    
    53   25   27 1    
    54   27   28 1    
    55   27   29 1    
    56   27  150 1    
    57   28  151 1    
    58   28  152 1    
    59   28  153 1    
    60   29   30 am   BACKBONE|DICT|INTERRES
    61   29  154 1    
    62   30   31 2    
    63   30   32 1    
    64   32   33 1    
    65   32   34 1    
    66   32  155 1    
    67   33  156 1    
    68   33  157 1    
    69   33  158 1    
    70   34   35 am   BACKBONE|DICT|INTERRES
    71   34  159 1    
    72   35   36 2    
    73   35   37 1    
    74   37   38 1    
    75   37   39 1    
    76   37  160 1    
    77   38  161 1    
    78   38  162 1    
    79   38  163 1    
    80   39   40 am   BACKBONE|DICT|INTERRES
    81   39  164 1    
    82   40   41 2    
    83   40   42 1    
    84   42   43 1    
    85   42   44 1    
    86   42  165 1    
    87   43  166 1    
    88   43  167 1    
    89   43  168 1    
    90   44   45 am   BACKBONE|DICT|INTERRES
    91   44  169 1    
    92   45   46 2    
    93   45   47 1    
    94   47   48 1    
    95   47   49 1    
    96   47  170 1    
    97   48  171 1    
    98   48  172 1    
    99   48  173 1    
   100   49   50 am   BACKBONE|DICT|INTERRES
   101   49  174 1    
   102   50   51 2    
   103   50   52 1    
   104   52   53 1    
   105   52   54 1    
   106   52  175 1    
   107   53  176 1    
   108   53  177 1    
   109   53  178 1    
   110   54   55 am   BACKBONE|DICT|INTERRES
   111   54  179 1    
   112   55   56 2    
   113   55   57 1    
   114   57   58 1    
   115   57   59 1    
   116   57  180 1    
   117   58  181 1    
   118   58  182 1    
   119   58  183 1    
   120   59   60 am   BACKBONE|DICT|INTERRES
   121   59  184 1    
   122   60   61 2    
   123   60   62 1    
   124   62   63 1    
   125   62   64 1    
   126   62  185 1    
   127   63  186 1    
   128   63  187 1    
   129   63  188 1    
   130   64   65 am   BACKBONE|DICT|INTERRES
   131   64  189 1    
   132   65   66 2    
   133   67   68 2    
   134   67   69 am   BACKBONE|DICT|INTERRES
   135   69   70 1    
   136   69  190 1    
   137   70   71 1    
   138   70   72 1    
   139   70  191 1    
   140   71  192 1    
   141   71  193 1    
   142   71  194 1    
   143   72   73 2    
   144   72   74 am   BACKBONE|DICT|INTERRES
   145   74   75 1    
   146   74  195 1    
   147   75   76 1    
   148   75   77 1    
   149   75  196 1    
   150   76  197 1    
   151   76  198 1    
   152   76  199 1    
   153   77   78 2    
   154   77   79 am   BACKBONE|DICT|INTERRES
   155   79   80 1    
   156   79  200 1    
   157   80   81 1    
   158   80   82 1    
   159   80  201 1    
   160   81  202 1    
   161   81  203 1    
   162   81  204 1    
   163   82   83 2    
   164   82   84 am   BACKBONE|DICT|INTERRES
   165   84   85 1    
   166   84  205 1    
   167   85   86 1    
   168   85   87 1    
   169   85  206 1    
   170   86  207 1    
   171   86  208 1    
   172   86  209 1    
   173   87   88 2    
   174   87   89 am   BACKBONE|DICT|INTERRES
   175   89   90 1    
   176   89  210 1    
   177   90   91 1    
   178   90   92 1    
   179   90  211 1    
   180   91  212 1    
   181   91  213 1    
   182   91  214 1    
   183   92   93 2    
   184   92   94 am   BACKBONE|DICT|INTERRES
   185   94   95 1    
   186   94  215 1    
   187   95   96 1    
   188   95   97 1    
   189   95  216 1    
   190   96  217 1    
   191   96  218 1    
   192   96  219 1    
   193   97   98 2    
   194   97   99 am   BACKBONE|DICT|INTERRES
   195   99  100 1    
   196   99  220 1    
   197  100  101 1    
   198  100  102 1    
   199  100  221 1    
   200  101  222 1    
   201  101  223 1    
   202  101  224 1    
   203  102  103 2    
   204  102  104 am   BACKBONE|DICT|INTERRES
   205  104  105 1    
   206  104  225 1    
   207  105  106 1    
   208  105  107 1    
   209  105  226 1    
   210  106  227 1    
   211  106  228 1    
   212  106  229 1    
   213  107  108 2    
   214  107  109 am   BACKBONE|DICT|INTERRES
   215  109  110 1    
   216  109  230 1    
   217  110  111 1    
   218  110  112 1    
   219  110  231 1    
   220  111  232 1    
   221  111  233 1    
   222  111  234 1    
   223  112  113 2    
   224  112  114 am   BACKBONE|DICT|INTERRES
   225  114  115 1    
   226  114  235 1    
   227  115  116 1    
   228  115  117 1    
   229  115  236 1    
   230  116  237 1    
   231  116  238 1    
   232  116  239 1    
   233  117  118 2    
   234  117  119 am   BACKBONE|DICT|INTERRES
   235  119  120 1    
   236  119  240 1    
   237  120  121 1    
   238  120  124 1    
   239  120  241 1    
   240  121  122 am   BACKBONE|DICT|INTERRES
   241  121  123 2    
   242  122  242 1    
   243  122  243 1    
   244  124  125 1    
   245  124  244 1    
   246  124  245 1    
   247  125  126 1    
   248  126  246 1    
   249  126  247 1    
@<TRIPOS>SUBSTRUCTURE
     1 UNK         1 GROUP             0       ****    0 ROOT    
