@<TRIPOS>MOLECULE
3R540
247   249    1
SMALL
USER_CHARGES


@<TRIPOS>ATOM
      1 CA          2.3269   -9.2699  -49.9653 C.3       0 UNK        -0.1800 
      2 C           2.5960  -10.6018  -49.2810 C.2       0 UNK         0.5000 
      3 O           2.3796  -10.7284  -48.0767 O.2       0 UNK        -0.5000 
      4 N           3.0493  -11.6044  -50.0443 N.am      1 UNK        -0.5000 
      5 CA          3.3828  -12.9580  -49.5743 C.3       1 UNK         0.1400 
      6 C6          4.1472  -13.7695  -50.6501 C.3       23 UNK        -0.0398 
      7 S7          3.3086  -13.8376  -52.2751 S.3       23 UNK        -0.2404 
      8 C8          3.2521  -15.6269  -52.6035 C.3       23 UNK        -0.0205 
      9 C9          2.2643  -16.3429  -51.6968 C.ar      23 UNK        -0.0193 
     10 C10         0.8921  -16.2376  -51.9351 C.ar      23 UNK        -0.1150 
     11 C11        -0.0241  -16.8963  -51.1115 C.ar      23 UNK        -0.0193 
     12 C12         0.4401  -17.6675  -50.0416 C.ar      23 UNK        -0.1150 
     13 C13         1.8121  -17.7810  -49.7954 C.ar      23 UNK        -0.0193 
     14 C14         2.7183  -17.1175  -50.6266 C.ar      23 UNK        -0.1150 
     15 C15         2.3229  -18.5852  -48.6112 C.3       23 UNK        -0.0205 
     16 S16         3.1724  -20.1192  -49.0976 S.3       23 UNK        -0.2404 
     17 C17         1.8430  -21.1291  -49.8497 C.3       23 UNK        -0.0398 
     18 CA          0.9206  -21.8936  -48.8560 C.3       11 UNK         0.1400 
     19 N           1.6093  -22.2931  -47.6229 N.am      11 UNK        -0.5000 
     20 C           1.1016  -23.0324  -46.6294 C.2       10 UNK         0.5000 
     21 O          -0.0378  -23.4988  -46.6478 O.2       10 UNK        -0.5000 
     22 CA          1.9803  -23.2457  -45.3800 C.3       10 UNK         0.1400 
     23 CB          3.4569  -22.8296  -45.5711 C.3       10 UNK        -0.1800 
     24 N           1.4162  -22.5848  -44.1961 N.am      10 UNK        -0.5000 
     25 C           1.1352  -21.2768  -44.0586 C.2       9 UNK         0.5000 
     26 O           1.2570  -20.4543  -44.9678 O.2       9 UNK        -0.5000 
     27 CA          0.6396  -20.8010  -42.6786 C.3       9 UNK         0.1400 
     28 CB         -0.8944  -20.6242  -42.6904 C.3       9 UNK        -0.1800 
     29 N           1.0909  -21.7063  -41.6136 N.am      9 UNK        -0.5000 
     30 C           0.9312  -21.6351  -40.2826 C.2       8 UNK         0.5000 
     31 O           1.4011  -22.5132  -39.5589 O.2       8 UNK        -0.5000 
     32 CA          0.1768  -20.4451  -39.6344 C.3       8 UNK         0.1400 
     33 CB         -0.0820  -20.6540  -38.1261 C.3       8 UNK        -0.1800 
     34 N           0.8349  -19.1527  -39.8545 N.am      8 UNK        -0.5000 
     35 C           2.0721  -18.7907  -39.4788 C.2       7 UNK         0.5000 
     36 O           2.8661  -19.5381  -38.9066 O.2       7 UNK        -0.5000 
     37 CA          2.5028  -17.3402  -39.7735 C.3       7 UNK         0.1400 
     38 CB          3.5822  -17.3043  -40.8686 C.3       7 UNK        -0.1800 
     39 N           1.3823  -16.4811  -40.1677 N.am      7 UNK        -0.5000 
     40 C           0.5834  -15.8289  -39.3097 C.2       6 UNK         0.5000 
     41 O           0.7158  -15.8864  -38.0866 O.2       6 UNK        -0.5000 
     42 CA         -0.5479  -14.9585  -39.8973 C.3       6 UNK         0.1400 
     43 CB         -0.1670  -13.4716  -39.8302 C.3       6 UNK        -0.1800 
     44 N          -0.8877  -15.2937  -41.2806 N.am      6 UNK        -0.5000 
     45 C          -1.6033  -16.3659  -41.6518 C.2       5 UNK         0.5000 
     46 O          -2.0861  -17.1719  -40.8563 O.2       5 UNK        -0.5000 
     47 CA         -1.7594  -16.6106  -43.1690 C.3       5 UNK         0.1400 
     48 CB         -3.0113  -15.8944  -43.6971 C.3       5 UNK        -0.1800 
     49 N          -0.6003  -16.1828  -43.9583 N.am      5 UNK        -0.5000 
     50 C           0.6693  -16.5536  -43.7331 C.2       4 UNK         0.5000 
     51 O           0.9801  -17.3974  -42.8968 O.2       4 UNK        -0.5000 
     52 CA          1.7900  -15.8236  -44.4993 C.3       4 UNK         0.1400 
     53 CB          2.3350  -16.7320  -45.6070 C.3       4 UNK        -0.1800 
     54 N           1.3999  -14.5396  -45.0881 N.am      4 UNK        -0.5000 
     55 C           0.8420  -13.4987  -44.4476 C.2       3 UNK         0.5000 
     56 O           0.6688  -13.4671  -43.2280 O.2       3 UNK        -0.5000 
     57 CA          0.3352  -12.3221  -45.3101 C.3       3 UNK         0.1400 
     58 CB          1.2078  -11.0792  -45.0841 C.3       3 UNK        -0.1800 
     59 N           0.2709  -12.6166  -46.7469 N.am      3 UNK        -0.5000 
     60 C          -0.5160  -13.5456  -47.3168 C.2       2 UNK         0.5000 
     61 O          -1.3484  -14.1998  -46.6871 O.2       2 UNK        -0.5000 
     62 CA         -0.3103  -13.8398  -48.8199 C.3       2 UNK         0.1400 
     63 CB         -1.4684  -13.2663  -49.6493 C.3       2 UNK        -0.1800 
     64 N           0.9540  -13.3379  -49.3641 N.am      2 UNK        -0.5000 
     65 C           2.1795  -13.7344  -48.9889 C.2       1 UNK         0.5000 
     66 O           2.3779  -14.6207  -48.1575 O.2       1 UNK        -0.5000 
     67 C          -0.4059  -21.1395  -48.6217 C.2       11 UNK         0.5000 
     68 O          -1.2934  -21.2298  -49.4663 O.2       11 UNK        -0.5000 
     69 N          -0.5470  -20.4472  -47.4827 N.am      12 UNK        -0.5000 
     70 CA         -1.7839  -19.7628  -47.1084 C.3       12 UNK         0.1400 
     71 CB         -1.4453  -18.5880  -46.1820 C.3       12 UNK        -0.1800 
     72 C          -2.8318  -20.7053  -46.4772 C.2       12 UNK         0.5000 
     73 O          -3.9975  -20.3218  -46.3839 O.2       12 UNK        -0.5000 
     74 N          -2.4187  -21.9112  -46.0603 N.am      13 UNK        -0.5000 
     75 CA         -3.2976  -22.9483  -45.5155 C.3       13 UNK         0.1400 
     76 CB         -2.6309  -23.5933  -44.2912 C.3       13 UNK        -0.1800 
     77 C          -3.6379  -24.0299  -46.5537 C.2       13 UNK         0.5000 
     78 O          -4.6924  -24.6523  -46.4293 O.2       13 UNK        -0.5000 
     79 N          -2.7481  -24.2389  -47.5366 N.am      14 UNK        -0.5000 
     80 CA         -2.7827  -25.2618  -48.5876 C.3       14 UNK         0.1400 
     81 CB         -1.5606  -25.0507  -49.4985 C.3       14 UNK        -0.1800 
     82 C          -4.0974  -25.2731  -49.3946 C.2       14 UNK         0.5000 
     83 O          -4.2322  -24.5237  -50.3647 O.2       14 UNK        -0.5000 
     84 N          -5.0624  -26.0828  -48.9345 N.am      15 UNK        -0.5000 
     85 CA         -6.4568  -26.1511  -49.3899 C.3       15 UNK         0.1400 
     86 CB         -6.5406  -26.7584  -50.8052 C.3       15 UNK        -0.1800 
     87 C          -7.1762  -24.7891  -49.2740 C.2       15 UNK         0.5000 
     88 O          -7.8862  -24.3845  -50.1934 O.2       15 UNK        -0.5000 
     89 N          -6.9206  -24.0743  -48.1669 N.am      16 UNK        -0.5000 
     90 CA         -7.3291  -22.6873  -47.9026 C.3       16 UNK         0.1400 
     91 CB         -8.8616  -22.5737  -47.7631 C.3       16 UNK        -0.1800 
     92 C          -6.7331  -21.6958  -48.9278 C.2       16 UNK         0.5000 
     93 O          -7.3930  -20.7349  -49.3250 O.2       16 UNK        -0.5000 
     94 N          -5.4916  -21.9832  -49.3439 N.am      17 UNK        -0.5000 
     95 CA         -4.6672  -21.2910  -50.3379 C.3       17 UNK         0.1400 
     96 CB         -4.5304  -19.7915  -50.0140 C.3       17 UNK        -0.1800 
     97 C          -5.0870  -21.5471  -51.8007 C.2       17 UNK         0.5000 
     98 O          -4.4897  -20.9651  -52.7089 O.2       17 UNK        -0.5000 
     99 N          -6.0647  -22.4372  -52.0302 N.am      18 UNK        -0.5000 
    100 CA        -6.5168  -22.8257  -53.3664 C.3       18 UNK         0.1400 
    101 CB        -7.8695  -23.5454  -53.2777 C.3       18 UNK        -0.1800 
    102 C         -5.4924  -23.6999  -54.1100 C.2       18 UNK         0.5000 
    103 O         -5.3977  -23.5950  -55.3325 O.2       18 UNK        -0.5000 
    104 N         -4.7154  -24.5138  -53.3775 N.am      19 UNK        -0.5000 
    105 CA        -3.6552  -25.3510  -53.9513 C.3       19 UNK         0.1400 
    106 CB        -3.2979  -26.4840  -52.9799 C.3       19 UNK        -0.1800 
    107 C         -2.4061  -24.5316  -54.3260 C.2       19 UNK         0.5000 
    108 O         -1.6748  -24.9185  -55.2376 O.2       19 UNK        -0.5000 
    109 N         -2.2125  -23.3927  -53.6468 N.am      20 UNK        -0.5000 
    110 CA        -1.2166  -22.3739  -53.9830 C.3       20 UNK         0.1400 
    111 CB        -0.8773  -21.5833  -52.7106 C.3       20 UNK        -0.1800 
    112 C         -1.6850  -21.4352  -55.1177 C.2       20 UNK         0.5000 
    113 O         -0.8817  -20.6403  -55.6067 O.2       20 UNK        -0.5000 
    114 N         -2.9616  -21.5520  -55.5191 N.am      21 UNK        -0.5000 
    115 CA        -3.6601  -20.7856  -56.5558 C.3       21 UNK         0.1400 
    116 CB        -3.0550  -21.0641  -57.9477 C.3       21 UNK        -0.1800 
    117 C         -3.7733  -19.2819  -56.2295 C.2       21 UNK         0.5000 
    118 O         -3.7329  -18.4473  -57.1362 O.2       21 UNK        -0.5000 
    119 N         -3.9117  -18.9626  -54.9380 N.am      22 UNK        -0.5000 
    120 CA        -4.0658  -17.5951  -54.4250 C.3       22 UNK         0.1400 
    121 C         -5.4696  -17.0033  -54.7307 C.2       22 UNK         0.5000 
    122 N         -5.5627  -15.6987  -54.9500 N.am      22 UNK        -0.7600 
    123 O         -6.4797  -17.7040  -54.7328 O.2       22 UNK        -0.5000 
    124 C124       -3.7654  -17.5327  -52.9091 C.3       23 UNK        -0.0398 
    125 S125       -2.0592  -18.0642  -52.5344 S.3       23 UNK        -0.2404 
    126 C126       -1.5124  -16.7699  -51.3855 C.3       23 UNK        -0.0205 
    127 H127        2.5517   -9.3091  -51.0314 H         1 UNK         0.0600 
    128 H128        1.2791   -8.9934  -49.8479 H         1 UNK         0.0600 
    129 H129        2.9394   -8.4880  -49.5165 H         1 UNK         0.0600 
    130 H130        3.1882  -11.4504  -51.0335 H         1 UNK         0.3000 
    131 H131        4.0716  -12.8264  -48.7370 H         1 UNK         0.0600 
    132 H132        4.3633  -14.7757  -50.2886 H         1 UNK         0.0800 
    133 H133        5.1234  -13.3109  -50.8123 H         1 UNK         0.0800 
    134 H134        4.2530  -16.0493  -52.5018 H         1 UNK         0.0800 
    135 H135        2.9611  -15.7839  -53.6431 H         1 UNK         0.0800 
    136 H136        0.5377  -15.6411  -52.7641 H         1 UNK         0.1150 
    137 H137       -0.2680  -18.1752  -49.4026 H         1 UNK         0.1150 
    138 H138        3.7782  -17.2037  -50.4334 H         1 UNK         0.1150 
    139 H139        3.0358  -17.9698  -48.0619 H         1 UNK         0.0800 
    140 H140        1.5203  -18.8101  -47.9110 H         1 UNK         0.0800 
    141 H141        1.2750  -20.5184  -50.5548 H         1 UNK         0.0800 
    142 H142        2.3496  -21.8657  -50.4745 H         1 UNK         0.0800 
    143 H143        0.6305  -22.8245  -49.3475 H         1 UNK         0.0600 
    144 H144        2.5363  -21.9075  -47.5077 H         1 UNK         0.3000 
    145 H145        1.9628  -24.3178  -45.1791 H         1 UNK         0.0600 
    146 H146        4.0464  -23.0813  -44.6895 H         1 UNK         0.0600 
    147 H147        3.9084  -23.3523  -46.4154 H         1 UNK         0.0600 
    148 H148        3.5684  -21.7582  -45.7429 H         1 UNK         0.0600 
    149 H149        1.1736  -23.2080  -43.4404 H         1 UNK         0.3000 
    150 H150        1.1148  -19.8372  -42.5094 H         1 UNK         0.0600 
    151 H151       -1.3012  -20.5656  -43.6996 H         1 UNK         0.0600 
    152 H152       -1.1810  -19.6985  -42.1932 H         1 UNK         0.0600 
    153 H153       -1.4037  -21.4451  -42.1880 H         1 UNK         0.0600 
    154 H154        1.6749  -22.4580  -41.9473 H         1 UNK         0.3000 
    155 H155       -0.8087  -20.3878  -40.0900 H         1 UNK         0.0600 
    156 H156       -0.6539  -21.5662  -37.9521 H         1 UNK         0.0600 
    157 H157       -0.6571  -19.8276  -37.7083 H         1 UNK         0.0600 
    158 H158        0.8443  -20.7367  -37.5568 H         1 UNK         0.0600 
    159 H159        0.2816  -18.4586  -40.3373 H         1 UNK         0.3000 
    160 H160        2.9484  -16.9416  -38.8596 H         1 UNK         0.0600 
    161 H161        3.2550  -17.7992  -41.7826 H         1 UNK         0.0600 
    162 H162        4.4871  -17.8133  -40.5348 H         1 UNK         0.0600 
    163 H163        3.8602  -16.2805  -41.1194 H         1 UNK         0.0600 
    164 H164        1.1781  -16.4486  -41.1603 H         1 UNK         0.3000 
    165 H165       -1.4336  -15.1097  -39.2766 H         1 UNK         0.0600 
    166 H166        0.0455  -13.1672  -38.8046 H         1 UNK         0.0600 
    167 H167        0.7205  -13.2572  -40.4270 H         1 UNK         0.0600 
    168 H168       -0.9768  -12.8395  -40.1952 H         1 UNK         0.0600 
    169 H169       -0.4945  -14.6929  -41.9980 H         1 UNK         0.3000 
    170 H170       -1.8855  -17.6834  -43.3198 H         1 UNK         0.0600 
    171 H171       -3.9038  -16.2216  -43.1622 H         1 UNK         0.0600 
    172 H172       -2.9337  -14.8128  -43.5786 H         1 UNK         0.0600 
    173 H173       -3.1727  -16.1007  -44.7550 H         1 UNK         0.0600 
    174 H174       -0.7743  -15.4904  -44.6746 H         1 UNK         0.3000 
    175 H175        2.5919  -15.6279  -43.7852 H         1 UNK         0.0600 
    176 H176        1.5883  -16.8849  -46.3864 H         1 UNK         0.0600 
    177 H177        3.2226  -16.3014  -46.0704 H         1 UNK         0.0600 
    178 H178        2.6132  -17.7132  -45.2184 H         1 UNK         0.0600 
    179 H179        1.5243  -14.4647  -46.0906 H         1 UNK         0.3000 
    180 H180       -0.6781  -12.0923  -44.9748 H         1 UNK         0.0600 
    181 H181        2.2411  -11.2554  -45.3854 H         1 UNK         0.0600 
    182 H182        0.8339  -10.2248  -45.6487 H         1 UNK         0.0600 
    183 H183        1.2176  -10.7932  -44.0315 H         1 UNK         0.0600 
    184 H184        0.9336  -12.1172  -47.3299 H         1 UNK         0.3000 
    185 H185       -0.3104  -14.9252  -48.9345 H         1 UNK         0.0600 
    186 H186       -1.3661  -13.5266  -50.7028 H         1 UNK         0.0600 
    187 H187       -2.4263  -13.6621  -49.3093 H         1 UNK         0.0600 
    188 H188       -1.5158  -12.1792  -49.5743 H         1 UNK         0.0600 
    189 H189        0.8896  -12.5943  -50.0435 H         1 UNK         0.3000 
    190 H190        0.2075  -20.4374  -46.8036 H         1 UNK         0.3000 
    191 H191       -2.2378  -19.3396  -48.0066 H         1 UNK         0.0600 
    192 H192       -2.3502  -18.0672  -45.8696 H         1 UNK         0.0600 
    193 H193       -0.8120  -17.8587  -46.6874 H         1 UNK         0.0600 
    194 H194       -0.9233  -18.9139  -45.2840 H         1 UNK         0.0600 
    195 H195       -1.4503  -22.1769  -46.2006 H         1 UNK         0.3000 
    196 H196       -4.2425  -22.5116  -45.1853 H         1 UNK         0.0600 
    197 H197       -3.2165  -24.4367  -43.9225 H         1 UNK         0.0600 
    198 H198       -2.5544  -22.8821  -43.4725 H         1 UNK         0.0600 
    199 H199       -1.6300  -23.9625  -44.5161 H         1 UNK         0.0600 
    200 H200       -1.8848  -23.7121  -47.4858 H         1 UNK         0.3000 
    201 H201       -2.6722  -26.2331  -48.1022 H         1 UNK         0.0600 
    202 H202       -0.6333  -25.0783  -48.9263 H         1 UNK         0.0600 
    203 H203       -1.6034  -24.0927  -50.0191 H         1 UNK         0.0600 
    204 H204       -1.4917  -25.8355  -50.2510 H         1 UNK         0.0600 
    205 H205       -4.8633  -26.6110  -48.0958 H         1 UNK         0.3000 
    206 H206       -6.9733  -26.8282  -48.7082 H         1 UNK         0.0600 
    207 H207       -6.0165  -27.7125  -50.8577 H         1 UNK         0.0600 
    208 H208       -7.5772  -26.9409  -51.0903 H         1 UNK         0.0600 
    209 H209       -6.1104  -26.0971  -51.5554 H         1 UNK         0.0600 
    210 H210       -6.2796  -24.4729  -47.4846 H         1 UNK         0.3000 
    211 H211       -6.8917  -22.4214  -46.9391 H         1 UNK         0.0600 
    212 H212       -9.3719  -22.7529  -48.7098 H         1 UNK         0.0600 
    213 H213       -9.1485  -21.5781  -47.4228 H         1 UNK         0.0600 
    214 H214       -9.2449  -23.2877  -47.0344 H         1 UNK         0.0600 
    215 H215       -5.0841  -22.8442  -49.0073 H         1 UNK         0.3000 
    216 H216       -3.6793  -21.7392  -50.2382 H         1 UNK         0.0600 
    217 H217       -5.3923  -19.2213  -50.3612 H         1 UNK         0.0600 
    218 H218       -3.6408  -19.3809  -50.4881 H         1 UNK         0.0600 
    219 H219       -4.4295  -19.6186  -48.9443 H         1 UNK         0.0600 
    220 H220       -6.5072  -22.8986  -51.2456 H         1 UNK         0.3000 
    221 H221       -6.6617  -21.9134  -53.9495 H         1 UNK         0.0600 
    222 H222       -7.7772  -24.5208  -52.7998 H         1 UNK         0.0600 
    223 H223       -8.5959  -22.9599  -52.7136 H         1 UNK         0.0600 
    224 H224       -8.2853  -23.7110  -54.2722 H         1 UNK         0.0600 
    225 H225       -4.8048  -24.5158  -52.3662 H         1 UNK         0.3000 
    226 H226       -4.0342  -25.8087  -54.8677 H         1 UNK         0.0600 
    227 H227       -4.1693  -27.0935  -52.7425 H         1 UNK         0.0600 
    228 H228       -2.5476  -27.1461  -53.4136 H         1 UNK         0.0600 
    229 H229       -2.8909  -26.0979  -52.0483 H         1 UNK         0.0600 
    230 H230       -2.8658  -23.1559  -52.9143 H         1 UNK         0.3000 
    231 H231       -0.3045  -22.8661  -54.3265 H         1 UNK         0.0600 
    232 H232       -1.7583  -21.0968  -52.2912 H         1 UNK         0.0600 
    233 H233       -0.4605  -22.2356  -51.9434 H         1 UNK         0.0600 
    234 H234       -0.1396  -20.8054  -52.9117 H         1 UNK         0.0600 
    235 H235       -3.5327  -22.2385  -55.0466 H         1 UNK         0.3000 
    236 H236       -4.6836  -21.1623  -56.5665 H         1 UNK         0.0600 
    237 H237       -3.0027  -22.1345  -58.1469 H         1 UNK         0.0600 
    238 H238       -3.6641  -20.6186  -58.7350 H         1 UNK         0.0600 
    239 H239       -2.0490  -20.6547  -58.0426 H         1 UNK         0.0600 
    240 H240       -3.9620  -19.7036  -54.2462 H         1 UNK         0.3000 
    241 H241       -3.3286  -16.9713  -54.9351 H         1 UNK         0.0600 
    242 H242       -4.7505  -15.1009  -54.9514 H         1 UNK         0.3800 
    243 H243       -6.4692  -15.2981  -55.1365 H         1 UNK         0.3800 
    244 H244       -4.4623  -18.1670  -52.3620 H         1 UNK         0.0800 
    245 H245       -3.9161  -16.5194  -52.5333 H         1 UNK         0.0800 
    246 H246       -1.7276  -15.7876  -51.8082 H         1 UNK         0.0800 
    247 H247       -2.0791  -16.8431  -50.4559 H         1 UNK         0.0800 
@<TRIPOS>BOND
     1    1    2 1    
     2    1  127 1    
     3    1  128 1    
     4    1  129 1    
     5    2    3 2    
     6    2    4 am   BACKBONE|DICT|INTERRES
     7    4    5 1    
     8    4  130 1    
     9    5    6 1    
    10    5   65 1    
    11    5  131 1    
    12    6    7 1    
    13    6  132 1    
    14    6  133 1    
    15    7    8 1    
    16    8    9 1    
    17    8  134 1    
    18    8  135 1    
    19    9   10 ar   
    20    9   14 ar   
    21   10   11 ar   
    22   10  136 1    
    23   11   12 ar   
    24   11  126 1    
    25   12   13 ar   
    26   12  137 1    
    27   13   14 ar   
    28   13   15 1    
    29   14  138 1    
    30   15   16 1    
    31   15  139 1    
    32   15  140 1    
    33   16   17 1    
    34   17   18 1    
    35   17  141 1    
    36   17  142 1    
    37   18   19 1    
    38   18   67 1    
    39   18  143 1    
    40   19   20 am   BACKBONE|DICT|INTERRES
    41   19  144 1    
    42   20   21 2    
    43   20   22 1    
    44   22   23 1    
    45   22   24 1    
    46   22  145 1    
    47   23  146 1    
    48   23  147 1    
    49   23  148 1    
    50   24   25 am   BACKBONE|DICT|INTERRES
    51   24  149 1    
    52   25   26 2    
    53   25   27 1    
    54   27   28 1    
    55   27   29 1    
    56   27  150 1    
    57   28  151 1    
    58   28  152 1    
    59   28  153 1    
    60   29   30 am   BACKBONE|DICT|INTERRES
    61   29  154 1    
    62   30   31 2    
    63   30   32 1    
    64   32   33 1    
    65   32   34 1    
    66   32  155 1    
    67   33  156 1    
    68   33  157 1    
    69   33  158 1    
    70   34   35 am   BACKBONE|DICT|INTERRES
    71   34  159 1    
    72   35   36 2    
    73   35   37 1    
    74   37   38 1    
    75   37   39 1    
    76   37  160 1    
    77   38  161 1    
    78   38  162 1    
    79   38  163 1    
    80   39   40 am   BACKBONE|DICT|INTERRES
    81   39  164 1    
    82   40   41 2    
    83   40   42 1    
    84   42   43 1    
    85   42   44 1    
    86   42  165 1    
    87   43  166 1    
    88   43  167 1    
    89   43  168 1    
    90   44   45 am   BACKBONE|DICT|INTERRES
    91   44  169 1    
    92   45   46 2    
    93   45   47 1    
    94   47   48 1    
    95   47   49 1    
    96   47  170 1    
    97   48  171 1    
    98   48  172 1    
    99   48  173 1    
   100   49   50 am   BACKBONE|DICT|INTERRES
   101   49  174 1    
   102   50   51 2    
   103   50   52 1    
   104   52   53 1    
   105   52   54 1    
   106   52  175 1    
   107   53  176 1    
   108   53  177 1    
   109   53  178 1    
   110   54   55 am   BACKBONE|DICT|INTERRES
   111   54  179 1    
   112   55   56 2    
   113   55   57 1    
   114   57   58 1    
   115   57   59 1    
   116   57  180 1    
   117   58  181 1    
   118   58  182 1    
   119   58  183 1    
   120   59   60 am   BACKBONE|DICT|INTERRES
   121   59  184 1    
   122   60   61 2    
   123   60   62 1    
   124   62   63 1    
   125   62   64 1    
   126   62  185 1    
   127   63  186 1    
   128   63  187 1    
   129   63  188 1    
   130   64   65 am   BACKBONE|DICT|INTERRES
   131   64  189 1    
   132   65   66 2    
   133   67   68 2    
   134   67   69 am   BACKBONE|DICT|INTERRES
   135   69   70 1    
   136   69  190 1    
   137   70   71 1    
   138   70   72 1    
   139   70  191 1    
   140   71  192 1    
   141   71  193 1    
   142   71  194 1    
   143   72   73 2    
   144   72   74 am   BACKBONE|DICT|INTERRES
   145   74   75 1    
   146   74  195 1    
   147   75   76 1    
   148   75   77 1    
   149   75  196 1    
   150   76  197 1    
   151   76  198 1    
   152   76  199 1    
   153   77   78 2    
   154   77   79 am   BACKBONE|DICT|INTERRES
   155   79   80 1    
   156   79  200 1    
   157   80   81 1    
   158   80   82 1    
   159   80  201 1    
   160   81  202 1    
   161   81  203 1    
   162   81  204 1    
   163   82   83 2    
   164   82   84 am   BACKBONE|DICT|INTERRES
   165   84   85 1    
   166   84  205 1    
   167   85   86 1    
   168   85   87 1    
   169   85  206 1    
   170   86  207 1    
   171   86  208 1    
   172   86  209 1    
   173   87   88 2    
   174   87   89 am   BACKBONE|DICT|INTERRES
   175   89   90 1    
   176   89  210 1    
   177   90   91 1    
   178   90   92 1    
   179   90  211 1    
   180   91  212 1    
   181   91  213 1    
   182   91  214 1    
   183   92   93 2    
   184   92   94 am   BACKBONE|DICT|INTERRES
   185   94   95 1    
   186   94  215 1    
   187   95   96 1    
   188   95   97 1    
   189   95  216 1    
   190   96  217 1    
   191   96  218 1    
   192   96  219 1    
   193   97   98 2    
   194   97   99 am   BACKBONE|DICT|INTERRES
   195   99  100 1    
   196   99  220 1    
   197  100  101 1    
   198  100  102 1    
   199  100  221 1    
   200  101  222 1    
   201  101  223 1    
   202  101  224 1    
   203  102  103 2    
   204  102  104 am   BACKBONE|DICT|INTERRES
   205  104  105 1    
   206  104  225 1    
   207  105  106 1    
   208  105  107 1    
   209  105  226 1    
   210  106  227 1    
   211  106  228 1    
   212  106  229 1    
   213  107  108 2    
   214  107  109 am   BACKBONE|DICT|INTERRES
   215  109  110 1    
   216  109  230 1    
   217  110  111 1    
   218  110  112 1    
   219  110  231 1    
   220  111  232 1    
   221  111  233 1    
   222  111  234 1    
   223  112  113 2    
   224  112  114 am   BACKBONE|DICT|INTERRES
   225  114  115 1    
   226  114  235 1    
   227  115  116 1    
   228  115  117 1    
   229  115  236 1    
   230  116  237 1    
   231  116  238 1    
   232  116  239 1    
   233  117  118 2    
   234  117  119 am   BACKBONE|DICT|INTERRES
   235  119  120 1    
   236  119  240 1    
   237  120  121 1    
   238  120  124 1    
   239  120  241 1    
   240  121  122 am   BACKBONE|DICT|INTERRES
   241  121  123 2    
   242  122  242 1    
   243  122  243 1    
   244  124  125 1    
   245  124  244 1    
   246  124  245 1    
   247  125  126 1    
   248  126  246 1    
   249  126  247 1    
@<TRIPOS>SUBSTRUCTURE
     1 UNK         1 GROUP             0       ****    0 ROOT    
