@<TRIPOS>MOLECULE
3R540
247   249    1
SMALL
USER_CHARGES


@<TRIPOS>ATOM
      1 CA          6.5271   -9.6285  -47.6465 C.3       0 UNK        -0.1800 
      2 C           5.3970  -10.6481  -47.6695 C.2       0 UNK         0.5000 
      3 O           4.8531  -10.9828  -46.6172 O.2       0 UNK        -0.5000 
      4 N           5.0488  -11.1477  -48.8622 N.am      1 UNK        -0.5000 
      5 CA          3.9444  -12.0826  -49.0899 C.3       1 UNK         0.1400 
      6 C6          4.0697  -12.7529  -50.4836 C.3       23 UNK        -0.0398 
      7 S7          2.7298  -13.9050  -50.9515 S.3       23 UNK        -0.2404 
      8 C8          2.8564  -15.1920  -49.6657 C.3       23 UNK        -0.0205 
      9 C9          1.8302  -16.3032  -49.8472 C.ar      23 UNK        -0.0193 
     10 C10         0.4781  -16.0015  -50.0475 C.ar      23 UNK        -0.1150 
     11 C11        -0.4673  -17.0218  -50.1787 C.ar      23 UNK        -0.0193 
     12 C12        -0.0566  -18.3534  -50.0931 C.ar      23 UNK        -0.1150 
     13 C13         1.2862  -18.6706  -49.8768 C.ar      23 UNK        -0.0193 
     14 C14         2.2265  -17.6420  -49.7646 C.ar      23 UNK        -0.1150 
     15 C15         1.7137  -20.1223  -49.7376 C.3       23 UNK        -0.0205 
     16 S16         1.9601  -20.5532  -47.9893 S.3       23 UNK        -0.2404 
     17 C17         2.0965  -22.3753  -48.0726 C.3       23 UNK        -0.0398 
     18 CA          1.0388  -23.1226  -47.2213 C.3       11 UNK         0.1400 
     19 N           1.0141  -22.6450  -45.8358 N.am      11 UNK        -0.5000 
     20 C           0.3946  -23.2461  -44.8127 C.2       10 UNK         0.5000 
     21 O          -0.2880  -24.2599  -44.9463 O.2       10 UNK        -0.5000 
     22 CA          0.5270  -22.5974  -43.4197 C.3       10 UNK         0.1400 
     23 CB          0.6150  -23.6392  -42.2865 C.3       10 UNK        -0.1800 
     24 N           1.6122  -21.6164  -43.3280 N.am      10 UNK        -0.5000 
     25 C           2.9354  -21.8188  -43.4069 C.2       9 UNK         0.5000 
     26 O           3.4623  -22.9229  -43.5430 O.2       9 UNK        -0.5000 
     27 CA          3.8198  -20.5586  -43.3477 C.3       9 UNK         0.1400 
     28 CB          4.1552  -20.0812  -44.7691 C.3       9 UNK        -0.1800 
     29 N           3.1893  -19.4595  -42.6133 N.am      9 UNK        -0.5000 
     30 C           3.0319  -19.4280  -41.2828 C.2       8 UNK         0.5000 
     31 O           3.4772  -20.2867  -40.5202 O.2       8 UNK        -0.5000 
     32 CA          2.2151  -18.2549  -40.7109 C.3       8 UNK         0.1400 
     33 CB          3.0757  -16.9860  -40.6164 C.3       8 UNK        -0.1800 
     34 N           1.0030  -17.9751  -41.4848 N.am      8 UNK        -0.5000 
     35 C          -0.0462  -18.8055  -41.5826 C.2       7 UNK         0.5000 
     36 O          -0.1118  -19.8957  -41.0154 O.2       7 UNK        -0.5000 
     37 CA         -1.2127  -18.3575  -42.4806 C.3       7 UNK         0.1400 
     38 CB         -2.1370  -17.3864  -41.7309 C.3       7 UNK        -0.1800 
     39 N          -0.7574  -17.7350  -43.7208 N.am      7 UNK        -0.5000 
     40 C          -0.1489  -18.3822  -44.7243 C.2       6 UNK         0.5000 
     41 O           0.0480  -19.5969  -44.7430 O.2       6 UNK        -0.5000 
     42 CA          0.3412  -17.5141  -45.8949 C.3       6 UNK         0.1400 
     43 CB         -0.8361  -17.1754  -46.8181 C.3       6 UNK        -0.1800 
     44 N           0.9797  -16.2753  -45.4480 N.am      6 UNK        -0.5000 
     45 C           2.0707  -16.2053  -44.6716 C.2       5 UNK         0.5000 
     46 O           2.6933  -17.1866  -44.2689 O.2       5 UNK        -0.5000 
     47 CA          2.5029  -14.8007  -44.2187 C.3       5 UNK         0.1400 
     48 CB          3.3652  -14.1167  -45.2906 C.3       5 UNK        -0.1800 
     49 N           1.3512  -13.9598  -43.8897 N.am      5 UNK        -0.5000 
     50 C           0.5532  -14.1566  -42.8298 C.2       4 UNK         0.5000 
     51 O           0.7326  -15.0427  -41.9945 O.2       4 UNK        -0.5000 
     52 CA         -0.6790  -13.2404  -42.7139 C.3       4 UNK         0.1400 
     53 CB         -0.2927  -11.8823  -42.1093 C.3       4 UNK        -0.1800 
     54 N          -1.3380  -13.0294  -44.0038 N.am      4 UNK        -0.5000 
     55 C          -1.9580  -13.9915  -44.7025 C.2       3 UNK         0.5000 
     56 O          -2.0974  -15.1440  -44.2947 O.2       3 UNK        -0.5000 
     57 CA         -2.4625  -13.6162  -46.1115 C.3       3 UNK         0.1400 
     58 CB         -3.9162  -13.1258  -46.0504 C.3       3 UNK        -0.1800 
     59 N          -1.6362  -12.6049  -46.7816 N.am      3 UNK        -0.5000 
     60 C          -0.3423  -12.7664  -47.0864 C.2       2 UNK         0.5000 
     61 O           0.2886  -13.8001  -46.8438 O.2       2 UNK        -0.5000 
     62 CA          0.3801  -11.5629  -47.7113 C.3       2 UNK         0.1400 
     63 CB          0.4789  -10.3994  -46.7040 C.3       2 UNK        -0.1800 
     64 N           1.7132  -12.0071  -48.0950 N.am      2 UNK        -0.5000 
     65 C           2.5903  -11.3694  -48.8742 C.2       1 UNK         0.5000 
     66 O           2.3760  -10.2793  -49.4106 O.2       1 UNK        -0.5000 
     67 C          -0.3604  -23.1099  -47.8706 C.2       11 UNK         0.5000 
     68 O          -0.7374  -24.0776  -48.5335 O.2       11 UNK        -0.5000 
     69 N          -1.1275  -22.0403  -47.6170 N.am      12 UNK        -0.5000 
     70 CA         -2.5121  -21.8958  -48.0649 C.3       12 UNK         0.1400 
     71 CB         -2.9663  -20.4445  -47.8536 C.3       12 UNK        -0.1800 
     72 C          -3.4658  -22.8776  -47.3613 C.2       12 UNK         0.5000 
     73 O          -4.3799  -23.3987  -48.0020 O.2       12 UNK        -0.5000 
     74 N          -3.2133  -23.1290  -46.0692 N.am      13 UNK        -0.5000 
     75 CA         -3.9660  -24.0660  -45.2358 C.3       13 UNK         0.1400 
     76 CB         -3.6489  -23.8037  -43.7553 C.3       13 UNK        -0.1800 
     77 C          -3.6880  -25.5329  -45.6073 C.2       13 UNK         0.5000 
     78 O          -4.6225  -26.3326  -45.6413 O.2       13 UNK        -0.5000 
     79 N          -2.4206  -25.8505  -45.9079 N.am      14 UNK        -0.5000 
     80 CA         -1.9706  -27.1620  -46.3765 C.3       14 UNK         0.1400 
     81 CB         -0.4350  -27.2050  -46.3873 C.3       14 UNK        -0.1800 
     82 C          -2.5343  -27.5170  -47.7633 C.2       14 UNK         0.5000 
     83 O          -2.9238  -28.6646  -47.9835 O.2       14 UNK        -0.5000 
     84 N          -2.5957  -26.5217  -48.6603 N.am      15 UNK        -0.5000 
     85 CA         -3.2510  -26.6300  -49.9648 C.3       15 UNK         0.1400 
     86 CB         -2.8754  -25.4118  -50.8197 C.3       15 UNK        -0.1800 
     87 C          -4.7827  -26.7497  -49.8471 C.2       15 UNK         0.5000 
     88 O          -5.3985  -27.4546  -50.6466 O.2       15 UNK        -0.5000 
     89 N          -5.3553  -26.0524  -48.8531 N.am      16 UNK        -0.5000 
     90 CA         -6.7766  -25.9931  -48.4911 C.3       16 UNK         0.1400 
     91 CB         -7.2826  -27.3739  -48.0247 C.3       16 UNK        -0.1800 
     92 C          -7.6644  -25.3663  -49.5877 C.2       16 UNK         0.5000 
     93 O          -8.8608  -25.6540  -49.6553 O.2       16 UNK        -0.5000 
     94 N          -7.0606  -24.5152  -50.4251 N.am      17 UNK        -0.5000 
     95 CA         -7.6845  -23.8761  -51.5822 C.3       17 UNK         0.1400 
     96 CB         -7.6975  -24.8541  -52.7749 C.3       17 UNK        -0.1800 
     97 C          -6.9805  -22.5480  -51.9102 C.2       17 UNK         0.5000 
     98 O          -6.8237  -22.2128  -53.0850 O.2       17 UNK        -0.5000 
     99 N          -6.5257  -21.8295  -50.8691 N.am      18 UNK        -0.5000 
    100 CA        -5.8400  -20.5282  -50.9355 C.3       18 UNK         0.1400 
    101 CB        -6.8302  -19.4312  -51.3755 C.3       18 UNK        -0.1800 
    102 C         -4.5622  -20.5644  -51.8046 C.2       18 UNK         0.5000 
    103 O         -4.3027  -19.6423  -52.5816 O.2       18 UNK        -0.5000 
    104 N         -3.8321  -21.6873  -51.7115 N.am      19 UNK        -0.5000 
    105 CA        -2.6513  -22.0531  -52.5080 C.3       19 UNK         0.1400 
    106 CB        -1.4610  -21.1416  -52.1521 C.3       19 UNK        -0.1800 
    107 C         -2.9056  -22.1311  -54.0319 C.2       19 UNK         0.5000 
    108 O         -1.9471  -22.1361  -54.8051 O.2       19 UNK        -0.5000 
    109 N         -4.1868  -22.1825  -54.4345 N.am      20 UNK        -0.5000 
    110 CA        -4.7008  -22.1228  -55.8056 C.3       20 UNK         0.1400 
    111 CB        -4.3230  -23.3995  -56.5853 C.3       20 UNK        -0.1800 
    112 C         -4.3121  -20.8227  -56.5457 C.2       20 UNK         0.5000 
    113 O         -4.1929  -20.8338  -57.7728 O.2       20 UNK        -0.5000 
    114 N         -4.1107  -19.7296  -55.7945 N.am      21 UNK        -0.5000 
    115 CA        -3.6110  -18.4584  -56.3186 C.3       21 UNK         0.1400 
    116 CB        -2.0739  -18.4452  -56.2507 C.3       21 UNK        -0.1800 
    117 C         -4.1938  -17.2392  -55.5903 C.2       21 UNK         0.5000 
    118 O         -4.4505  -16.2251  -56.2412 O.2       21 UNK        -0.5000 
    119 N         -4.3847  -17.3369  -54.2689 N.am      22 UNK        -0.5000 
    120 CA        -4.8135  -16.2167  -53.4127 C.3       22 UNK         0.1400 
    121 C         -6.3576  -16.0544  -53.2979 C.2       22 UNK         0.5000 
    122 N         -7.1663  -16.9025  -53.9214 N.am      22 UNK        -0.7600 
    123 O         -6.8332  -15.1321  -52.6413 O.2       22 UNK        -0.5000 
    124 C124       -4.1446  -16.2763  -52.0150 C.3       23 UNK        -0.0398 
    125 S125       -2.3242  -16.3581  -52.1046 S.3       23 UNK        -0.2404 
    126 C126       -1.9378  -16.6883  -50.3623 C.3       23 UNK        -0.0205 
    127 H127        6.1716   -8.6844  -47.2337 H         1 UNK         0.0600 
    128 H128        7.3447   -9.9887  -47.0220 H         1 UNK         0.0600 
    129 H129        6.9210   -9.4363  -48.6449 H         1 UNK         0.0600 
    130 H130        5.5148  -10.8079  -49.6913 H         1 UNK         0.3000 
    131 H131        4.0405  -12.8677  -48.3374 H         1 UNK         0.0600 
    132 H132        5.0141  -13.2955  -50.5451 H         1 UNK         0.0800 
    133 H133        4.1174  -11.9859  -51.2585 H         1 UNK         0.0800 
    134 H134        2.6985  -14.7536  -48.6812 H         1 UNK         0.0800 
    135 H135        3.8693  -15.5977  -49.6727 H         1 UNK         0.0800 
    136 H136        0.1574  -14.9702  -50.0909 H         1 UNK         0.1150 
    137 H137       -0.7895  -19.1412  -50.1715 H         1 UNK         0.1150 
    138 H138        3.2640  -17.8886  -49.5875 H         1 UNK         0.1150 
    139 H139        0.9627  -20.7816  -50.1742 H         1 UNK         0.0800 
    140 H140        2.6388  -20.2929  -50.2900 H         1 UNK         0.0800 
    141 H141        3.0920  -22.6394  -47.7133 H         1 UNK         0.0800 
    142 H142        2.0657  -22.7128  -49.1101 H         1 UNK         0.0800 
    143 H143        1.3448  -24.1704  -47.1839 H         1 UNK         0.0600 
    144 H144        1.5039  -21.7807  -45.6535 H         1 UNK         0.3000 
    145 H145       -0.3931  -22.0312  -43.2691 H         1 UNK         0.0600 
    146 H146        0.7009  -23.1545  -41.3138 H         1 UNK         0.0600 
    147 H147       -0.2786  -24.2637  -42.2586 H         1 UNK         0.0600 
    148 H148        1.4709  -24.3030  -42.4097 H         1 UNK         0.0600 
    149 H149        1.2972  -20.6553  -43.2838 H         1 UNK         0.3000 
    150 H150        4.7514  -20.8262  -42.8449 H         1 UNK         0.0600 
    151 H151        4.6265  -20.8740  -45.3513 H         1 UNK         0.0600 
    152 H152        4.8449  -19.2373  -44.7484 H         1 UNK         0.0600 
    153 H153        3.2602  -19.7650  -45.3065 H         1 UNK         0.0600 
    154 H154        2.8492  -18.6774  -43.1698 H         1 UNK         0.3000 
    155 H155        1.9076  -18.5280  -39.6993 H         1 UNK         0.0600 
    156 H156        3.3978  -16.6434  -41.5996 H         1 UNK         0.0600 
    157 H157        3.9719  -17.1655  -40.0214 H         1 UNK         0.0600 
    158 H158        2.5277  -16.1725  -40.1409 H         1 UNK         0.0600 
    159 H159        0.9547  -17.0694  -41.9398 H         1 UNK         0.3000 
    160 H160       -1.7930  -19.2452  -42.7414 H         1 UNK         0.0600 
    161 H161       -3.0052  -17.1243  -42.3359 H         1 UNK         0.0600 
    162 H162       -1.6228  -16.4612  -41.4686 H         1 UNK         0.0600 
    163 H163       -2.5061  -17.8322  -40.8065 H         1 UNK         0.0600 
    164 H164       -0.9400  -16.7421  -43.8248 H         1 UNK         0.3000 
    165 H165        1.0827  -18.0777  -46.4640 H         1 UNK         0.0600 
    166 H166       -0.5740  -16.3844  -47.5174 H         1 UNK         0.0600 
    167 H167       -1.1308  -18.0499  -47.3963 H         1 UNK         0.0600 
    168 H168       -1.7142  -16.8433  -46.2655 H         1 UNK         0.0600 
    169 H169        0.5679  -15.4075  -45.7766 H         1 UNK         0.3000 
    170 H170        3.1104  -14.9094  -43.3181 H         1 UNK         0.0600 
    171 H171        4.2695  -14.6942  -45.4860 H         1 UNK         0.0600 
    172 H172        2.8352  -14.0162  -46.2359 H         1 UNK         0.0600 
    173 H173        3.6778  -13.1216  -44.9733 H         1 UNK         0.0600 
    174 H174        1.1016  -13.2499  -44.5614 H         1 UNK         0.3000 
    175 H175       -1.3918  -13.7238  -42.0423 H         1 UNK         0.0600 
    176 H176       -1.1717  -11.2568  -41.9526 H         1 UNK         0.0600 
    177 H177        0.1903  -12.0109  -41.1397 H         1 UNK         0.0600 
    178 H178        0.3990  -11.3351  -42.7510 H         1 UNK         0.0600 
    179 H179       -1.2764  -12.1060  -44.4055 H         1 UNK         0.3000 
    180 H180       -2.4351  -14.5215  -46.7209 H         1 UNK         0.0600 
    181 H181       -4.0062  -12.2015  -45.4785 H         1 UNK         0.0600 
    182 H182       -4.5591  -13.8691  -45.5768 H         1 UNK         0.0600 
    183 H183       -4.3137  -12.9441  -47.0491 H         1 UNK         0.0600 
    184 H184       -2.0894  -11.7308  -47.0060 H         1 UNK         0.3000 
    185 H185       -0.1669  -11.2489  -48.6022 H         1 UNK         0.0600 
    186 H186        1.0241  -10.6924  -45.8057 H         1 UNK         0.0600 
    187 H187        0.9915   -9.5400  -47.1360 H         1 UNK         0.0600 
    188 H188       -0.5082  -10.0552  -46.3939 H         1 UNK         0.0600 
    189 H189        1.9314  -12.9239  -47.7262 H         1 UNK         0.3000 
    190 H190       -0.7394  -21.2927  -47.0586 H         1 UNK         0.3000 
    191 H191       -2.5499  -22.1136  -49.1335 H         1 UNK         0.0600 
    192 H192       -2.4113  -19.7644  -48.4984 H         1 UNK         0.0600 
    193 H193       -2.8240  -20.1223  -46.8212 H         1 UNK         0.0600 
    194 H194       -4.0233  -20.3225  -48.0896 H         1 UNK         0.0600 
    195 H195       -2.4185  -22.6800  -45.6409 H         1 UNK         0.3000 
    196 H196       -5.0309  -23.8795  -45.3919 H         1 UNK         0.0600 
    197 H197       -4.2289  -24.4654  -43.1108 H         1 UNK         0.0600 
    198 H198       -3.8952  -22.7796  -43.4743 H         1 UNK         0.0600 
    199 H199       -2.5954  -23.9695  -43.5294 H         1 UNK         0.0600 
    200 H200       -1.6946  -25.1525  -45.7652 H         1 UNK         0.3000 
    201 H201       -2.3281  -27.9126  -45.6686 H         1 UNK         0.0600 
    202 H202       -0.0298  -27.0377  -45.3892 H         1 UNK         0.0600 
    203 H203       -0.0160  -26.4464  -47.0493 H         1 UNK         0.0600 
    204 H204       -0.0726  -28.1760  -46.7269 H         1 UNK         0.0600 
    205 H205       -2.1836  -25.6255  -48.4259 H         1 UNK         0.3000 
    206 H206       -2.8808  -27.5280  -50.4640 H         1 UNK         0.0600 
    207 H207       -1.7984  -25.3639  -50.9823 H         1 UNK         0.0600 
    208 H208       -3.3523  -25.4575  -51.7997 H         1 UNK         0.0600 
    209 H209       -3.1814  -24.4806  -50.3428 H         1 UNK         0.0600 
    210 H210       -4.7551  -25.4554  -48.2965 H         1 UNK         0.3000 
    211 H211       -6.8361  -25.3180  -47.6363 H         1 UNK         0.0600 
    212 H212       -7.3233  -28.0899  -48.8458 H         1 UNK         0.0600 
    213 H213       -8.2858  -27.3021  -47.6034 H         1 UNK         0.0600 
    214 H214       -6.6360  -27.7872  -47.2503 H         1 UNK         0.0600 
    215 H215       -6.0767  -24.3366  -50.2855 H         1 UNK         0.3000 
    216 H216       -8.7163  -23.6189  -51.3348 H         1 UNK         0.0600 
    217 H217       -8.1932  -24.4148  -53.6414 H         1 UNK         0.0600 
    218 H218       -8.2334  -25.7713  -52.5306 H         1 UNK         0.0600 
    219 H219       -6.6859  -25.1292  -53.0759 H         1 UNK         0.0600 
    220 H220       -6.7020  -22.1840  -49.9389 H         1 UNK         0.3000 
    221 H221       -5.5168  -20.2931  -49.9217 H         1 UNK         0.0600 
    222 H222       -7.1299  -19.5493  -52.4173 H         1 UNK         0.0600 
    223 H223       -7.7328  -19.4464  -50.7649 H         1 UNK         0.0600 
    224 H224       -6.3919  -18.4401  -51.2714 H         1 UNK         0.0600 
    225 H225       -4.1622  -22.3956  -51.0737 H         1 UNK         0.3000 
    226 H226       -2.3786  -23.0646  -52.2106 H         1 UNK         0.0600 
    227 H227       -1.2585  -21.1803  -51.0830 H         1 UNK         0.0600 
    228 H228       -0.5503  -21.4590  -52.6610 H         1 UNK         0.0600 
    229 H229       -1.6447  -20.1025  -52.4278 H         1 UNK         0.0600 
    230 H230       -4.9113  -22.1656  -53.7243 H         1 UNK         0.3000 
    231 H231       -5.7879  -22.1022  -55.7185 H         1 UNK         0.0600 
    232 H232       -4.6162  -24.2956  -56.0383 H         1 UNK         0.0600 
    233 H233       -3.2509  -23.4567  -56.7746 H         1 UNK         0.0600 
    234 H234       -4.8275  -23.4322  -57.5516 H         1 UNK         0.0600 
    235 H235       -4.2377  -19.7984  -54.7923 H         1 UNK         0.3000 
    236 H236       -3.9064  -18.3561  -57.3651 H         1 UNK         0.0600 
    237 H237       -1.6718  -17.5033  -56.6260 H         1 UNK         0.0600 
    238 H238       -1.7184  -18.5716  -55.2270 H         1 UNK         0.0600 
    239 H239       -1.6450  -19.2456  -56.8539 H         1 UNK         0.0600 
    240 H240       -4.1712  -18.1962  -53.7710 H         1 UNK         0.3000 
    241 H241       -4.4692  -15.2891  -53.8740 H         1 UNK         0.0600 
    242 H242       -8.1643  -16.7842  -53.8483 H         1 UNK         0.3800 
    243 H243       -6.7863  -17.6550  -54.4720 H         1 UNK         0.3800 
    244 H244       -4.4122  -15.3992  -51.4232 H         1 UNK         0.0800 
    245 H245       -4.5020  -17.1437  -51.4609 H         1 UNK         0.0800 
    246 H246       -2.5548  -17.5128  -50.0014 H         1 UNK         0.0800 
    247 H247       -2.2004  -15.8178  -49.7591 H         1 UNK         0.0800 
@<TRIPOS>BOND
     1    1    2 1    
     2    1  127 1    
     3    1  128 1    
     4    1  129 1    
     5    2    3 2    
     6    2    4 am   BACKBONE|DICT|INTERRES
     7    4    5 1    
     8    4  130 1    
     9    5    6 1    
    10    5   65 1    
    11    5  131 1    
    12    6    7 1    
    13    6  132 1    
    14    6  133 1    
    15    7    8 1    
    16    8    9 1    
    17    8  134 1    
    18    8  135 1    
    19    9   10 ar   
    20    9   14 ar   
    21   10   11 ar   
    22   10  136 1    
    23   11   12 ar   
    24   11  126 1    
    25   12   13 ar   
    26   12  137 1    
    27   13   14 ar   
    28   13   15 1    
    29   14  138 1    
    30   15   16 1    
    31   15  139 1    
    32   15  140 1    
    33   16   17 1    
    34   17   18 1    
    35   17  141 1    
    36   17  142 1    
    37   18   19 1    
    38   18   67 1    
    39   18  143 1    
    40   19   20 am   BACKBONE|DICT|INTERRES
    41   19  144 1    
    42   20   21 2    
    43   20   22 1    
    44   22   23 1    
    45   22   24 1    
    46   22  145 1    
    47   23  146 1    
    48   23  147 1    
    49   23  148 1    
    50   24   25 am   BACKBONE|DICT|INTERRES
    51   24  149 1    
    52   25   26 2    
    53   25   27 1    
    54   27   28 1    
    55   27   29 1    
    56   27  150 1    
    57   28  151 1    
    58   28  152 1    
    59   28  153 1    
    60   29   30 am   BACKBONE|DICT|INTERRES
    61   29  154 1    
    62   30   31 2    
    63   30   32 1    
    64   32   33 1    
    65   32   34 1    
    66   32  155 1    
    67   33  156 1    
    68   33  157 1    
    69   33  158 1    
    70   34   35 am   BACKBONE|DICT|INTERRES
    71   34  159 1    
    72   35   36 2    
    73   35   37 1    
    74   37   38 1    
    75   37   39 1    
    76   37  160 1    
    77   38  161 1    
    78   38  162 1    
    79   38  163 1    
    80   39   40 am   BACKBONE|DICT|INTERRES
    81   39  164 1    
    82   40   41 2    
    83   40   42 1    
    84   42   43 1    
    85   42   44 1    
    86   42  165 1    
    87   43  166 1    
    88   43  167 1    
    89   43  168 1    
    90   44   45 am   BACKBONE|DICT|INTERRES
    91   44  169 1    
    92   45   46 2    
    93   45   47 1    
    94   47   48 1    
    95   47   49 1    
    96   47  170 1    
    97   48  171 1    
    98   48  172 1    
    99   48  173 1    
   100   49   50 am   BACKBONE|DICT|INTERRES
   101   49  174 1    
   102   50   51 2    
   103   50   52 1    
   104   52   53 1    
   105   52   54 1    
   106   52  175 1    
   107   53  176 1    
   108   53  177 1    
   109   53  178 1    
   110   54   55 am   BACKBONE|DICT|INTERRES
   111   54  179 1    
   112   55   56 2    
   113   55   57 1    
   114   57   58 1    
   115   57   59 1    
   116   57  180 1    
   117   58  181 1    
   118   58  182 1    
   119   58  183 1    
   120   59   60 am   BACKBONE|DICT|INTERRES
   121   59  184 1    
   122   60   61 2    
   123   60   62 1    
   124   62   63 1    
   125   62   64 1    
   126   62  185 1    
   127   63  186 1    
   128   63  187 1    
   129   63  188 1    
   130   64   65 am   BACKBONE|DICT|INTERRES
   131   64  189 1    
   132   65   66 2    
   133   67   68 2    
   134   67   69 am   BACKBONE|DICT|INTERRES
   135   69   70 1    
   136   69  190 1    
   137   70   71 1    
   138   70   72 1    
   139   70  191 1    
   140   71  192 1    
   141   71  193 1    
   142   71  194 1    
   143   72   73 2    
   144   72   74 am   BACKBONE|DICT|INTERRES
   145   74   75 1    
   146   74  195 1    
   147   75   76 1    
   148   75   77 1    
   149   75  196 1    
   150   76  197 1    
   151   76  198 1    
   152   76  199 1    
   153   77   78 2    
   154   77   79 am   BACKBONE|DICT|INTERRES
   155   79   80 1    
   156   79  200 1    
   157   80   81 1    
   158   80   82 1    
   159   80  201 1    
   160   81  202 1    
   161   81  203 1    
   162   81  204 1    
   163   82   83 2    
   164   82   84 am   BACKBONE|DICT|INTERRES
   165   84   85 1    
   166   84  205 1    
   167   85   86 1    
   168   85   87 1    
   169   85  206 1    
   170   86  207 1    
   171   86  208 1    
   172   86  209 1    
   173   87   88 2    
   174   87   89 am   BACKBONE|DICT|INTERRES
   175   89   90 1    
   176   89  210 1    
   177   90   91 1    
   178   90   92 1    
   179   90  211 1    
   180   91  212 1    
   181   91  213 1    
   182   91  214 1    
   183   92   93 2    
   184   92   94 am   BACKBONE|DICT|INTERRES
   185   94   95 1    
   186   94  215 1    
   187   95   96 1    
   188   95   97 1    
   189   95  216 1    
   190   96  217 1    
   191   96  218 1    
   192   96  219 1    
   193   97   98 2    
   194   97   99 am   BACKBONE|DICT|INTERRES
   195   99  100 1    
   196   99  220 1    
   197  100  101 1    
   198  100  102 1    
   199  100  221 1    
   200  101  222 1    
   201  101  223 1    
   202  101  224 1    
   203  102  103 2    
   204  102  104 am   BACKBONE|DICT|INTERRES
   205  104  105 1    
   206  104  225 1    
   207  105  106 1    
   208  105  107 1    
   209  105  226 1    
   210  106  227 1    
   211  106  228 1    
   212  106  229 1    
   213  107  108 2    
   214  107  109 am   BACKBONE|DICT|INTERRES
   215  109  110 1    
   216  109  230 1    
   217  110  111 1    
   218  110  112 1    
   219  110  231 1    
   220  111  232 1    
   221  111  233 1    
   222  111  234 1    
   223  112  113 2    
   224  112  114 am   BACKBONE|DICT|INTERRES
   225  114  115 1    
   226  114  235 1    
   227  115  116 1    
   228  115  117 1    
   229  115  236 1    
   230  116  237 1    
   231  116  238 1    
   232  116  239 1    
   233  117  118 2    
   234  117  119 am   BACKBONE|DICT|INTERRES
   235  119  120 1    
   236  119  240 1    
   237  120  121 1    
   238  120  124 1    
   239  120  241 1    
   240  121  122 am   BACKBONE|DICT|INTERRES
   241  121  123 2    
   242  122  242 1    
   243  122  243 1    
   244  124  125 1    
   245  124  244 1    
   246  124  245 1    
   247  125  126 1    
   248  126  246 1    
   249  126  247 1    
@<TRIPOS>SUBSTRUCTURE
     1 UNK         1 GROUP             0       ****    0 ROOT    
