@<TRIPOS>MOLECULE
3R540
247   249    1
SMALL
USER_CHARGES


@<TRIPOS>ATOM
      1 CA          2.8598  -15.6817  -52.3364 C.3       0 UNK        -0.1800 
      2 C           2.6549  -15.4194  -50.8518 C.2       0 UNK         0.5000 
      3 O           3.3504  -16.0063  -50.0223 O.2       0 UNK        -0.5000 
      4 N           1.7115  -14.5331  -50.5103 N.am      1 UNK        -0.5000 
      5 CA          1.2897  -14.2066  -49.1420 C.3       1 UNK         0.1400 
      6 C6         -0.1924  -13.7262  -49.1147 C.3       23 UNK        -0.0398 
      7 S7         -1.1315  -14.5409  -47.7817 S.3       23 UNK        -0.2404 
      8 C8         -2.2566  -15.6391  -48.7004 C.3       23 UNK        -0.0205 
      9 C9         -1.5594  -16.5290  -49.7222 C.ar      23 UNK        -0.0193 
     10 C10        -1.9650  -16.4975  -51.0592 C.ar      23 UNK        -0.1150 
     11 C11        -1.3517  -17.3201  -52.0051 C.ar      23 UNK        -0.0193 
     12 C12        -0.3119  -18.1656  -51.6106 C.ar      23 UNK        -0.1150 
     13 C13         0.1056  -18.2159  -50.2774 C.ar      23 UNK        -0.0193 
     14 C14        -0.5337  -17.3983  -49.3370 C.ar      23 UNK        -0.1150 
     15 C15         1.2845  -19.1148  -49.9030 C.3       23 UNK        -0.0205 
     16 S16         1.1738  -19.8904  -48.2559 S.3       23 UNK        -0.2404 
     17 C17        -0.2585  -20.9959  -48.4663 C.3       23 UNK        -0.0398 
     18 CA         -0.1938  -22.2135  -47.5154 C.3       11 UNK         0.1400 
     19 N          -0.2424  -21.8410  -46.0953 N.am      11 UNK        -0.5000 
     20 C           0.0503  -22.6947  -45.1023 C.2       10 UNK         0.5000 
     21 O           0.3645  -23.8695  -45.2895 O.2       10 UNK        -0.5000 
     22 CA         -0.0566  -22.1847  -43.6565 C.3       10 UNK         0.1400 
     23 CB          1.2536  -21.5176  -43.2142 C.3       10 UNK        -0.1800 
     24 N          -1.1827  -21.2845  -43.4118 N.am      10 UNK        -0.5000 
     25 C          -2.4744  -21.6206  -43.5415 C.2       9 UNK         0.5000 
     26 O          -2.8581  -22.6810  -44.0363 O.2       9 UNK        -0.5000 
     27 CA         -3.5076  -20.6051  -43.0304 C.3       9 UNK         0.1400 
     28 CB         -3.5281  -20.5780  -41.4939 C.3       9 UNK        -0.1800 
     29 N          -3.2000  -19.2698  -43.5332 N.am      9 UNK        -0.5000 
     30 C          -3.8700  -18.6571  -44.5176 C.2       8 UNK         0.5000 
     31 O          -4.9093  -19.0958  -45.0109 O.2       8 UNK        -0.5000 
     32 CA         -3.2807  -17.3391  -45.0640 C.3       8 UNK         0.1400 
     33 CB         -4.0369  -16.1299  -44.4960 C.3       8 UNK        -0.1800 
     34 N          -1.8444  -17.1687  -44.8199 N.am      8 UNK        -0.5000 
     35 C          -0.8901  -17.9835  -45.2944 C.2       7 UNK         0.5000 
     36 O          -1.1218  -18.9586  -46.0082 O.2       7 UNK        -0.5000 
     37 CA          0.5551  -17.7287  -44.8278 C.3       7 UNK         0.1400 
     38 CB          1.3172  -16.8205  -45.8037 C.3       7 UNK        -0.1800 
     39 N           0.6677  -17.1843  -43.4724 N.am      7 UNK        -0.5000 
     40 C           0.2211  -17.7686  -42.3507 C.2       6 UNK         0.5000 
     41 O          -0.4712  -18.7869  -42.3396 O.2       6 UNK        -0.5000 
     42 CA          0.6071  -17.1032  -41.0215 C.3       6 UNK         0.1400 
     43 CB          2.0734  -17.4080  -40.6774 C.3       6 UNK        -0.1800 
     44 N           0.4210  -15.6566  -41.0946 N.am      6 UNK        -0.5000 
     45 C          -0.5689  -14.9807  -40.4973 C.2       5 UNK         0.5000 
     46 O          -1.3905  -15.4946  -39.7370 O.2       5 UNK        -0.5000 
     47 CA         -0.6743  -13.4724  -40.8075 C.3       5 UNK         0.1400 
     48 CB          0.0508  -12.6516  -39.7303 C.3       5 UNK        -0.1800 
     49 N          -0.1528  -13.0945  -42.1238 N.am      5 UNK        -0.5000 
     50 C          -0.6248  -13.5433  -43.2948 C.2       4 UNK         0.5000 
     51 O          -1.5706  -14.3237  -43.4003 O.2       4 UNK        -0.5000 
     52 CA          0.1122  -13.0866  -44.5656 C.3       4 UNK         0.1400 
     53 CB         -0.5050  -11.7894  -45.1078 C.3       4 UNK        -0.1800 
     54 N           1.5674  -12.9237  -44.4596 N.am      4 UNK        -0.5000 
     55 C           2.4427  -13.7931  -43.9340 C.2       3 UNK         0.5000 
     56 O           2.1216  -14.8047  -43.3086 O.2       3 UNK        -0.5000 
     57 CA          3.9209  -13.5078  -44.2301 C.3       3 UNK         0.1400 
     58 CB          4.8723  -14.5299  -43.5809 C.3       3 UNK        -0.1800 
     59 N           4.0976  -13.5383  -45.6795 N.am      3 UNK        -0.5000 
     60 C           4.6852  -12.5889  -46.4150 C.2       2 UNK         0.5000 
     61 O           5.2037  -11.5770  -45.9418 O.2       2 UNK        -0.5000 
     62 CA          4.6874  -12.7982  -47.9422 C.3       2 UNK         0.1400 
     63 CB          6.0052  -13.4465  -48.3928 C.3       2 UNK        -0.1800 
     64 N           3.5697  -13.6059  -48.4411 N.am      2 UNK        -0.5000 
     65 C           2.2804  -13.2413  -48.4403 C.2       1 UNK         0.5000 
     66 O           1.8864  -12.1868  -47.9405 O.2       1 UNK        -0.5000 
     67 C          -1.2819  -23.2440  -47.8746 C.2       11 UNK         0.5000 
     68 O          -1.0166  -24.1414  -48.6751 O.2       11 UNK        -0.5000 
     69 N          -2.4613  -23.1233  -47.2488 N.am      12 UNK        -0.5000 
     70 CA         -3.5693  -24.0634  -47.4007 C.3       12 UNK         0.1400 
     71 CB         -4.8809  -23.4053  -46.9459 C.3       12 UNK        -0.1800 
     72 C          -3.3133  -25.3682  -46.6303 C.2       12 UNK         0.5000 
     73 O          -3.5673  -26.4449  -47.1693 O.2       12 UNK        -0.5000 
     74 N          -2.7856  -25.2541  -45.4023 N.am      13 UNK        -0.5000 
     75 CA         -2.4403  -26.3806  -44.5310 C.3       13 UNK         0.1400 
     76 CB         -2.0440  -25.8533  -43.1441 C.3       13 UNK        -0.1800 
     77 C          -1.3289  -27.2749  -45.1116 C.2       13 UNK         0.5000 
     78 O          -1.4262  -28.4995  -45.0246 O.2       13 UNK        -0.5000 
     79 N          -0.3130  -26.6505  -45.7226 N.am      14 UNK        -0.5000 
     80 CA          0.7707  -27.3285  -46.4369 C.3       14 UNK         0.1400 
     81 CB          1.9549  -26.3578  -46.5735 C.3       14 UNK        -0.1800 
     82 C           0.3537  -27.8451  -47.8285 C.2       14 UNK         0.5000 
     83 O           1.0894  -28.6406  -48.4139 O.2       14 UNK        -0.5000 
     84 N          -0.7886  -27.3613  -48.3424 N.am      15 UNK        -0.5000 
     85 CA         -1.3173  -27.5611  -49.6967 C.3       15 UNK         0.1400 
     86 CB         -1.7256  -29.0315  -49.9207 C.3       15 UNK        -0.1800 
     87 C          -0.3637  -27.0181  -50.7835 C.2       15 UNK         0.5000 
     88 O          -0.2430  -27.6026  -51.8618 O.2       15 UNK        -0.5000 
     89 N           0.3069  -25.9048  -50.4635 N.am      16 UNK        -0.5000 
     90 CA          1.2537  -25.2084  -51.3292 C.3       16 UNK         0.1400 
     91 CB          2.2250  -24.4043  -50.4504 C.3       16 UNK        -0.1800 
     92 C           0.5413  -24.2806  -52.3268 C.2       16 UNK         0.5000 
     93 O           1.0582  -24.0574  -53.4221 O.2       16 UNK        -0.5000 
     94 N          -0.6277  -23.7625  -51.9341 N.am      17 UNK        -0.5000 
     95 CA         -1.4779  -22.8747  -52.7165 C.3       17 UNK         0.1400 
     96 CB         -0.8813  -21.4538  -52.7317 C.3       17 UNK        -0.1800 
     97 C          -2.8874  -22.8798  -52.1063 C.2       17 UNK         0.5000 
     98 O          -3.1095  -23.5066  -51.0675 O.2       17 UNK        -0.5000 
     99 N          -3.8129  -22.1568  -52.7489 N.am      18 UNK        -0.5000 
    100 CA        -5.1840  -21.9543  -52.2699 C.3       18 UNK         0.1400 
    101 CB        -6.0211  -21.3553  -53.4110 C.3       18 UNK        -0.1800 
    102 C         -5.2683  -21.0587  -51.0157 C.2       18 UNK         0.5000 
    103 O         -6.2570  -21.1333  -50.2869 O.2       18 UNK        -0.5000 
    104 N         -4.2377  -20.2242  -50.8070 N.am      19 UNK        -0.5000 
    105 CA        -4.0622  -19.2496  -49.7220 C.3       19 UNK         0.1400 
    106 CB        -4.0945  -19.9290  -48.3414 C.3       19 UNK        -0.1800 
    107 C         -5.0116  -18.0339  -49.8025 C.2       19 UNK         0.5000 
    108 O         -5.0556  -17.2327  -48.8693 O.2       19 UNK        -0.5000 
    109 N         -5.7210  -17.8985  -50.9262 N.am      20 UNK        -0.5000 
    110 CA        -6.6150  -16.8113  -51.3008 C.3       20 UNK         0.1400 
    111 CB        -7.8165  -16.7022  -50.3410 C.3       20 UNK        -0.1800 
    112 C         -7.0973  -17.1190  -52.7224 C.2       20 UNK         0.5000 
    113 O         -7.4681  -18.2645  -52.9892 O.2       20 UNK        -0.5000 
    114 N         -7.0818  -16.1048  -53.5997 N.am      21 UNK        -0.5000 
    115 CA        -7.5115  -16.1574  -55.0052 C.3       21 UNK         0.1400 
    116 CB        -9.0496  -16.2527  -55.0876 C.3       21 UNK        -0.1800 
    117 C         -6.7953  -17.2600  -55.8190 C.2       21 UNK         0.5000 
    118 O         -7.4419  -18.0201  -56.5428 O.2       21 UNK        -0.5000 
    119 N         -5.4679  -17.3399  -55.6537 N.am      22 UNK        -0.5000 
    120 CA        -4.6034  -18.3842  -56.2325 C.3       22 UNK         0.1400 
    121 C         -4.4903  -18.3784  -57.7873 C.2       22 UNK         0.5000 
    122 N         -4.8632  -17.3093  -58.4802 N.am      22 UNK        -0.7600 
    123 O         -4.0536  -19.3646  -58.3744 O.2       22 UNK        -0.5000 
    124 C124       -3.1851  -18.3800  -55.6053 C.3       23 UNK        -0.0398 
    125 S125       -3.1632  -18.4364  -53.7786 S.3       23 UNK        -0.2404 
    126 C126       -1.7945  -17.2798  -53.4573 C.3       23 UNK        -0.0205 
    127 H127        2.1883  -15.0816  -52.9507 H         1 UNK         0.0600 
    128 H128        2.6729  -16.7327  -52.5573 H         1 UNK         0.0600 
    129 H129        3.8854  -15.4477  -52.6218 H         1 UNK         0.0600 
    130 H130        1.2088  -14.0542  -51.2435 H         1 UNK         0.3000 
    131 H131        1.3508  -15.1397  -48.5771 H         1 UNK         0.0600 
    132 H132       -0.6891  -13.9450  -50.0604 H         1 UNK         0.0800 
    133 H133       -0.2912  -12.6454  -49.0060 H         1 UNK         0.0800 
    134 H134       -2.7715  -16.2753  -47.9842 H         1 UNK         0.0800 
    135 H135       -3.0267  -15.0303  -49.1764 H         1 UNK         0.0800 
    136 H136       -2.7660  -15.8392  -51.3652 H         1 UNK         0.1150 
    137 H137        0.1802  -18.7811  -52.3501 H         1 UNK         0.1150 
    138 H138       -0.2302  -17.4234  -48.3028 H         1 UNK         0.1150 
    139 H139        1.4156  -19.9022  -50.6469 H         1 UNK         0.0800 
    140 H140        2.1923  -18.5119  -49.9341 H         1 UNK         0.0800 
    141 H141       -0.2818  -21.3311  -49.5041 H         1 UNK         0.0800 
    142 H142       -1.1682  -20.4172  -48.3049 H         1 UNK         0.0800 
    143 H143        0.7651  -22.7085  -47.6855 H         1 UNK         0.0600 
    144 H144       -0.5100  -20.8838  -45.8866 H         1 UNK         0.3000 
    145 H145       -0.2076  -23.0568  -43.0183 H         1 UNK         0.0600 
    146 H146        1.2065  -21.2049  -42.1708 H         1 UNK         0.0600 
    147 H147        2.0923  -22.2086  -43.3086 H         1 UNK         0.0600 
    148 H148        1.4853  -20.6417  -43.8168 H         1 UNK         0.0600 
    149 H149       -0.9494  -20.3840  -42.9990 H         1 UNK         0.3000 
    150 H150       -4.4915  -20.9330  -43.3723 H         1 UNK         0.0600 
    151 H151       -4.3021  -19.9049  -41.1251 H         1 UNK         0.0600 
    152 H152       -2.5748  -20.2480  -41.0791 H         1 UNK         0.0600 
    153 H153       -3.7384  -21.5688  -41.0890 H         1 UNK         0.0600 
    154 H154       -2.3393  -18.8513  -43.1994 H         1 UNK         0.3000 
    155 H155       -3.4343  -17.3552  -46.1427 H         1 UNK         0.0600 
    156 H156       -5.1097  -16.2192  -44.6720 H         1 UNK         0.0600 
    157 H157       -3.8852  -16.0312  -43.4204 H         1 UNK         0.0600 
    158 H158       -3.7078  -15.2045  -44.9691 H         1 UNK         0.0600 
    159 H159       -1.5773  -16.3893  -44.2301 H         1 UNK         0.3000 
    160 H160        1.0620  -18.6932  -44.8273 H         1 UNK         0.0600 
    161 H161        2.3406  -16.6526  -45.4682 H         1 UNK         0.0600 
    162 H162        0.8359  -15.8514  -45.9130 H         1 UNK         0.0600 
    163 H163        1.3822  -17.2716  -46.7922 H         1 UNK         0.0600 
    164 H164        1.2227  -16.3357  -43.3847 H         1 UNK         0.3000 
    165 H165       -0.0196  -17.5363  -40.2392 H         1 UNK         0.0600 
    166 H166        2.3411  -16.9948  -39.7049 H         1 UNK         0.0600 
    167 H167        2.2493  -18.4837  -40.6340 H         1 UNK         0.0600 
    168 H168        2.7590  -16.9912  -41.4167 H         1 UNK         0.0600 
    169 H169        1.0308  -15.1574  -41.7347 H         1 UNK         0.3000 
    170 H170       -1.7337  -13.2089  -40.7844 H         1 UNK         0.0600 
    171 H171        1.1228  -12.8527  -39.7261 H         1 UNK         0.0600 
    172 H172       -0.0910  -11.5820  -39.8860 H         1 UNK         0.0600 
    173 H173       -0.3314  -12.8871  -38.7360 H         1 UNK         0.0600 
    174 H174        0.6419  -12.4725  -42.1366 H         1 UNK         0.3000 
    175 H175       -0.0517  -13.8666  -45.3044 H         1 UNK         0.0600 
    176 H176       -0.1007  -11.5403  -46.0890 H         1 UNK         0.0600 
    177 H177       -0.3186  -10.9464  -44.4416 H         1 UNK         0.0600 
    178 H178       -1.5855  -11.8878  -45.2225 H         1 UNK         0.0600 
    179 H179        1.9481  -12.1404  -44.9716 H         1 UNK         0.3000 
    180 H180        4.1459  -12.5186  -43.8266 H         1 UNK         0.0600 
    181 H181        4.6855  -15.5420  -43.9423 H         1 UNK         0.0600 
    182 H182        4.7547  -14.5398  -42.4966 H         1 UNK         0.0600 
    183 H183        5.9133  -14.2863  -43.7933 H         1 UNK         0.0600 
    184 H184        3.6772  -14.3195  -46.1622 H         1 UNK         0.3000 
    185 H185        4.6178  -11.8117  -48.4051 H         1 UNK         0.0600 
    186 H186        6.1189  -14.4512  -47.9836 H         1 UNK         0.0600 
    187 H187        6.0579  -13.5189  -49.4794 H         1 UNK         0.0600 
    188 H188        6.8636  -12.8585  -48.0651 H         1 UNK         0.0600 
    189 H189        3.8012  -14.4877  -48.8903 H         1 UNK         0.3000 
    190 H190       -2.5717  -22.3977  -46.5550 H         1 UNK         0.3000 
    191 H191       -3.6702  -24.3156  -48.4587 H         1 UNK         0.0600 
    192 H192       -5.1431  -22.5669  -47.5898 H         1 UNK         0.0600 
    193 H193       -5.7090  -24.1136  -46.9920 H         1 UNK         0.0600 
    194 H194       -4.8194  -23.0380  -45.9211 H         1 UNK         0.0600 
    195 H195       -2.6526  -24.3244  -45.0135 H         1 UNK         0.3000 
    196 H196       -3.3353  -26.9956  -44.4170 H         1 UNK         0.0600 
    197 H197       -1.8337  -26.6758  -42.4594 H         1 UNK         0.0600 
    198 H198       -2.8443  -25.2586  -42.7033 H         1 UNK         0.0600 
    199 H199       -1.1510  -25.2307  -43.1927 H         1 UNK         0.0600 
    200 H200       -0.2658  -25.6349  -45.6905 H         1 UNK         0.3000 
    201 H201        1.0975  -28.1877  -45.8477 H         1 UNK         0.0600 
    202 H202        2.2947  -26.0098  -45.5979 H         1 UNK         0.0600 
    203 H203        1.6886  -25.4821  -47.1673 H         1 UNK         0.0600 
    204 H204        2.8039  -26.8387  -47.0608 H         1 UNK         0.0600 
    205 H205       -1.3252  -26.7282  -47.7649 H         1 UNK         0.3000 
    206 H206       -2.2219  -26.9544  -49.7596 H         1 UNK         0.0600 
    207 H207       -2.3998  -29.3754  -49.1362 H         1 UNK         0.0600 
    208 H208       -2.2470  -29.1510  -50.8711 H         1 UNK         0.0600 
    209 H209       -0.8616  -29.6962  -49.9369 H         1 UNK         0.0600 
    210 H210        0.0629  -25.4401  -49.5938 H         1 UNK         0.3000 
    211 H211        1.8286  -25.9431  -51.8969 H         1 UNK         0.0600 
    212 H212        1.7048  -23.6446  -49.8657 H         1 UNK         0.0600 
    213 H213        2.9721  -23.8946  -51.0601 H         1 UNK         0.0600 
    214 H214        2.7588  -25.0540  -49.7565 H         1 UNK         0.0600 
    215 H215       -1.0185  -24.0275  -51.0354 H         1 UNK         0.3000 
    216 H216       -1.5467  -23.2580  -53.7365 H         1 UNK         0.0600 
    217 H217       -1.4300  -20.8039  -53.4120 H         1 UNK         0.0600 
    218 H218        0.1559  -21.4524  -53.0663 H         1 UNK         0.0600 
    219 H219       -0.9128  -20.9982  -51.7425 H         1 UNK         0.0600 
    220 H220       -3.5602  -21.6787  -53.6016 H         1 UNK         0.3000 
    221 H221       -5.6049  -22.9277  -52.0088 H         1 UNK         0.0600 
    222 H222       -5.6420  -20.3810  -53.7215 H         1 UNK         0.0600 
    223 H223       -6.0268  -22.0080  -54.2840 H         1 UNK         0.0600 
    224 H224       -7.0585  -21.2163  -53.1035 H         1 UNK         0.0600 
    225 H225       -3.5003  -20.2294  -51.4970 H         1 UNK         0.3000 
    226 H226       -3.0547  -18.8606  -49.8583 H         1 UNK         0.0600 
    227 H227       -3.5223  -20.8541  -48.3453 H         1 UNK         0.0600 
    228 H228       -3.6579  -19.2805  -47.5825 H         1 UNK         0.0600 
    229 H229       -5.1123  -20.1614  -48.0271 H         1 UNK         0.0600 
    230 H230       -5.6432  -18.6218  -51.6289 H         1 UNK         0.3000 
    231 H231       -6.0509  -15.8769  -51.2953 H         1 UNK         0.0600 
    232 H232       -8.3497  -17.6502  -50.2584 H         1 UNK         0.0600 
    233 H233       -8.5285  -15.9542  -50.6921 H         1 UNK         0.0600 
    234 H234       -7.5087  -16.4030  -49.3396 H         1 UNK         0.0600 
    235 H235       -6.7483  -15.2042  -53.2847 H         1 UNK         0.3000 
    236 H236       -7.2173  -15.2085  -55.4561 H         1 UNK         0.0600 
    237 H237       -9.4189  -17.1948  -54.6809 H         1 UNK         0.0600 
    238 H238       -9.5247  -15.4413  -54.5363 H         1 UNK         0.0600 
    239 H239       -9.3919  -16.1850  -56.1209 H         1 UNK         0.0600 
    240 H240       -5.0174  -16.6907  -55.0263 H         1 UNK         0.3000 
    241 H241       -5.0650  -19.3394  -55.9755 H         1 UNK         0.0600 
    242 H242       -4.7888  -17.3177  -59.4856 H         1 UNK         0.3800 
    243 H243       -5.2275  -16.4955  -58.0116 H         1 UNK         0.3800 
    244 H244       -2.6105  -19.2365  -55.9628 H         1 UNK         0.0800 
    245 H245       -2.6428  -17.4943  -55.9413 H         1 UNK         0.0800 
    246 H246       -2.1027  -16.2685  -53.7270 H         1 UNK         0.0800 
    247 H247       -0.9504  -17.5271  -54.1034 H         1 UNK         0.0800 
@<TRIPOS>BOND
     1    1    2 1    
     2    1  127 1    
     3    1  128 1    
     4    1  129 1    
     5    2    3 2    
     6    2    4 am   BACKBONE|DICT|INTERRES
     7    4    5 1    
     8    4  130 1    
     9    5    6 1    
    10    5   65 1    
    11    5  131 1    
    12    6    7 1    
    13    6  132 1    
    14    6  133 1    
    15    7    8 1    
    16    8    9 1    
    17    8  134 1    
    18    8  135 1    
    19    9   10 ar   
    20    9   14 ar   
    21   10   11 ar   
    22   10  136 1    
    23   11   12 ar   
    24   11  126 1    
    25   12   13 ar   
    26   12  137 1    
    27   13   14 ar   
    28   13   15 1    
    29   14  138 1    
    30   15   16 1    
    31   15  139 1    
    32   15  140 1    
    33   16   17 1    
    34   17   18 1    
    35   17  141 1    
    36   17  142 1    
    37   18   19 1    
    38   18   67 1    
    39   18  143 1    
    40   19   20 am   BACKBONE|DICT|INTERRES
    41   19  144 1    
    42   20   21 2    
    43   20   22 1    
    44   22   23 1    
    45   22   24 1    
    46   22  145 1    
    47   23  146 1    
    48   23  147 1    
    49   23  148 1    
    50   24   25 am   BACKBONE|DICT|INTERRES
    51   24  149 1    
    52   25   26 2    
    53   25   27 1    
    54   27   28 1    
    55   27   29 1    
    56   27  150 1    
    57   28  151 1    
    58   28  152 1    
    59   28  153 1    
    60   29   30 am   BACKBONE|DICT|INTERRES
    61   29  154 1    
    62   30   31 2    
    63   30   32 1    
    64   32   33 1    
    65   32   34 1    
    66   32  155 1    
    67   33  156 1    
    68   33  157 1    
    69   33  158 1    
    70   34   35 am   BACKBONE|DICT|INTERRES
    71   34  159 1    
    72   35   36 2    
    73   35   37 1    
    74   37   38 1    
    75   37   39 1    
    76   37  160 1    
    77   38  161 1    
    78   38  162 1    
    79   38  163 1    
    80   39   40 am   BACKBONE|DICT|INTERRES
    81   39  164 1    
    82   40   41 2    
    83   40   42 1    
    84   42   43 1    
    85   42   44 1    
    86   42  165 1    
    87   43  166 1    
    88   43  167 1    
    89   43  168 1    
    90   44   45 am   BACKBONE|DICT|INTERRES
    91   44  169 1    
    92   45   46 2    
    93   45   47 1    
    94   47   48 1    
    95   47   49 1    
    96   47  170 1    
    97   48  171 1    
    98   48  172 1    
    99   48  173 1    
   100   49   50 am   BACKBONE|DICT|INTERRES
   101   49  174 1    
   102   50   51 2    
   103   50   52 1    
   104   52   53 1    
   105   52   54 1    
   106   52  175 1    
   107   53  176 1    
   108   53  177 1    
   109   53  178 1    
   110   54   55 am   BACKBONE|DICT|INTERRES
   111   54  179 1    
   112   55   56 2    
   113   55   57 1    
   114   57   58 1    
   115   57   59 1    
   116   57  180 1    
   117   58  181 1    
   118   58  182 1    
   119   58  183 1    
   120   59   60 am   BACKBONE|DICT|INTERRES
   121   59  184 1    
   122   60   61 2    
   123   60   62 1    
   124   62   63 1    
   125   62   64 1    
   126   62  185 1    
   127   63  186 1    
   128   63  187 1    
   129   63  188 1    
   130   64   65 am   BACKBONE|DICT|INTERRES
   131   64  189 1    
   132   65   66 2    
   133   67   68 2    
   134   67   69 am   BACKBONE|DICT|INTERRES
   135   69   70 1    
   136   69  190 1    
   137   70   71 1    
   138   70   72 1    
   139   70  191 1    
   140   71  192 1    
   141   71  193 1    
   142   71  194 1    
   143   72   73 2    
   144   72   74 am   BACKBONE|DICT|INTERRES
   145   74   75 1    
   146   74  195 1    
   147   75   76 1    
   148   75   77 1    
   149   75  196 1    
   150   76  197 1    
   151   76  198 1    
   152   76  199 1    
   153   77   78 2    
   154   77   79 am   BACKBONE|DICT|INTERRES
   155   79   80 1    
   156   79  200 1    
   157   80   81 1    
   158   80   82 1    
   159   80  201 1    
   160   81  202 1    
   161   81  203 1    
   162   81  204 1    
   163   82   83 2    
   164   82   84 am   BACKBONE|DICT|INTERRES
   165   84   85 1    
   166   84  205 1    
   167   85   86 1    
   168   85   87 1    
   169   85  206 1    
   170   86  207 1    
   171   86  208 1    
   172   86  209 1    
   173   87   88 2    
   174   87   89 am   BACKBONE|DICT|INTERRES
   175   89   90 1    
   176   89  210 1    
   177   90   91 1    
   178   90   92 1    
   179   90  211 1    
   180   91  212 1    
   181   91  213 1    
   182   91  214 1    
   183   92   93 2    
   184   92   94 am   BACKBONE|DICT|INTERRES
   185   94   95 1    
   186   94  215 1    
   187   95   96 1    
   188   95   97 1    
   189   95  216 1    
   190   96  217 1    
   191   96  218 1    
   192   96  219 1    
   193   97   98 2    
   194   97   99 am   BACKBONE|DICT|INTERRES
   195   99  100 1    
   196   99  220 1    
   197  100  101 1    
   198  100  102 1    
   199  100  221 1    
   200  101  222 1    
   201  101  223 1    
   202  101  224 1    
   203  102  103 2    
   204  102  104 am   BACKBONE|DICT|INTERRES
   205  104  105 1    
   206  104  225 1    
   207  105  106 1    
   208  105  107 1    
   209  105  226 1    
   210  106  227 1    
   211  106  228 1    
   212  106  229 1    
   213  107  108 2    
   214  107  109 am   BACKBONE|DICT|INTERRES
   215  109  110 1    
   216  109  230 1    
   217  110  111 1    
   218  110  112 1    
   219  110  231 1    
   220  111  232 1    
   221  111  233 1    
   222  111  234 1    
   223  112  113 2    
   224  112  114 am   BACKBONE|DICT|INTERRES
   225  114  115 1    
   226  114  235 1    
   227  115  116 1    
   228  115  117 1    
   229  115  236 1    
   230  116  237 1    
   231  116  238 1    
   232  116  239 1    
   233  117  118 2    
   234  117  119 am   BACKBONE|DICT|INTERRES
   235  119  120 1    
   236  119  240 1    
   237  120  121 1    
   238  120  124 1    
   239  120  241 1    
   240  121  122 am   BACKBONE|DICT|INTERRES
   241  121  123 2    
   242  122  242 1    
   243  122  243 1    
   244  124  125 1    
   245  124  244 1    
   246  124  245 1    
   247  125  126 1    
   248  126  246 1    
   249  126  247 1    
@<TRIPOS>SUBSTRUCTURE
     1 UNK         1 GROUP             0       ****    0 ROOT    
