@<TRIPOS>MOLECULE
3R540
247   249    1
SMALL
USER_CHARGES


@<TRIPOS>ATOM
      1 CA         -2.0053  -15.2012  -51.0061 C.3       0 UNK        -0.1800 
      2 C          -1.0222  -15.1479  -49.8454 C.2       0 UNK         0.5000 
      3 O           0.0291  -15.7868  -49.8958 O.2       0 UNK        -0.5000 
      4 N          -1.3471  -14.3697  -48.8076 N.am      1 UNK        -0.5000 
      5 CA         -0.5331  -14.1132  -47.6145 C.3       1 UNK         0.1400 
      6 C6         -1.3941  -13.6575  -46.4040 C.3       23 UNK        -0.0398 
      7 S7         -2.6764  -12.4157  -46.8142 S.3       23 UNK        -0.2404 
      8 C8         -4.2090  -13.2318  -46.2576 C.3       23 UNK        -0.0205 
      9 C9         -4.4459  -14.5799  -46.9267 C.ar      23 UNK        -0.0193 
     10 C10        -4.8346  -14.6501  -48.2697 C.ar      23 UNK        -0.1150 
     11 C11        -5.0671  -15.8903  -48.8733 C.ar      23 UNK        -0.0193 
     12 C12        -4.9034  -17.0595  -48.1270 C.ar      23 UNK        -0.1150 
     13 C13        -4.5380  -17.0013  -46.7817 C.ar      23 UNK        -0.0193 
     14 C14        -4.3057  -15.7594  -46.1871 C.ar      23 UNK        -0.1150 
     15 C15        -4.4354  -18.2845  -45.9764 C.3       23 UNK        -0.0205 
     16 S16        -2.8855  -19.1569  -46.3355 S.3       23 UNK        -0.2404 
     17 C17        -3.4063  -20.8744  -46.0576 C.3       23 UNK        -0.0398 
     18 CA         -2.2328  -21.8722  -46.2149 C.3       11 UNK         0.1400 
     19 N          -1.2361  -21.7134  -45.1468 N.am      11 UNK        -0.5000 
     20 C           0.0225  -22.1755  -45.1620 C.2       10 UNK         0.5000 
     21 O           0.4904  -22.8211  -46.1008 O.2       10 UNK        -0.5000 
     22 CA          0.9138  -21.8833  -43.9391 C.3       10 UNK         0.1400 
     23 CB          2.3432  -21.4995  -44.3622 C.3       10 UNK        -0.1800 
     24 N           0.3788  -20.8108  -43.1005 N.am      10 UNK        -0.5000 
     25 C          -0.0868  -20.9553  -41.8528 C.2       9 UNK         0.5000 
     26 O          -0.2070  -22.0475  -41.2966 O.2       9 UNK        -0.5000 
     27 CA         -0.4644  -19.6762  -41.0742 C.3       9 UNK         0.1400 
     28 CB          0.5572  -19.4134  -39.9565 C.3       9 UNK        -0.1800 
     29 N          -0.5543  -18.4788  -41.9106 N.am      9 UNK        -0.5000 
     30 C          -1.5494  -18.2182  -42.7680 C.2       8 UNK         0.5000 
     31 O          -2.5410  -18.9359  -42.8957 O.2       8 UNK        -0.5000 
     32 CA         -1.3849  -16.9675  -43.6551 C.3       8 UNK         0.1400 
     33 CB         -1.9512  -15.7303  -42.9442 C.3       8 UNK        -0.1800 
     34 N           0.0025  -16.7134  -44.0591 N.am      8 UNK        -0.5000 
     35 C           0.7629  -17.5617  -44.7694 C.2       7 UNK         0.5000 
     36 O           0.3823  -18.6668  -45.1487 O.2       7 UNK        -0.5000 
     37 CA          2.2062  -17.1312  -45.0691 C.3       7 UNK         0.1400 
     38 CB          2.2673  -16.2033  -46.2891 C.3       7 UNK        -0.1800 
     39 N           2.8156  -16.4777  -43.9135 N.am      7 UNK        -0.5000 
     40 C           3.4043  -17.1391  -42.9077 C.2       6 UNK         0.5000 
     41 O           3.5681  -18.3590  -42.8921 O.2       6 UNK        -0.5000 
     42 CA          3.8703  -16.3010  -41.7030 C.3       6 UNK         0.1400 
     43 CB          5.3225  -15.8391  -41.8950 C.3       6 UNK        -0.1800 
     44 N           3.0188  -15.1371  -41.4511 N.am      6 UNK        -0.5000 
     45 C           1.7487  -15.2100  -41.0269 C.2       5 UNK         0.5000 
     46 O           1.1613  -16.2693  -40.8080 O.2       5 UNK        -0.5000 
     47 CA          0.9911  -13.8790  -40.8591 C.3       5 UNK         0.1400 
     48 CB          1.2044  -13.3171  -39.4459 C.3       5 UNK        -0.1800 
     49 N           1.3485  -12.8538  -41.8426 N.am      5 UNK        -0.5000 
     50 C           1.2823  -12.9875  -43.1742 C.2       4 UNK         0.5000 
     51 O           0.9416  -14.0299  -43.7391 O.2       4 UNK        -0.5000 
     52 CA          1.6869  -11.7726  -44.0334 C.3       4 UNK         0.1400 
     53 CB          2.1671  -10.5448  -43.2267 C.3       4 UNK        -0.1800 
     54 N           2.6794  -12.1489  -45.0421 N.am      4 UNK        -0.5000 
     55 C           3.8938  -12.6779  -44.8232 C.2       3 UNK         0.5000 
     56 O           4.3476  -12.8899  -43.6974 O.2       3 UNK        -0.5000 
     57 CA          4.7297  -13.0573  -46.0632 C.3       3 UNK         0.1400 
     58 CB          5.5954  -14.3053  -45.8091 C.3       3 UNK        -0.1800 
     59 N           3.8791  -13.2896  -47.2348 N.am      3 UNK        -0.5000 
     60 C           3.7231  -12.4411  -48.2590 C.2       2 UNK         0.5000 
     61 O           4.3297  -11.3751  -48.3667 O.2       2 UNK        -0.5000 
     62 CA          2.6905  -12.8364  -49.3339 C.3       2 UNK         0.1400 
     63 CB          3.3633  -13.6456  -50.4526 C.3       2 UNK        -0.1800 
     64 N           1.5424  -13.5949  -48.8251 N.am      2 UNK        -0.5000 
     65 C           0.6531  -13.1647  -47.9198 C.2       1 UNK         0.5000 
     66 O           0.7514  -12.0780  -47.3483 O.2       1 UNK        -0.5000 
     67 C          -2.7417  -23.3280  -46.3366 C.2       11 UNK         0.5000 
     68 O          -3.9134  -23.6053  -46.0719 O.2       11 UNK        -0.5000 
     69 N          -1.8517  -24.2382  -46.7443 N.am      12 UNK        -0.5000 
     70 CA         -2.1527  -25.6178  -47.1101 C.3       12 UNK         0.1400 
     71 CB         -0.8459  -26.4301  -47.1015 C.3       12 UNK        -0.1800 
     72 C          -2.8431  -25.6525  -48.4856 C.2       12 UNK         0.5000 
     73 O          -2.1648  -25.7398  -49.5083 O.2       12 UNK        -0.5000 
     74 N          -4.1795  -25.5634  -48.4881 N.am      13 UNK        -0.5000 
     75 CA         -5.0286  -25.4851  -49.6840 C.3       13 UNK         0.1400 
     76 CB         -6.4824  -25.2626  -49.2400 C.3       13 UNK        -0.1800 
     77 C          -4.9411  -26.7063  -50.6244 C.2       13 UNK         0.5000 
     78 O          -5.2758  -26.5878  -51.8028 O.2       13 UNK        -0.5000 
     79 N          -4.4954  -27.8529  -50.0920 N.am      14 UNK        -0.5000 
     80 CA         -4.2098  -29.0736  -50.8483 C.3       14 UNK         0.1400 
     81 CB         -4.1542  -30.2567  -49.8691 C.3       14 UNK        -0.1800 
     82 C          -2.9035  -28.9904  -51.6671 C.2       14 UNK         0.5000 
     83 O          -2.7287  -29.7759  -52.6000 O.2       14 UNK        -0.5000 
     84 N          -2.0143  -28.0576  -51.3052 N.am      15 UNK        -0.5000 
     85 CA         -0.7756  -27.7371  -52.0072 C.3       15 UNK         0.1400 
     86 CB          0.3541  -27.6311  -50.9647 C.3       15 UNK        -0.1800 
     87 C          -0.9517  -26.4208  -52.7892 C.2       15 UNK         0.5000 
     88 O          -2.0545  -25.8772  -52.8580 O.2       15 UNK        -0.5000 
     89 N           0.1457  -25.9163  -53.3659 N.am      16 UNK        -0.5000 
     90 CA          0.1898  -24.6415  -54.0897 C.3       16 UNK         0.1400 
     91 CB          1.3940  -24.6631  -55.0446 C.3       16 UNK        -0.1800 
     92 C           0.2551  -23.4055  -53.1659 C.2       16 UNK         0.5000 
     93 O           0.1780  -22.2820  -53.6659 O.2       16 UNK        -0.5000 
     94 N           0.4132  -23.6207  -51.8515 N.am      17 UNK        -0.5000 
     95 CA          0.5828  -22.5990  -50.8169 C.3       17 UNK         0.1400 
     96 CB          0.6865  -23.2865  -49.4498 C.3       17 UNK        -0.1800 
     97 C          -0.5418  -21.5471  -50.8051 C.2       17 UNK         0.5000 
     98 O          -1.7206  -21.9093  -50.7994 O.2       17 UNK        -0.5000 
     99 N          -0.1455  -20.2660  -50.8259 N.am      18 UNK        -0.5000 
    100 CA        -1.0095  -19.0800  -50.8875 C.3       18 UNK         0.1400 
    101 CB        -1.7808  -18.9113  -49.5648 C.3       18 UNK        -0.1800 
    102 C         -1.9302  -19.0729  -52.1262 C.2       18 UNK         0.5000 
    103 O         -3.1008  -18.7017  -52.0240 O.2       18 UNK        -0.5000 
    104 N         -1.3846  -19.5304  -53.2645 N.am      19 UNK        -0.5000 
    105 CA        -2.0696  -19.7716  -54.5398 C.3       19 UNK         0.1400 
    106 CB        -2.5767  -18.4490  -55.1541 C.3       19 UNK        -0.1800 
    107 C         -3.1750  -20.8398  -54.4057 C.2       19 UNK         0.5000 
    108 O         -4.2702  -20.6676  -54.9383 O.2       19 UNK        -0.5000 
    109 N         -2.8739  -21.9065  -53.6519 N.am      20 UNK        -0.5000 
    110 CA        -3.7861  -22.9723  -53.2203 C.3       20 UNK         0.1400 
    111 CB        -4.2103  -23.8494  -54.4162 C.3       20 UNK        -0.1800 
    112 C         -4.9787  -22.4148  -52.4149 C.2       20 UNK         0.5000 
    113 O         -6.1277  -22.7810  -52.6662 O.2       20 UNK        -0.5000 
    114 N         -4.6590  -21.5111  -51.4773 N.am      21 UNK        -0.5000 
    115 CA        -5.5687  -20.7084  -50.6586 C.3       21 UNK         0.1400 
    116 CB        -6.3142  -21.5938  -49.6409 C.3       21 UNK        -0.1800 
    117 C         -6.5078  -19.8215  -51.5072 C.2       21 UNK         0.5000 
    118 O         -7.7202  -20.0426  -51.5398 O.2       21 UNK        -0.5000 
    119 N         -5.9102  -18.8128  -52.1527 N.am      22 UNK        -0.5000 
    120 CA        -6.5664  -17.7183  -52.8948 C.3       22 UNK         0.1400 
    121 C         -7.1073  -18.1066  -54.3057 C.2       22 UNK         0.5000 
    122 N         -6.6617  -19.1878  -54.9278 N.am      22 UNK        -0.7600 
    123 O         -7.9404  -17.4016  -54.8701 O.2       22 UNK        -0.5000 
    124 C124       -7.6450  -16.9356  -52.0792 C.3       23 UNK        -0.0398 
    125 S125       -7.2884  -16.4994  -50.3401 S.3       23 UNK        -0.2404 
    126 C126       -5.5407  -15.9912  -50.3136 C.3       23 UNK        -0.0205 
    127 H127       -2.4611  -16.1871  -51.0730 H         1 UNK         0.0600 
    128 H128       -1.4896  -15.0000  -51.9450 H         1 UNK         0.0600 
    129 H129       -2.8022  -14.4658  -50.8933 H         1 UNK         0.0600 
    130 H130       -2.2214  -13.8632  -48.8249 H         1 UNK         0.3000 
    131 H131       -0.0909  -15.0663  -47.3255 H         1 UNK         0.0600 
    132 H132       -1.8688  -14.5358  -45.9706 H         1 UNK         0.0800 
    133 H133       -0.7736  -13.2610  -45.6005 H         1 UNK         0.0800 
    134 H134       -4.1757  -13.3408  -45.1724 H         1 UNK         0.0800 
    135 H135       -5.0537  -12.5749  -46.4694 H         1 UNK         0.0800 
    136 H136       -4.9676  -13.7397  -48.8372 H         1 UNK         0.1150 
    137 H137       -5.0919  -18.0186  -48.5880 H         1 UNK         0.1150 
    138 H138       -4.0272  -15.7109  -45.1443 H         1 UNK         0.1150 
    139 H139       -4.4930  -18.0812  -44.9059 H         1 UNK         0.0800 
    140 H140       -5.2886  -18.9209  -46.2157 H         1 UNK         0.0800 
    141 H141       -4.1945  -21.0871  -46.7828 H         1 UNK         0.0800 
    142 H142       -3.8590  -20.9593  -45.0680 H         1 UNK         0.0800 
    143 H143       -1.7396  -21.6459  -47.1636 H         1 UNK         0.0600 
    144 H144       -1.5301  -21.1727  -44.3461 H         1 UNK         0.3000 
    145 H145        0.9744  -22.8146  -43.3732 H         1 UNK         0.0600 
    146 H146        2.9685  -21.2901  -43.4940 H         1 UNK         0.0600 
    147 H147        2.3497  -20.6137  -44.9980 H         1 UNK         0.0600 
    148 H148        2.8220  -22.3067  -44.9176 H         1 UNK         0.0600 
    149 H149        0.3893  -19.8883  -43.5227 H         1 UNK         0.3000 
    150 H150       -1.4385  -19.8503  -40.6127 H         1 UNK         0.0600 
    151 H151        0.6428  -20.2721  -39.2894 H         1 UNK         0.0600 
    152 H152        0.2629  -18.5586  -39.3471 H         1 UNK         0.0600 
    153 H153        1.5495  -19.2094  -40.3615 H         1 UNK         0.0600 
    154 H154        0.1953  -17.8018  -41.8133 H         1 UNK         0.3000 
    155 H155       -1.9604  -17.1211  -44.5672 H         1 UNK         0.0600 
    156 H156       -3.0183  -15.8485  -42.7529 H         1 UNK         0.0600 
    157 H157       -1.8247  -14.8278  -43.5415 H         1 UNK         0.0600 
    158 H158       -1.4660  -15.5694  -41.9827 H         1 UNK         0.0600 
    159 H159        0.3866  -15.8051  -43.8115 H         1 UNK         0.3000 
    160 H160        2.7704  -18.0330  -45.3170 H         1 UNK         0.0600 
    161 H161        1.8878  -15.2101  -46.0521 H         1 UNK         0.0600 
    162 H162        1.6814  -16.6052  -47.1171 H         1 UNK         0.0600 
    163 H163        3.2897  -16.1046  -46.6495 H         1 UNK         0.0600 
    164 H164        2.6585  -15.4838  -43.8110 H         1 UNK         0.3000 
    165 H165        3.8320  -16.9433  -40.8205 H         1 UNK         0.0600 
    166 H166        5.6819  -15.2922  -41.0233 H         1 UNK         0.0600 
    167 H167        5.9867  -16.6920  -42.0402 H         1 UNK         0.0600 
    168 H168        5.4281  -15.1909  -42.7651 H         1 UNK         0.0600 
    169 H169        3.4149  -14.2288  -41.6524 H         1 UNK         0.3000 
    170 H170       -0.0723  -14.0859  -40.9796 H         1 UNK         0.0600 
    171 H171        2.2470  -13.0473  -39.2729 H         1 UNK         0.0600 
    172 H172        0.5946  -12.4293  -39.2772 H         1 UNK         0.0600 
    173 H173        0.9246  -14.0500  -38.6877 H         1 UNK         0.0600 
    174 H174        1.6641  -11.9700  -41.4705 H         1 UNK         0.3000 
    175 H175        0.7898  -11.4775  -44.5791 H         1 UNK         0.0600 
    176 H176        3.0516  -10.7626  -42.6270 H         1 UNK         0.0600 
    177 H177        2.4192   -9.7198  -43.8932 H         1 UNK         0.0600 
    178 H178        1.3873  -10.1820  -42.5560 H         1 UNK         0.0600 
    179 H179        2.3642  -12.0487  -46.0001 H         1 UNK         0.3000 
    180 H180        5.4064  -12.2214  -46.2508 H         1 UNK         0.0600 
    181 H181        6.1198  -14.6153  -46.7131 H         1 UNK         0.0600 
    182 H182        5.0040  -15.1489  -45.4551 H         1 UNK         0.0600 
    183 H183        6.3533  -14.1036  -45.0513 H         1 UNK         0.0600 
    184 H184        3.3295  -14.1355  -47.2333 H         1 UNK         0.3000 
    185 H185        2.3037  -11.9119  -49.7676 H         1 UNK         0.0600 
    186 H186        2.6664  -13.8487  -51.2662 H         1 UNK         0.0600 
    187 H187        4.2075  -13.1007  -50.8773 H         1 UNK         0.0600 
    188 H188        3.7391  -14.6018  -50.0865 H         1 UNK         0.0600 
    189 H189        1.3462  -14.4838  -49.2774 H         1 UNK         0.3000 
    190 H190       -0.8922  -23.9287  -46.8696 H         1 UNK         0.3000 
    191 H191       -2.8258  -26.0508  -46.3671 H         1 UNK         0.0600 
    192 H192       -0.4058  -26.4543  -46.1045 H         1 UNK         0.0600 
    193 H193       -0.1028  -26.0124  -47.7822 H         1 UNK         0.0600 
    194 H194       -1.0251  -27.4625  -47.4043 H         1 UNK         0.0600 
    195 H195       -4.6486  -25.4444  -47.6003 H         1 UNK         0.3000 
    196 H196       -4.7053  -24.6125  -50.2551 H         1 UNK         0.0600 
    197 H197       -6.5734  -24.3888  -48.5952 H         1 UNK         0.0600 
    198 H198       -6.8705  -26.1224  -48.6926 H         1 UNK         0.0600 
    199 H199       -7.1318  -25.0993  -50.1012 H         1 UNK         0.0600 
    200 H200       -4.2641  -27.8630  -49.1099 H         1 UNK         0.3000 
    201 H201       -5.0281  -29.2483  -51.5500 H         1 UNK         0.0600 
    202 H202       -5.0941  -30.3658  -49.3276 H         1 UNK         0.0600 
    203 H203       -3.3552  -30.1354  -49.1365 H         1 UNK         0.0600 
    204 H204       -3.9750  -31.1937  -50.3979 H         1 UNK         0.0600 
    205 H205       -2.2796  -27.3808  -50.5964 H         1 UNK         0.3000 
    206 H206       -0.5230  -28.5230  -52.7214 H         1 UNK         0.0600 
    207 H207        0.2067  -26.7857  -50.2917 H         1 UNK         0.0600 
    208 H208        0.4094  -28.5329  -50.3545 H         1 UNK         0.0600 
    209 H209        1.3278  -27.5093  -51.4396 H         1 UNK         0.0600 
    210 H210        1.0199  -26.4153  -53.2830 H         1 UNK         0.3000 
    211 H211       -0.7163  -24.5449  -54.6917 H         1 UNK         0.0600 
    212 H212        2.3363  -24.7503  -54.5024 H         1 UNK         0.0600 
    213 H213        1.4407  -23.7494  -55.6388 H         1 UNK         0.0600 
    214 H214        1.3288  -25.4978  -55.7429 H         1 UNK         0.0600 
    215 H215        0.4155  -24.5773  -51.5333 H         1 UNK         0.3000 
    216 H216        1.5316  -22.0978  -51.0178 H         1 UNK         0.0600 
    217 H217        0.8752  -22.5522  -48.6667 H         1 UNK         0.0600 
    218 H218        1.5044  -24.0066  -49.4236 H         1 UNK         0.0600 
    219 H219       -0.2340  -23.8121  -49.1956 H         1 UNK         0.0600 
    220 H220        0.8466  -20.0738  -50.8362 H         1 UNK         0.3000 
    221 H221       -0.3491  -18.2197  -50.9989 H         1 UNK         0.0600 
    222 H222       -2.4716  -19.7355  -49.3869 H         1 UNK         0.0600 
    223 H223       -1.0928  -18.8615  -48.7210 H         1 UNK         0.0600 
    224 H224       -2.3652  -17.9918  -49.5539 H         1 UNK         0.0600 
    225 H225       -0.4290  -19.8594  -53.2264 H         1 UNK         0.3000 
    226 H226       -1.3229  -20.1875  -55.2178 H         1 UNK         0.0600 
    227 H227       -1.7745  -17.7150  -55.2277 H         1 UNK         0.0600 
    228 H228       -2.9617  -18.6110  -56.1615 H         1 UNK         0.0600 
    229 H229       -3.3827  -18.0077  -54.5671 H         1 UNK         0.0600 
    230 H230       -1.9483  -21.9360  -53.2421 H         1 UNK         0.3000 
    231 H231       -3.2224  -23.5972  -52.5275 H         1 UNK         0.0600 
    232 H232       -4.7831  -24.7130  -54.0761 H         1 UNK         0.0600 
    233 H233       -3.3409  -24.2307  -54.9513 H         1 UNK         0.0600 
    234 H234       -4.8308  -23.3015  -55.1257 H         1 UNK         0.0600 
    235 H235       -3.6714  -21.3182  -51.3477 H         1 UNK         0.3000 
    236 H236       -4.9365  -20.0285  -50.0855 H         1 UNK         0.0600 
    237 H237       -6.9670  -22.3168  -50.1304 H         1 UNK         0.0600 
    238 H238       -5.6124  -22.1427  -49.0128 H         1 UNK         0.0600 
    239 H239       -6.9352  -20.9870  -48.9810 H         1 UNK         0.0600 
    240 H240       -4.8934  -18.7542  -52.1068 H         1 UNK         0.3000 
    241 H241       -5.7623  -17.0133  -53.1064 H         1 UNK         0.0600 
    242 H242       -5.8960  -19.7467  -54.5631 H         1 UNK         0.3800 
    243 H243       -7.0287  -19.4077  -55.8391 H         1 UNK         0.3800 
    244 H244       -8.5761  -17.5047  -52.0665 H         1 UNK         0.0800 
    245 H245       -7.8833  -16.0033  -52.5937 H         1 UNK         0.0800 
    246 H246       -5.4282  -15.0395  -50.8346 H         1 UNK         0.0800 
    247 H247       -4.9145  -16.7142  -50.8344 H         1 UNK         0.0800 
@<TRIPOS>BOND
     1    1    2 1    
     2    1  127 1    
     3    1  128 1    
     4    1  129 1    
     5    2    3 2    
     6    2    4 am   BACKBONE|DICT|INTERRES
     7    4    5 1    
     8    4  130 1    
     9    5    6 1    
    10    5   65 1    
    11    5  131 1    
    12    6    7 1    
    13    6  132 1    
    14    6  133 1    
    15    7    8 1    
    16    8    9 1    
    17    8  134 1    
    18    8  135 1    
    19    9   10 ar   
    20    9   14 ar   
    21   10   11 ar   
    22   10  136 1    
    23   11   12 ar   
    24   11  126 1    
    25   12   13 ar   
    26   12  137 1    
    27   13   14 ar   
    28   13   15 1    
    29   14  138 1    
    30   15   16 1    
    31   15  139 1    
    32   15  140 1    
    33   16   17 1    
    34   17   18 1    
    35   17  141 1    
    36   17  142 1    
    37   18   19 1    
    38   18   67 1    
    39   18  143 1    
    40   19   20 am   BACKBONE|DICT|INTERRES
    41   19  144 1    
    42   20   21 2    
    43   20   22 1    
    44   22   23 1    
    45   22   24 1    
    46   22  145 1    
    47   23  146 1    
    48   23  147 1    
    49   23  148 1    
    50   24   25 am   BACKBONE|DICT|INTERRES
    51   24  149 1    
    52   25   26 2    
    53   25   27 1    
    54   27   28 1    
    55   27   29 1    
    56   27  150 1    
    57   28  151 1    
    58   28  152 1    
    59   28  153 1    
    60   29   30 am   BACKBONE|DICT|INTERRES
    61   29  154 1    
    62   30   31 2    
    63   30   32 1    
    64   32   33 1    
    65   32   34 1    
    66   32  155 1    
    67   33  156 1    
    68   33  157 1    
    69   33  158 1    
    70   34   35 am   BACKBONE|DICT|INTERRES
    71   34  159 1    
    72   35   36 2    
    73   35   37 1    
    74   37   38 1    
    75   37   39 1    
    76   37  160 1    
    77   38  161 1    
    78   38  162 1    
    79   38  163 1    
    80   39   40 am   BACKBONE|DICT|INTERRES
    81   39  164 1    
    82   40   41 2    
    83   40   42 1    
    84   42   43 1    
    85   42   44 1    
    86   42  165 1    
    87   43  166 1    
    88   43  167 1    
    89   43  168 1    
    90   44   45 am   BACKBONE|DICT|INTERRES
    91   44  169 1    
    92   45   46 2    
    93   45   47 1    
    94   47   48 1    
    95   47   49 1    
    96   47  170 1    
    97   48  171 1    
    98   48  172 1    
    99   48  173 1    
   100   49   50 am   BACKBONE|DICT|INTERRES
   101   49  174 1    
   102   50   51 2    
   103   50   52 1    
   104   52   53 1    
   105   52   54 1    
   106   52  175 1    
   107   53  176 1    
   108   53  177 1    
   109   53  178 1    
   110   54   55 am   BACKBONE|DICT|INTERRES
   111   54  179 1    
   112   55   56 2    
   113   55   57 1    
   114   57   58 1    
   115   57   59 1    
   116   57  180 1    
   117   58  181 1    
   118   58  182 1    
   119   58  183 1    
   120   59   60 am   BACKBONE|DICT|INTERRES
   121   59  184 1    
   122   60   61 2    
   123   60   62 1    
   124   62   63 1    
   125   62   64 1    
   126   62  185 1    
   127   63  186 1    
   128   63  187 1    
   129   63  188 1    
   130   64   65 am   BACKBONE|DICT|INTERRES
   131   64  189 1    
   132   65   66 2    
   133   67   68 2    
   134   67   69 am   BACKBONE|DICT|INTERRES
   135   69   70 1    
   136   69  190 1    
   137   70   71 1    
   138   70   72 1    
   139   70  191 1    
   140   71  192 1    
   141   71  193 1    
   142   71  194 1    
   143   72   73 2    
   144   72   74 am   BACKBONE|DICT|INTERRES
   145   74   75 1    
   146   74  195 1    
   147   75   76 1    
   148   75   77 1    
   149   75  196 1    
   150   76  197 1    
   151   76  198 1    
   152   76  199 1    
   153   77   78 2    
   154   77   79 am   BACKBONE|DICT|INTERRES
   155   79   80 1    
   156   79  200 1    
   157   80   81 1    
   158   80   82 1    
   159   80  201 1    
   160   81  202 1    
   161   81  203 1    
   162   81  204 1    
   163   82   83 2    
   164   82   84 am   BACKBONE|DICT|INTERRES
   165   84   85 1    
   166   84  205 1    
   167   85   86 1    
   168   85   87 1    
   169   85  206 1    
   170   86  207 1    
   171   86  208 1    
   172   86  209 1    
   173   87   88 2    
   174   87   89 am   BACKBONE|DICT|INTERRES
   175   89   90 1    
   176   89  210 1    
   177   90   91 1    
   178   90   92 1    
   179   90  211 1    
   180   91  212 1    
   181   91  213 1    
   182   91  214 1    
   183   92   93 2    
   184   92   94 am   BACKBONE|DICT|INTERRES
   185   94   95 1    
   186   94  215 1    
   187   95   96 1    
   188   95   97 1    
   189   95  216 1    
   190   96  217 1    
   191   96  218 1    
   192   96  219 1    
   193   97   98 2    
   194   97   99 am   BACKBONE|DICT|INTERRES
   195   99  100 1    
   196   99  220 1    
   197  100  101 1    
   198  100  102 1    
   199  100  221 1    
   200  101  222 1    
   201  101  223 1    
   202  101  224 1    
   203  102  103 2    
   204  102  104 am   BACKBONE|DICT|INTERRES
   205  104  105 1    
   206  104  225 1    
   207  105  106 1    
   208  105  107 1    
   209  105  226 1    
   210  106  227 1    
   211  106  228 1    
   212  106  229 1    
   213  107  108 2    
   214  107  109 am   BACKBONE|DICT|INTERRES
   215  109  110 1    
   216  109  230 1    
   217  110  111 1    
   218  110  112 1    
   219  110  231 1    
   220  111  232 1    
   221  111  233 1    
   222  111  234 1    
   223  112  113 2    
   224  112  114 am   BACKBONE|DICT|INTERRES
   225  114  115 1    
   226  114  235 1    
   227  115  116 1    
   228  115  117 1    
   229  115  236 1    
   230  116  237 1    
   231  116  238 1    
   232  116  239 1    
   233  117  118 2    
   234  117  119 am   BACKBONE|DICT|INTERRES
   235  119  120 1    
   236  119  240 1    
   237  120  121 1    
   238  120  124 1    
   239  120  241 1    
   240  121  122 am   BACKBONE|DICT|INTERRES
   241  121  123 2    
   242  122  242 1    
   243  122  243 1    
   244  124  125 1    
   245  124  244 1    
   246  124  245 1    
   247  125  126 1    
   248  126  246 1    
   249  126  247 1    
@<TRIPOS>SUBSTRUCTURE
     1 UNK         1 GROUP             0       ****    0 ROOT    
