@<TRIPOS>MOLECULE
3R540
247   249    1
SMALL
USER_CHARGES


@<TRIPOS>ATOM
      1 CA          5.2484  -10.2042  -48.3105 C.3       0 UNK        -0.1800 
      2 C           4.2359  -11.3290  -48.1454 C.2       0 UNK         0.5000 
      3 O           3.6441  -11.4677  -47.0745 O.2       0 UNK        -0.5000 
      4 N           4.0432  -12.1355  -49.1960 N.am      1 UNK        -0.5000 
      5 CA          3.0751  -13.2347  -49.2413 C.3       1 UNK         0.1400 
      6 C6          3.3213  -14.1700  -50.4526 C.3       23 UNK        -0.0398 
      7 S7          4.8062  -15.2105  -50.2441 S.3       23 UNK        -0.2404 
      8 C8          4.2213  -16.4924  -49.0837 C.3       23 UNK        -0.0205 
      9 C9          3.3104  -17.5221  -49.7366 C.ar      23 UNK        -0.0193 
     10 C10         1.9314  -17.2995  -49.8097 C.ar      23 UNK        -0.1150 
     11 C11         1.0844  -18.2524  -50.3785 C.ar      23 UNK        -0.0193 
     12 C12         1.6259  -19.4494  -50.8485 C.ar      23 UNK        -0.1150 
     13 C13         2.9963  -19.7024  -50.7568 C.ar      23 UNK        -0.0193 
     14 C14         3.8380  -18.7264  -50.2153 C.ar      23 UNK        -0.1150 
     15 C15         3.5500  -21.0443  -51.2197 C.3       23 UNK        -0.0205 
     16 S16         3.7079  -22.2467  -49.8527 S.3       23 UNK        -0.2404 
     17 C17         1.9857  -22.3446  -49.2489 C.3       23 UNK        -0.0398 
     18 CA          1.7612  -23.2588  -48.0151 C.3       11 UNK         0.1400 
     19 N           2.7716  -23.0414  -46.9663 N.am      11 UNK        -0.5000 
     20 C           3.0843  -23.9045  -45.9915 C.2       10 UNK         0.5000 
     21 O           2.5055  -24.9808  -45.8457 O.2       10 UNK        -0.5000 
     22 CA          4.2014  -23.5129  -44.9969 C.3       10 UNK         0.1400 
     23 CB          5.3079  -24.5807  -44.9926 C.3       10 UNK        -0.1800 
     24 N           4.8308  -22.2123  -45.2591 N.am      10 UNK        -0.5000 
     25 C           4.4289  -20.9879  -44.8840 C.2       9 UNK         0.5000 
     26 O           5.1302  -19.9993  -45.0991 O.2       9 UNK        -0.5000 
     27 CA          3.0753  -20.7965  -44.1550 C.3       9 UNK         0.1400 
     28 CB          3.3003  -20.6293  -42.6450 C.3       9 UNK        -0.1800 
     29 N           2.2983  -19.6572  -44.6564 N.am      9 UNK        -0.5000 
     30 C           1.9834  -19.4408  -45.9430 C.2       8 UNK         0.5000 
     31 O           2.3330  -20.1787  -46.8602 O.2       8 UNK        -0.5000 
     32 CA          1.0910  -18.2371  -46.2791 C.3       8 UNK         0.1400 
     33 CB         -0.3640  -18.6998  -46.4498 C.3       8 UNK        -0.1800 
     34 N           1.1456  -17.1495  -45.3067 N.am      8 UNK        -0.5000 
     35 C           2.1926  -16.3345  -45.1221 C.2       7 UNK         0.5000 
     36 O           3.2748  -16.4624  -45.6930 O.2       7 UNK        -0.5000 
     37 CA          1.9921  -15.1705  -44.1390 C.3       7 UNK         0.1400 
     38 CB          1.2832  -13.9982  -44.8362 C.3       7 UNK        -0.1800 
     39 N           1.2045  -15.5897  -42.9813 N.am      7 UNK        -0.5000 
     40 C           1.7238  -16.0428  -41.8329 C.2       6 UNK         0.5000 
     41 O           2.9322  -16.0914  -41.6005 O.2       6 UNK        -0.5000 
     42 CA          0.7314  -16.5280  -40.7563 C.3       6 UNK         0.1400 
     43 CB          0.4030  -15.3902  -39.7777 C.3       6 UNK        -0.1800 
     44 N          -0.5185  -17.0593  -41.3035 N.am      6 UNK        -0.5000 
     45 C          -0.6153  -18.1804  -42.0304 C.2       5 UNK         0.5000 
     46 O           0.3423  -18.9001  -42.3112 O.2       5 UNK        -0.5000 
     47 CA         -2.0119  -18.5328  -42.5773 C.3       5 UNK         0.1400 
     48 CB         -2.7880  -19.3863  -41.5637 C.3       5 UNK        -0.1800 
     49 N          -2.8373  -17.3879  -42.9832 N.am      5 UNK        -0.5000 
     50 C          -2.4668  -16.4375  -43.8517 C.2       4 UNK         0.5000 
     51 O          -1.3171  -16.3023  -44.2713 O.2       4 UNK        -0.5000 
     52 CA         -3.5540  -15.4647  -44.3382 C.3       4 UNK         0.1400 
     53 CB         -3.3832  -14.0926  -43.6691 C.3       4 UNK        -0.1800 
     54 N          -3.4833  -15.3006  -45.7907 N.am      4 UNK        -0.5000 
     55 C          -3.6914  -16.2807  -46.6824 C.2       3 UNK         0.5000 
     56 O          -4.0999  -17.4010  -46.3754 O.2       3 UNK        -0.5000 
     57 CA         -3.4066  -15.9677  -48.1655 C.3       3 UNK         0.1400 
     58 CB         -4.7168  -15.8933  -48.9634 C.3       3 UNK        -0.1800 
     59 N          -2.6444  -14.7338  -48.3868 N.am      3 UNK        -0.5000 
     60 C          -1.3307  -14.6068  -48.1637 C.2       2 UNK         0.5000 
     61 O          -0.6215  -15.5023  -47.6997 O.2       2 UNK        -0.5000 
     62 CA         -0.6997  -13.2535  -48.5190 C.3       2 UNK         0.1400 
     63 CB         -1.0491  -12.1771  -47.4754 C.3       2 UNK        -0.1800 
     64 N           0.7421  -13.4498  -48.5750 N.am      2 UNK        -0.5000 
     65 C           1.6241  -12.7121  -49.2529 C.2       1 UNK         0.5000 
     66 O           1.3321  -11.6993  -49.8938 O.2       1 UNK        -0.5000 
     67 C           0.3070  -23.0710  -47.5096 C.2       11 UNK         0.5000 
     68 O          -0.6237  -23.1983  -48.3033 O.2       11 UNK        -0.5000 
     69 N           0.1341  -22.7348  -46.2228 N.am      12 UNK        -0.5000 
     70 CA         -1.1120  -22.3291  -45.5651 C.3       12 UNK         0.1400 
     71 CB         -0.7743  -21.8698  -44.1372 C.3       12 UNK        -0.1800 
     72 C          -2.2407  -23.3782  -45.5210 C.2       12 UNK         0.5000 
     73 O          -3.3655  -23.0123  -45.1743 O.2       12 UNK        -0.5000 
     74 N          -1.9397  -24.6412  -45.8523 N.am      13 UNK        -0.5000 
     75 CA         -2.8640  -25.7786  -45.8615 C.3       13 UNK         0.1400 
     76 CB         -2.1411  -27.0008  -46.4468 C.3       13 UNK        -0.1800 
     77 C          -4.1692  -25.5046  -46.6363 C.2       13 UNK         0.5000 
     78 O          -4.1209  -24.9789  -47.7509 O.2       13 UNK        -0.5000 
     79 N          -5.3057  -25.8502  -46.0139 N.am      14 UNK        -0.5000 
     80 CA         -6.6750  -25.6427  -46.5031 C.3       14 UNK         0.1400 
     81 CB         -6.9642  -26.5662  -47.7054 C.3       14 UNK        -0.1800 
     82 C          -6.9943  -24.1586  -46.7906 C.2       14 UNK         0.5000 
     83 O          -7.6141  -23.8487  -47.8085 O.2       14 UNK        -0.5000 
     84 N          -6.5313  -23.2673  -45.8991 N.am      15 UNK        -0.5000 
     85 CA         -6.6149  -21.8032  -45.9919 C.3       15 UNK         0.1400 
     86 CB         -8.0767  -21.3254  -45.8630 C.3       15 UNK        -0.1800 
     87 C          -5.9157  -21.2748  -47.2603 C.2       15 UNK         0.5000 
     88 O          -6.5175  -20.5467  -48.0516 O.2       15 UNK        -0.5000 
     89 N          -4.6659  -21.7199  -47.4487 N.am      16 UNK        -0.5000 
     90 CA         -3.8139  -21.4952  -48.6193 C.3       16 UNK         0.1400 
     91 CB         -3.3768  -20.0175  -48.6951 C.3       16 UNK        -0.1800 
     92 C          -4.4705  -22.0040  -49.9187 C.2       16 UNK         0.5000 
     93 O          -4.5274  -21.2740  -50.9106 O.2       16 UNK        -0.5000 
     94 N          -4.9880  -23.2404  -49.8703 N.am      17 UNK        -0.5000 
     95 CA         -5.7622  -23.9199  -50.9158 C.3       17 UNK         0.1400 
     96 CB         -4.8477  -24.2980  -52.0994 C.3       17 UNK        -0.1800 
     97 C          -7.0071  -23.1156  -51.3517 C.2       17 UNK         0.5000 
     98 O          -7.2618  -22.9726  -52.5473 O.2       17 UNK        -0.5000 
     99 N          -7.7366  -22.5787  -50.3632 N.am      18 UNK        -0.5000 
    100 CA        -8.8442  -21.6268  -50.4919 C.3       18 UNK         0.1400 
    101 CB       -10.0713  -22.2928  -51.1486 C.3       18 UNK        -0.1800 
    102 C         -8.4066  -20.3189  -51.1881 C.2       18 UNK         0.5000 
    103 O         -9.0582  -19.8655  -52.1312 O.2       18 UNK        -0.5000 
    104 N         -7.2958  -19.7504  -50.6967 N.am      19 UNK        -0.5000 
    105 CA        -6.6263  -18.5312  -51.1595 C.3       19 UNK         0.1400 
    106 CB        -7.4854  -17.2920  -50.8322 C.3       19 UNK        -0.1800 
    107 C         -6.1862  -18.5913  -52.6390 C.2       19 UNK         0.5000 
    108 O         -6.3843  -17.6265  -53.3807 O.2       19 UNK        -0.5000 
    109 N         -5.5972  -19.7248  -53.0395 N.am      20 UNK        -0.5000 
    110 CA        -5.1311  -19.9892  -54.4031 C.3       20 UNK         0.1400 
    111 CB        -6.0329  -21.0512  -55.0497 C.3       20 UNK        -0.1800 
    112 C         -3.6605  -20.4370  -54.4593 C.2       20 UNK         0.5000 
    113 O         -3.0506  -20.3271  -55.5249 O.2       20 UNK        -0.5000 
    114 N         -3.0952  -20.9170  -53.3391 N.am      21 UNK        -0.5000 
    115 CA        -1.7289  -21.4516  -53.2626 C.3       21 UNK         0.1400 
    116 CB        -1.5008  -22.1043  -51.8896 C.3       21 UNK        -0.1800 
    117 C         -0.6256  -20.4140  -53.5407 C.2       21 UNK         0.5000 
    118 O          0.4911  -20.8036  -53.8833 O.2       21 UNK        -0.5000 
    119 N         -0.9505  -19.1235  -53.3831 N.am      22 UNK        -0.5000 
    120 CA        -0.0524  -17.9948  -53.6664 C.3       22 UNK         0.1400 
    121 C          0.2600  -17.8058  -55.1842 C.2       22 UNK         0.5000 
    122 N         -0.4834  -18.4131  -56.1040 N.am      22 UNK        -0.7600 
    123 O          1.1957  -17.0916  -55.5332 O.2       22 UNK        -0.5000 
    124 C124       -0.5771  -16.6587  -53.0737 C.3       23 UNK        -0.0398 
    125 S125       -0.9297  -16.5034  -51.2786 S.3       23 UNK        -0.2404 
    126 C126       -0.4203  -18.0302  -50.4165 C.3       23 UNK        -0.0205 
    127 H127        4.7638   -9.2391  -48.1632 H         1 UNK         0.0600 
    128 H128        6.0440  -10.3040  -47.5721 H         1 UNK         0.0600 
    129 H129        5.7023  -10.2090  -49.3019 H         1 UNK         0.0600 
    130 H130        4.5508  -11.9636  -50.0517 H         1 UNK         0.3000 
    131 H131        3.2003  -13.8100  -48.3222 H         1 UNK         0.0600 
    132 H132        2.4670  -14.8152  -50.6508 H         1 UNK         0.0800 
    133 H133        3.4433  -13.5809  -51.3631 H         1 UNK         0.0800 
    134 H134        5.0909  -16.9939  -48.6562 H         1 UNK         0.0800 
    135 H135        3.7093  -16.0288  -48.2417 H         1 UNK         0.0800 
    136 H136        1.5041  -16.3951  -49.4019 H         1 UNK         0.1150 
    137 H137        0.9758  -20.2100  -51.2522 H         1 UNK         0.1150 
    138 H138        4.8989  -18.9182  -50.1384 H         1 UNK         0.1150 
    139 H139        2.9126  -21.4667  -51.9986 H         1 UNK         0.0800 
    140 H140        4.5297  -20.8977  -51.6764 H         1 UNK         0.0800 
    141 H141        1.3585  -22.6730  -50.0793 H         1 UNK         0.0800 
    142 H142        1.6605  -21.3341  -49.0071 H         1 UNK         0.0800 
    143 H143        1.8480  -24.2939  -48.3512 H         1 UNK         0.0600 
    144 H144        3.2393  -22.1431  -47.0085 H         1 UNK         0.3000 
    145 H145        3.7611  -23.5024  -43.9985 H         1 UNK         0.0600 
    146 H146        5.7905  -24.6637  -45.9673 H         1 UNK         0.0600 
    147 H147        6.0774  -24.3492  -44.2557 H         1 UNK         0.0600 
    148 H148        4.9087  -25.5639  -44.7396 H         1 UNK         0.0600 
    149 H149        5.7048  -22.2698  -45.7608 H         1 UNK         0.3000 
    150 H150        2.4437  -21.6697  -44.3040 H         1 UNK         0.0600 
    151 H151        3.9024  -21.4456  -42.2440 H         1 UNK         0.0600 
    152 H152        2.3556  -20.6307  -42.1017 H         1 UNK         0.0600 
    153 H153        3.8173  -19.6960  -42.4181 H         1 UNK         0.0600 
    154 H154        1.9316  -19.0198  -43.9612 H         1 UNK         0.3000 
    155 H155        1.4317  -17.8385  -47.2336 H         1 UNK         0.0600 
    156 H156       -0.4368  -19.4804  -47.2080 H         1 UNK         0.0600 
    157 H157       -1.0098  -17.8821  -46.7651 H         1 UNK         0.0600 
    158 H158       -0.7688  -19.0986  -45.5215 H         1 UNK         0.0600 
    159 H159        0.2669  -16.9146  -44.8500 H         1 UNK         0.3000 
    160 H160        2.9764  -14.8241  -43.8167 H         1 UNK         0.0600 
    161 H161        0.2966  -14.2850  -45.2018 H         1 UNK         0.0600 
    162 H162        1.8607  -13.6451  -45.6917 H         1 UNK         0.0600 
    163 H163        1.1569  -13.1539  -44.1588 H         1 UNK         0.0600 
    164 H164        0.2026  -15.6515  -43.1237 H         1 UNK         0.3000 
    165 H165        1.2204  -17.3288  -40.1975 H         1 UNK         0.0600 
    166 H166       -0.2319  -15.7402  -38.9635 H         1 UNK         0.0600 
    167 H167        1.3116  -14.9864  -39.3289 H         1 UNK         0.0600 
    168 H168       -0.1108  -14.5670  -40.2759 H         1 UNK         0.0600 
    169 H169       -1.3561  -16.5214  -41.1369 H         1 UNK         0.3000 
    170 H170       -1.8587  -19.1374  -43.4714 H         1 UNK         0.0600 
    171 H171       -3.0317  -18.8199  -40.6641 H         1 UNK         0.0600 
    172 H172       -3.7195  -19.7578  -41.9912 H         1 UNK         0.0600 
    173 H173       -2.2051  -20.2561  -41.2568 H         1 UNK         0.0600 
    174 H174       -3.7983  -17.4076  -42.6740 H         1 UNK         0.3000 
    175 H175       -4.5381  -15.8636  -44.0840 H         1 UNK         0.0600 
    176 H176       -3.4474  -14.1765  -42.5835 H         1 UNK         0.0600 
    177 H177       -2.4166  -13.6459  -43.9073 H         1 UNK         0.0600 
    178 H178       -4.1612  -13.3985  -43.9876 H         1 UNK         0.0600 
    179 H179       -3.1178  -14.4244  -46.1295 H         1 UNK         0.3000 
    180 H180       -2.8247  -16.8046  -48.5572 H         1 UNK         0.0600 
    181 H181       -4.5224  -15.8068  -50.0327 H         1 UNK         0.0600 
    182 H182       -5.3269  -15.0421  -48.6594 H         1 UNK         0.0600 
    183 H183       -5.3143  -16.7933  -48.8137 H         1 UNK         0.0600 
    184 H184       -3.1576  -13.9525  -48.7685 H         1 UNK         0.3000 
    185 H185       -1.0621  -12.9510  -49.5037 H         1 UNK         0.0600 
    186 H186       -2.1255  -12.0107  -47.4262 H         1 UNK         0.0600 
    187 H187       -0.7139  -12.4592  -46.4771 H         1 UNK         0.0600 
    188 H188       -0.5865  -11.2217  -47.7233 H         1 UNK         0.0600 
    189 H189        1.0318  -14.3023  -48.1104 H         1 UNK         0.3000 
    190 H190        0.9682  -22.6701  -45.6622 H         1 UNK         0.3000 
    191 H191       -1.5086  -21.4750  -46.1163 H         1 UNK         0.0600 
    192 H192       -0.3039  -22.6666  -43.5600 H         1 UNK         0.0600 
    193 H193       -1.6710  -21.5643  -43.5968 H         1 UNK         0.0600 
    194 H194       -0.0983  -21.0166  -44.1414 H         1 UNK         0.0600 
    195 H195       -0.9963  -24.8297  -46.1561 H         1 UNK         0.3000 
    196 H196       -3.1141  -25.9936  -44.8209 H         1 UNK         0.0600 
    197 H197       -2.7917  -27.8764  -46.4501 H         1 UNK         0.0600 
    198 H198       -1.2570  -27.2559  -45.8621 H         1 UNK         0.0600 
    199 H199       -1.8244  -26.8230  -47.4755 H         1 UNK         0.0600 
    200 H200       -5.2375  -26.2682  -45.0961 H         1 UNK         0.3000 
    201 H201       -7.3424  -25.9411  -45.6935 H         1 UNK         0.0600 
    202 H202       -6.7789  -27.6099  -47.4521 H         1 UNK         0.0600 
    203 H203       -6.3451  -26.3178  -48.5671 H         1 UNK         0.0600 
    204 H204       -8.0064  -26.4902  -48.0177 H         1 UNK         0.0600 
    205 H205       -5.9839  -23.6195  -45.1257 H         1 UNK         0.3000 
    206 H206       -6.0588  -21.4030  -45.1427 H         1 UNK         0.0600 
    207 H207       -8.5336  -21.6983  -44.9465 H         1 UNK         0.0600 
    208 H208       -8.1273  -20.2364  -45.8318 H         1 UNK         0.0600 
    209 H209       -8.6904  -21.6550  -46.7018 H         1 UNK         0.0600 
    210 H210       -4.2808  -22.3308  -46.7344 H         1 UNK         0.3000 
    211 H211       -2.9212  -22.1005  -48.4732 H         1 UNK         0.0600 
    212 H212       -4.2226  -19.3496  -48.8564 H         1 UNK         0.0600 
    213 H213       -2.6748  -19.8585  -49.5119 H         1 UNK         0.0600 
    214 H214       -2.8830  -19.7067  -47.7749 H         1 UNK         0.0600 
    215 H215       -4.8413  -23.7798  -49.0196 H         1 UNK         0.3000 
    216 H216       -6.1331  -24.8447  -50.4733 H         1 UNK         0.0600 
    217 H217       -5.3799  -24.9200  -52.8198 H         1 UNK         0.0600 
    218 H218       -3.9795  -24.8638  -51.7617 H         1 UNK         0.0600 
    219 H219       -4.4892  -23.4175  -52.6326 H         1 UNK         0.0600 
    220 H220       -7.4822  -22.8166  -49.4075 H         1 UNK         0.3000 
    221 H221       -9.1256  -21.3521  -49.4741 H         1 UNK         0.0600 
    222 H222       -9.8830  -22.5598  -52.1887 H         1 UNK         0.0600 
    223 H223      -10.3584  -23.1993  -50.6159 H         1 UNK         0.0600 
    224 H224      -10.9310  -21.6221  -51.1349 H         1 UNK         0.0600 
    225 H225       -6.8665  -20.1929  -49.8870 H         1 UNK         0.3000 
    226 H226       -5.7061  -18.4568  -50.5799 H         1 UNK         0.0600 
    227 H227       -8.4157  -17.2826  -51.4007 H         1 UNK         0.0600 
    228 H228       -7.7396  -17.2586  -49.7727 H         1 UNK         0.0600 
    229 H229       -6.9505  -16.3707  -51.0654 H         1 UNK         0.0600 
    230 H230       -5.4471  -20.4543  -52.3476 H         1 UNK         0.3000 
    231 H231       -5.1977  -19.0815  -55.0061 H         1 UNK         0.0600 
    232 H232       -5.7892  -21.1794  -56.1050 H         1 UNK         0.0600 
    233 H233       -7.0846  -20.7703  -54.9882 H         1 UNK         0.0600 
    234 H234       -5.9153  -22.0221  -54.5687 H         1 UNK         0.0600 
    235 H235       -3.6457  -20.9773  -52.4862 H         1 UNK         0.3000 
    236 H236       -1.6371  -22.2287  -54.0242 H         1 UNK         0.0600 
    237 H237       -1.6026  -21.3845  -51.0778 H         1 UNK         0.0600 
    238 H238       -2.2054  -22.9159  -51.7134 H         1 UNK         0.0600 
    239 H239       -0.5000  -22.5323  -51.8208 H         1 UNK         0.0600 
    240 H240       -1.8927  -18.8932  -53.1070 H         1 UNK         0.3000 
    241 H241        0.9080  -18.2097  -53.1982 H         1 UNK         0.0600 
    242 H242       -0.2675  -18.2824  -57.0796 H         1 UNK         0.3800 
    243 H243       -1.2536  -19.0132  -55.8383 H         1 UNK         0.3800 
    244 H244       -1.4936  -16.3728  -53.5927 H         1 UNK         0.0800 
    245 H245        0.1372  -15.8641  -53.2972 H         1 UNK         0.0800 
    246 H246       -0.7628  -17.9509  -49.3843 H         1 UNK         0.0800 
    247 H247       -0.9440  -18.8908  -50.8264 H         1 UNK         0.0800 
@<TRIPOS>BOND
     1    1    2 1    
     2    1  127 1    
     3    1  128 1    
     4    1  129 1    
     5    2    3 2    
     6    2    4 am   BACKBONE|DICT|INTERRES
     7    4    5 1    
     8    4  130 1    
     9    5    6 1    
    10    5   65 1    
    11    5  131 1    
    12    6    7 1    
    13    6  132 1    
    14    6  133 1    
    15    7    8 1    
    16    8    9 1    
    17    8  134 1    
    18    8  135 1    
    19    9   10 ar   
    20    9   14 ar   
    21   10   11 ar   
    22   10  136 1    
    23   11   12 ar   
    24   11  126 1    
    25   12   13 ar   
    26   12  137 1    
    27   13   14 ar   
    28   13   15 1    
    29   14  138 1    
    30   15   16 1    
    31   15  139 1    
    32   15  140 1    
    33   16   17 1    
    34   17   18 1    
    35   17  141 1    
    36   17  142 1    
    37   18   19 1    
    38   18   67 1    
    39   18  143 1    
    40   19   20 am   BACKBONE|DICT|INTERRES
    41   19  144 1    
    42   20   21 2    
    43   20   22 1    
    44   22   23 1    
    45   22   24 1    
    46   22  145 1    
    47   23  146 1    
    48   23  147 1    
    49   23  148 1    
    50   24   25 am   BACKBONE|DICT|INTERRES
    51   24  149 1    
    52   25   26 2    
    53   25   27 1    
    54   27   28 1    
    55   27   29 1    
    56   27  150 1    
    57   28  151 1    
    58   28  152 1    
    59   28  153 1    
    60   29   30 am   BACKBONE|DICT|INTERRES
    61   29  154 1    
    62   30   31 2    
    63   30   32 1    
    64   32   33 1    
    65   32   34 1    
    66   32  155 1    
    67   33  156 1    
    68   33  157 1    
    69   33  158 1    
    70   34   35 am   BACKBONE|DICT|INTERRES
    71   34  159 1    
    72   35   36 2    
    73   35   37 1    
    74   37   38 1    
    75   37   39 1    
    76   37  160 1    
    77   38  161 1    
    78   38  162 1    
    79   38  163 1    
    80   39   40 am   BACKBONE|DICT|INTERRES
    81   39  164 1    
    82   40   41 2    
    83   40   42 1    
    84   42   43 1    
    85   42   44 1    
    86   42  165 1    
    87   43  166 1    
    88   43  167 1    
    89   43  168 1    
    90   44   45 am   BACKBONE|DICT|INTERRES
    91   44  169 1    
    92   45   46 2    
    93   45   47 1    
    94   47   48 1    
    95   47   49 1    
    96   47  170 1    
    97   48  171 1    
    98   48  172 1    
    99   48  173 1    
   100   49   50 am   BACKBONE|DICT|INTERRES
   101   49  174 1    
   102   50   51 2    
   103   50   52 1    
   104   52   53 1    
   105   52   54 1    
   106   52  175 1    
   107   53  176 1    
   108   53  177 1    
   109   53  178 1    
   110   54   55 am   BACKBONE|DICT|INTERRES
   111   54  179 1    
   112   55   56 2    
   113   55   57 1    
   114   57   58 1    
   115   57   59 1    
   116   57  180 1    
   117   58  181 1    
   118   58  182 1    
   119   58  183 1    
   120   59   60 am   BACKBONE|DICT|INTERRES
   121   59  184 1    
   122   60   61 2    
   123   60   62 1    
   124   62   63 1    
   125   62   64 1    
   126   62  185 1    
   127   63  186 1    
   128   63  187 1    
   129   63  188 1    
   130   64   65 am   BACKBONE|DICT|INTERRES
   131   64  189 1    
   132   65   66 2    
   133   67   68 2    
   134   67   69 am   BACKBONE|DICT|INTERRES
   135   69   70 1    
   136   69  190 1    
   137   70   71 1    
   138   70   72 1    
   139   70  191 1    
   140   71  192 1    
   141   71  193 1    
   142   71  194 1    
   143   72   73 2    
   144   72   74 am   BACKBONE|DICT|INTERRES
   145   74   75 1    
   146   74  195 1    
   147   75   76 1    
   148   75   77 1    
   149   75  196 1    
   150   76  197 1    
   151   76  198 1    
   152   76  199 1    
   153   77   78 2    
   154   77   79 am   BACKBONE|DICT|INTERRES
   155   79   80 1    
   156   79  200 1    
   157   80   81 1    
   158   80   82 1    
   159   80  201 1    
   160   81  202 1    
   161   81  203 1    
   162   81  204 1    
   163   82   83 2    
   164   82   84 am   BACKBONE|DICT|INTERRES
   165   84   85 1    
   166   84  205 1    
   167   85   86 1    
   168   85   87 1    
   169   85  206 1    
   170   86  207 1    
   171   86  208 1    
   172   86  209 1    
   173   87   88 2    
   174   87   89 am   BACKBONE|DICT|INTERRES
   175   89   90 1    
   176   89  210 1    
   177   90   91 1    
   178   90   92 1    
   179   90  211 1    
   180   91  212 1    
   181   91  213 1    
   182   91  214 1    
   183   92   93 2    
   184   92   94 am   BACKBONE|DICT|INTERRES
   185   94   95 1    
   186   94  215 1    
   187   95   96 1    
   188   95   97 1    
   189   95  216 1    
   190   96  217 1    
   191   96  218 1    
   192   96  219 1    
   193   97   98 2    
   194   97   99 am   BACKBONE|DICT|INTERRES
   195   99  100 1    
   196   99  220 1    
   197  100  101 1    
   198  100  102 1    
   199  100  221 1    
   200  101  222 1    
   201  101  223 1    
   202  101  224 1    
   203  102  103 2    
   204  102  104 am   BACKBONE|DICT|INTERRES
   205  104  105 1    
   206  104  225 1    
   207  105  106 1    
   208  105  107 1    
   209  105  226 1    
   210  106  227 1    
   211  106  228 1    
   212  106  229 1    
   213  107  108 2    
   214  107  109 am   BACKBONE|DICT|INTERRES
   215  109  110 1    
   216  109  230 1    
   217  110  111 1    
   218  110  112 1    
   219  110  231 1    
   220  111  232 1    
   221  111  233 1    
   222  111  234 1    
   223  112  113 2    
   224  112  114 am   BACKBONE|DICT|INTERRES
   225  114  115 1    
   226  114  235 1    
   227  115  116 1    
   228  115  117 1    
   229  115  236 1    
   230  116  237 1    
   231  116  238 1    
   232  116  239 1    
   233  117  118 2    
   234  117  119 am   BACKBONE|DICT|INTERRES
   235  119  120 1    
   236  119  240 1    
   237  120  121 1    
   238  120  124 1    
   239  120  241 1    
   240  121  122 am   BACKBONE|DICT|INTERRES
   241  121  123 2    
   242  122  242 1    
   243  122  243 1    
   244  124  125 1    
   245  124  244 1    
   246  124  245 1    
   247  125  126 1    
   248  126  246 1    
   249  126  247 1    
@<TRIPOS>SUBSTRUCTURE
     1 UNK         1 GROUP             0       ****    0 ROOT    
