@<TRIPOS>MOLECULE
3R540
247   249    1
SMALL
USER_CHARGES


@<TRIPOS>ATOM
      1 CA         -3.1531  -15.9245  -43.9584 C.3       0 UNK        -0.1800 
      2 C          -2.5214  -14.8954  -44.8820 C.2       0 UNK         0.5000 
      3 O          -1.3336  -14.6089  -44.7410 O.2       0 UNK        -0.5000 
      4 N          -3.3145  -14.3621  -45.8245 N.am      1 UNK        -0.5000 
      5 CA         -2.9747  -13.3587  -46.8457 C.3       1 UNK         0.1400 
      6 C6         -2.3409  -13.9436  -48.1470 C.3       23 UNK        -0.0398 
      7 S7         -0.7609  -14.8498  -47.9732 S.3       23 UNK        -0.2404 
      8 C8         -1.3591  -16.5413  -47.6745 C.3       23 UNK        -0.0205 
      9 C9         -1.0193  -17.4764  -48.8200 C.ar      23 UNK        -0.0193 
     10 C10        -1.8437  -17.5487  -49.9456 C.ar      23 UNK        -0.1150 
     11 C11        -1.5344  -18.4186  -50.9957 C.ar      23 UNK        -0.0193 
     12 C12        -0.4026  -19.2356  -50.9006 C.ar      23 UNK        -0.1150 
     13 C13         0.4318  -19.1673  -49.7801 C.ar      23 UNK        -0.0193 
     14 C14         0.1206  -18.2792  -48.7474 C.ar      23 UNK        -0.1150 
     15 C15         1.6889  -20.0223  -49.7051 C.3       23 UNK        -0.0205 
     16 S16         1.3647  -21.6835  -49.0347 S.3       23 UNK        -0.2404 
     17 C17         1.2225  -21.3508  -47.2454 C.3       23 UNK        -0.0398 
     18 CA          0.1984  -22.2570  -46.5232 C.3       11 UNK         0.1400 
     19 N           0.3516  -22.1791  -45.0679 N.am      11 UNK        -0.5000 
     20 C          -0.2645  -22.9796  -44.1868 C.2       10 UNK         0.5000 
     21 O          -1.0077  -23.9060  -44.5079 O.2       10 UNK        -0.5000 
     22 CA         -0.0515  -22.6649  -42.6950 C.3       10 UNK         0.1400 
     23 CB          1.3117  -23.1836  -42.2146 C.3       10 UNK        -0.1800 
     24 N          -0.1671  -21.2365  -42.3997 N.am      10 UNK        -0.5000 
     25 C          -1.2832  -20.5133  -42.5664 C.2       9 UNK         0.5000 
     26 O          -2.3532  -20.9859  -42.9472 O.2       9 UNK        -0.5000 
     27 CA         -1.1739  -18.9981  -42.3203 C.3       9 UNK         0.1400 
     28 CB         -1.2519  -18.6659  -40.8230 C.3       9 UNK        -0.1800 
     29 N           0.0437  -18.4243  -42.8937 N.am      9 UNK        -0.5000 
     30 C           0.3258  -18.3987  -44.2043 C.2       8 UNK         0.5000 
     31 O          -0.4264  -18.8285  -45.0776 O.2       8 UNK        -0.5000 
     32 CA          1.7145  -17.8682  -44.5952 C.3       8 UNK         0.1400 
     33 CB          1.7392  -16.3312  -44.5988 C.3       8 UNK        -0.1800 
     34 N           2.7543  -18.3896  -43.7055 N.am      8 UNK        -0.5000 
     35 C           3.1434  -19.6747  -43.6890 C.2       7 UNK         0.5000 
     36 O           2.6883  -20.5310  -44.4460 O.2       7 UNK        -0.5000 
     37 CA          4.1790  -20.0908  -42.6265 C.3       7 UNK         0.1400 
     38 CB          5.6053  -19.8750  -43.1531 C.3       7 UNK        -0.1800 
     39 N           4.0218  -19.3784  -41.3596 N.am      7 UNK        -0.5000 
     40 C           2.9329  -19.4228  -40.5787 C.2       6 UNK         0.5000 
     41 O           1.9631  -20.1449  -40.8053 O.2       6 UNK        -0.5000 
     42 CA          2.8980  -18.4608  -39.3737 C.3       6 UNK         0.1400 
     43 CB          3.2959  -19.1981  -38.0868 C.3       6 UNK        -0.1800 
     44 N           3.7541  -17.2797  -39.5385 N.am      6 UNK        -0.5000 
     45 C           3.6088  -16.3582  -40.4997 C.2       5 UNK         0.5000 
     46 O           2.7148  -16.3911  -41.3514 O.2       5 UNK        -0.5000 
     47 CA          4.6810  -15.2637  -40.5598 C.3       5 UNK         0.1400 
     48 CB          5.9991  -15.8253  -41.1278 C.3       5 UNK        -0.1800 
     49 N           4.1902  -14.1895  -41.4117 N.am      5 UNK        -0.5000 
     50 C           4.6505  -12.9354  -41.4471 C.2       4 UNK         0.5000 
     51 O           5.5883  -12.5301  -40.7588 O.2       4 UNK        -0.5000 
     52 CA          3.9449  -11.9654  -42.4137 C.3       4 UNK         0.1400 
     53 CB          4.7214  -11.8636  -43.7358 C.3       4 UNK        -0.1800 
     54 N           2.5590  -12.3340  -42.7113 N.am      4 UNK        -0.5000 
     55 C           1.5356  -12.2448  -41.8499 C.2       3 UNK         0.5000 
     56 O           1.6650  -11.8998  -40.6739 O.2       3 UNK        -0.5000 
     57 CA          0.1380  -12.5883  -42.4124 C.3       3 UNK         0.1400 
     58 CB         -1.0123  -11.9883  -41.5787 C.3       3 UNK        -0.1800 
     59 N          -0.0244  -12.2429  -43.8303 N.am      3 UNK        -0.5000 
     60 C           0.1157  -11.0352  -44.4023 C.2       2 UNK         0.5000 
     61 O           0.4115  -10.0107  -43.7861 O.2       2 UNK        -0.5000 
     62 CA         -0.0892  -10.9536  -45.9283 C.3       2 UNK         0.1400 
     63 CB          1.2674  -11.0030  -46.6488 C.3       2 UNK        -0.1800 
     64 N          -0.9428  -12.0147  -46.4626 N.am      2 UNK        -0.5000 
     65 C          -2.2602  -12.1223  -46.2535 C.2       1 UNK         0.5000 
     66 O          -2.9177  -11.2987  -45.6139 O.2       1 UNK        -0.5000 
     67 C          -1.2562  -21.9796  -46.9614 C.2       11 UNK         0.5000 
     68 O          -1.7913  -22.7312  -47.7748 O.2       11 UNK        -0.5000 
     69 N          -1.8898  -20.9556  -46.3700 N.am      12 UNK        -0.5000 
     70 CA         -3.2968  -20.6192  -46.5882 C.3       12 UNK         0.1400 
     71 CB         -3.6239  -19.2868  -45.8992 C.3       12 UNK        -0.1800 
     72 C          -4.2569  -21.7270  -46.1154 C.2       12 UNK         0.5000 
     73 O          -5.1916  -22.0637  -46.8419 O.2       12 UNK        -0.5000 
     74 N          -3.9951  -22.2996  -44.9309 N.am      13 UNK        -0.5000 
     75 CA         -4.7573  -23.4110  -44.3535 C.3       13 UNK         0.1400 
     76 CB         -4.3071  -23.6461  -42.9039 C.3       13 UNK        -0.1800 
     77 C          -4.6477  -24.7099  -45.1749 C.2       13 UNK         0.5000 
     78 O          -5.6388  -25.4268  -45.3160 O.2       13 UNK        -0.5000 
     79 N          -3.4578  -24.9687  -45.7323 N.am      14 UNK        -0.5000 
     80 CA         -3.1784  -26.0761  -46.6493 C.3       14 UNK         0.1400 
     81 CB         -1.6614  -26.3256  -46.6656 C.3       14 UNK        -0.1800 
     82 C          -3.6953  -25.8349  -48.0840 C.2       14 UNK         0.5000 
     83 O          -3.6174  -26.7475  -48.9086 O.2       14 UNK        -0.5000 
     84 N          -4.1760  -24.6159  -48.3681 N.am      15 UNK        -0.5000 
     85 CA         -4.5865  -24.0511  -49.6565 C.3       15 UNK         0.1400 
     86 CB         -5.7215  -24.8601  -50.3158 C.3       15 UNK        -0.1800 
     87 C          -3.4024  -23.8320  -50.6134 C.2       15 UNK         0.5000 
     88 O          -3.1765  -22.6999  -51.0427 O.2       15 UNK        -0.5000 
     89 N          -2.6698  -24.9111  -50.9233 N.am      16 UNK        -0.5000 
     90 CA         -1.4872  -24.9651  -51.7842 C.3       16 UNK         0.1400 
     91 CB         -0.2795  -24.3446  -51.0484 C.3       16 UNK        -0.1800 
     92 C          -1.7664  -24.3443  -53.1692 C.2       16 UNK         0.5000 
     93 O          -2.5271  -24.9223  -53.9477 O.2       16 UNK        -0.5000 
     94 N          -1.1904  -23.1644  -53.4354 N.am      17 UNK        -0.5000 
     95 CA         -1.3827  -22.3907  -54.6608 C.3       17 UNK         0.1400 
     96 CB         -0.3671  -21.2393  -54.6990 C.3       17 UNK        -0.1800 
     97 C          -2.8129  -21.8489  -54.8456 C.2       17 UNK         0.5000 
     98 O          -3.1795  -21.5322  -55.9771 O.2       17 UNK        -0.5000 
     99 N          -3.6161  -21.7627  -53.7716 N.am      18 UNK        -0.5000 
    100 CA        -5.0086  -21.2953  -53.8129 C.3       18 UNK         0.1400 
    101 CB        -5.5604  -21.1430  -52.3891 C.3       18 UNK        -0.1800 
    102 C         -5.9368  -22.1830  -54.6672 C.2       18 UNK         0.5000 
    103 O         -6.9532  -21.6919  -55.1580 O.2       18 UNK        -0.5000 
    104 N         -5.5413  -23.4446  -54.8963 N.am      19 UNK        -0.5000 
    105 CA        -6.1690  -24.3618  -55.8522 C.3       19 UNK         0.1400 
    106 CB        -5.5618  -25.7603  -55.6678 C.3       19 UNK        -0.1800 
    107 C         -6.0342  -23.9020  -57.3219 C.2       19 UNK         0.5000 
    108 O         -6.8582  -24.2847  -58.1525 O.2       19 UNK        -0.5000 
    109 N         -5.0234  -23.0695  -57.6059 N.am      20 UNK        -0.5000 
    110 CA        -4.7840  -22.3930  -58.8805 C.3       20 UNK         0.1400 
    111 CB        -3.3511  -22.7119  -59.3432 C.3       20 UNK        -0.1800 
    112 C         -5.0226  -20.8739  -58.7350 C.2       20 UNK         0.5000 
    113 O         -4.3785  -20.0782  -59.4222 O.2       20 UNK        -0.5000 
    114 N         -5.9207  -20.4936  -57.8113 N.am      21 UNK        -0.5000 
    115 CA        -6.3397  -19.1287  -57.4669 C.3       21 UNK         0.1400 
    116 CB        -7.0843  -18.4773  -58.6508 C.3       21 UNK        -0.1800 
    117 C         -5.2080  -18.2314  -56.9177 C.2       21 UNK         0.5000 
    118 O         -5.3444  -17.0071  -56.9276 O.2       21 UNK        -0.5000 
    119 N         -4.1173  -18.8469  -56.4400 N.am      22 UNK        -0.5000 
    120 CA        -2.8894  -18.1910  -55.9659 C.3       22 UNK         0.1400 
    121 C         -2.0569  -17.5120  -57.0991 C.2       22 UNK         0.5000 
    122 N         -2.2591  -17.8666  -58.3644 N.am      22 UNK        -0.7600 
    123 O         -1.1997  -16.6728  -56.8382 O.2       22 UNK        -0.5000 
    124 C124       -3.1409  -17.2923  -54.7202 C.3       23 UNK        -0.0398 
    125 S125       -1.7684  -17.3293  -53.5158 S.3       23 UNK        -0.2404 
    126 C126       -2.4128  -18.4550  -52.2370 C.3       23 UNK        -0.0205 
    127 H127       -2.8211  -16.9201  -44.2474 H         1 UNK         0.0600 
    128 H128       -4.2419  -15.8985  -44.0038 H         1 UNK         0.0600 
    129 H129       -2.8493  -15.7458  -42.9268 H         1 UNK         0.0600 
    130 H130       -4.2833  -14.6473  -45.8367 H         1 UNK         0.3000 
    131 H131       -3.9451  -12.9697  -47.1587 H         1 UNK         0.0600 
    132 H132       -2.1797  -13.1398  -48.8674 H         1 UNK         0.0800 
    133 H133       -3.0628  -14.6026  -48.6306 H         1 UNK         0.0800 
    134 H134       -2.4358  -16.5474  -47.5057 H         1 UNK         0.0800 
    135 H135       -0.9117  -16.9016  -46.7489 H         1 UNK         0.0800 
    136 H136       -2.7178  -16.9161  -50.0102 H         1 UNK         0.1150 
    137 H137       -0.1580  -19.9115  -51.7064 H         1 UNK         0.1150 
    138 H138        0.7658  -18.2056  -47.8841 H         1 UNK         0.1150 
    139 H139        2.1136  -20.1283  -50.7044 H         1 UNK         0.0800 
    140 H140        2.4542  -19.5278  -49.1047 H         1 UNK         0.0800 
    141 H141        0.9927  -20.3028  -47.0618 H         1 UNK         0.0800 
    142 H142        2.2151  -21.5152  -46.8253 H         1 UNK         0.0800 
    143 H143        0.4225  -23.2895  -46.8002 H         1 UNK         0.0600 
    144 H144        0.9830  -21.4633  -44.7211 H         1 UNK         0.3000 
    145 H145       -0.8294  -23.1839  -42.1313 H         1 UNK         0.0600 
    146 H146        1.4440  -23.0136  -41.1459 H         1 UNK         0.0600 
    147 H147        2.1352  -22.6949  -42.7351 H         1 UNK         0.0600 
    148 H148        1.4038  -24.2564  -42.3882 H         1 UNK         0.0600 
    149 H149        0.6578  -20.7792  -42.0200 H         1 UNK         0.3000 
    150 H150       -2.0273  -18.5285  -42.8101 H         1 UNK         0.0600 
    151 H151       -2.1773  -19.0468  -40.3893 H         1 UNK         0.0600 
    152 H152       -1.2350  -17.5885  -40.6574 H         1 UNK         0.0600 
    153 H153       -0.4254  -19.1044  -40.2643 H         1 UNK         0.0600 
    154 H154        0.7351  -18.0745  -42.2460 H         1 UNK         0.3000 
    155 H155        1.9326  -18.2100  -45.6091 H         1 UNK         0.0600 
    156 H156        1.0454  -15.9367  -45.3421 H         1 UNK         0.0600 
    157 H157        2.7301  -15.9504  -44.8460 H         1 UNK         0.0600 
    158 H158        1.4487  -15.9150  -43.6340 H         1 UNK         0.0600 
    159 H159        3.1160  -17.7521  -43.0076 H         1 UNK         0.3000 
    160 H160        4.0438  -21.1560  -42.4295 H         1 UNK         0.0600 
    161 H161        5.8109  -18.8202  -43.3405 H         1 UNK         0.0600 
    162 H162        5.7605  -20.4116  -44.0901 H         1 UNK         0.0600 
    163 H163        6.3476  -20.2414  -42.4437 H         1 UNK         0.0600 
    164 H164        4.7757  -18.7657  -41.0883 H         1 UNK         0.3000 
    165 H165        1.8683  -18.1138  -39.2661 H         1 UNK         0.0600 
    166 H166        3.1921  -18.5532  -37.2140 H         1 UNK         0.0600 
    167 H167        2.6593  -20.0688  -37.9229 H         1 UNK         0.0600 
    168 H168        4.3280  -19.5487  -38.1262 H         1 UNK         0.0600 
    169 H169        4.5171  -17.1866  -38.8831 H         1 UNK         0.3000 
    170 H170        4.8415  -14.8794  -39.5505 H         1 UNK         0.0600 
    171 H171        5.8661  -16.2157  -42.1377 H         1 UNK         0.0600 
    172 H172        6.7737  -15.0595  -41.1673 H         1 UNK         0.0600 
    173 H173        6.3845  -16.6360  -40.5087 H         1 UNK         0.0600 
    174 H174        3.3846  -14.4417  -41.9703 H         1 UNK         0.3000 
    175 H175        3.9399  -10.9796  -41.9440 H         1 UNK         0.0600 
    176 H176        4.7461  -12.8185  -44.2625 H         1 UNK         0.0600 
    177 H177        4.2740  -11.1241  -44.4005 H         1 UNK         0.0600 
    178 H178        5.7539  -11.5587  -43.5602 H         1 UNK         0.0600 
    179 H179        2.3588  -12.6204  -43.6580 H         1 UNK         0.3000 
    180 H180        0.0518  -13.6745  -42.3555 H         1 UNK         0.0600 
    181 H181       -1.9820  -12.2675  -41.9912 H         1 UNK         0.0600 
    182 H182       -0.9623  -10.8996  -41.5460 H         1 UNK         0.0600 
    183 H183       -0.9823  -12.3497  -40.5502 H         1 UNK         0.0600 
    184 H184       -0.3244  -13.0181  -44.4176 H         1 UNK         0.3000 
    185 H185       -0.5599   -9.9929  -46.1473 H         1 UNK         0.0600 
    186 H186        1.7755  -11.9542  -46.4852 H         1 UNK         0.0600 
    187 H187        1.1482  -10.8667  -47.7238 H         1 UNK         0.0600 
    188 H188        1.9290  -10.2118  -46.2933 H         1 UNK         0.0600 
    189 H189       -0.4824  -12.7646  -46.9628 H         1 UNK         0.3000 
    190 H190       -1.3714  -20.3499  -45.7392 H         1 UNK         0.3000 
    191 H191       -3.4403  -20.4888  -47.6631 H         1 UNK         0.0600 
    192 H192       -2.9797  -18.4896  -46.2652 H         1 UNK         0.0600 
    193 H193       -3.4952  -19.3485  -44.8186 H         1 UNK         0.0600 
    194 H194       -4.6549  -18.9886  -46.0922 H         1 UNK         0.0600 
    195 H195       -3.2370  -21.9282  -44.3641 H         1 UNK         0.3000 
    196 H196       -5.8093  -23.1190  -44.3378 H         1 UNK         0.0600 
    197 H197       -4.4656  -22.7571  -42.2933 H         1 UNK         0.0600 
    198 H198       -3.2496  -23.9055  -42.8480 H         1 UNK         0.0600 
    199 H199       -4.8705  -24.4599  -42.4459 H         1 UNK         0.0600 
    200 H200       -2.6746  -24.3608  -45.5101 H         1 UNK         0.3000 
    201 H201       -3.6689  -26.9755  -46.2719 H         1 UNK         0.0600 
    202 H202       -1.2867  -26.5446  -45.6656 H         1 UNK         0.0600 
    203 H203       -1.1182  -25.4586  -47.0441 H         1 UNK         0.0600 
    204 H204       -1.4078  -27.1755  -47.3003 H         1 UNK         0.0600 
    205 H205       -4.1474  -23.9374  -47.6178 H         1 UNK         0.3000 
    206 H206       -4.9868  -23.0626  -49.4264 H         1 UNK         0.0600 
    207 H207       -5.4068  -25.8648  -50.5973 H         1 UNK         0.0600 
    208 H208       -6.5762  -24.9529  -49.6458 H         1 UNK         0.0600 
    209 H209       -6.0728  -24.3700  -51.2241 H         1 UNK         0.0600 
    210 H210       -2.9471  -25.7868  -50.4904 H         1 UNK         0.3000 
    211 H211       -1.2687  -26.0199  -51.9554 H         1 UNK         0.0600 
    212 H212       -0.4528  -23.3005  -50.7860 H         1 UNK         0.0600 
    213 H213        0.6252  -24.3942  -51.6554 H         1 UNK         0.0600 
    214 H214       -0.0740  -24.8796  -50.1210 H         1 UNK         0.0600 
    215 H215       -0.6162  -22.7446  -52.7190 H         1 UNK         0.3000 
    216 H216       -1.1776  -23.0517  -55.5054 H         1 UNK         0.0600 
    217 H217       -0.4166  -20.7086  -55.6506 H         1 UNK         0.0600 
    218 H218        0.6535  -21.6060  -54.5883 H         1 UNK         0.0600 
    219 H219       -0.5516  -20.5109  -53.9101 H         1 UNK         0.0600 
    220 H220       -3.2684  -22.0630  -52.8637 H         1 UNK         0.3000 
    221 H221       -5.0039  -20.3035  -54.2668 H         1 UNK         0.0600 
    222 H222       -5.6666  -22.1070  -51.8941 H         1 UNK         0.0600 
    223 H223       -4.9120  -20.5174  -51.7754 H         1 UNK         0.0600 
    224 H224       -6.5456  -20.6753  -52.4025 H         1 UNK         0.0600 
    225 H225       -4.6855  -23.7658  -54.4629 H         1 UNK         0.3000 
    226 H226       -7.2345  -24.4152  -55.6196 H         1 UNK         0.0600 
    227 H227       -5.7026  -26.1210  -54.6487 H         1 UNK         0.0600 
    228 H228       -6.0319  -26.4826  -56.3364 H         1 UNK         0.0600 
    229 H229       -4.4916  -25.7641  -55.8794 H         1 UNK         0.0600 
    230 H230       -4.4072  -22.7769  -56.8541 H         1 UNK         0.3000 
    231 H231       -5.4780  -22.7529  -59.6422 H         1 UNK         0.0600 
    232 H232       -3.1478  -22.2795  -60.3236 H         1 UNK         0.0600 
    233 H233       -3.1951  -23.7875  -59.4262 H         1 UNK         0.0600 
    234 H234       -2.6083  -22.3184  -58.6480 H         1 UNK         0.0600 
    235 H235       -6.3650  -21.2201  -57.2636 H         1 UNK         0.3000 
    236 H236       -7.0545  -19.2342  -56.6497 H         1 UNK         0.0600 
    237 H237       -6.4149  -18.2727  -59.4869 H         1 UNK         0.0600 
    238 H238       -7.8873  -19.1192  -59.0128 H         1 UNK         0.0600 
    239 H239       -7.5378  -17.5300  -58.3570 H         1 UNK         0.0600 
    240 H240       -4.0628  -19.8589  -56.4904 H         1 UNK         0.3000 
    241 H241       -2.2593  -19.0176  -55.6420 H         1 UNK         0.0600 
    242 H242       -2.9566  -18.5594  -58.6066 H         1 UNK         0.3800 
    243 H243       -1.7146  -17.4322  -59.0926 H         1 UNK         0.3800 
    244 H244       -4.0485  -17.6059  -54.2033 H         1 UNK         0.0800 
    245 H245       -3.3238  -16.2586  -55.0182 H         1 UNK         0.0800 
    246 H246       -3.4339  -18.1737  -51.9753 H         1 UNK         0.0800 
    247 H247       -2.4622  -19.4695  -52.6323 H         1 UNK         0.0800 
@<TRIPOS>BOND
     1    1    2 1    
     2    1  127 1    
     3    1  128 1    
     4    1  129 1    
     5    2    3 2    
     6    2    4 am   BACKBONE|DICT|INTERRES
     7    4    5 1    
     8    4  130 1    
     9    5    6 1    
    10    5   65 1    
    11    5  131 1    
    12    6    7 1    
    13    6  132 1    
    14    6  133 1    
    15    7    8 1    
    16    8    9 1    
    17    8  134 1    
    18    8  135 1    
    19    9   10 ar   
    20    9   14 ar   
    21   10   11 ar   
    22   10  136 1    
    23   11   12 ar   
    24   11  126 1    
    25   12   13 ar   
    26   12  137 1    
    27   13   14 ar   
    28   13   15 1    
    29   14  138 1    
    30   15   16 1    
    31   15  139 1    
    32   15  140 1    
    33   16   17 1    
    34   17   18 1    
    35   17  141 1    
    36   17  142 1    
    37   18   19 1    
    38   18   67 1    
    39   18  143 1    
    40   19   20 am   BACKBONE|DICT|INTERRES
    41   19  144 1    
    42   20   21 2    
    43   20   22 1    
    44   22   23 1    
    45   22   24 1    
    46   22  145 1    
    47   23  146 1    
    48   23  147 1    
    49   23  148 1    
    50   24   25 am   BACKBONE|DICT|INTERRES
    51   24  149 1    
    52   25   26 2    
    53   25   27 1    
    54   27   28 1    
    55   27   29 1    
    56   27  150 1    
    57   28  151 1    
    58   28  152 1    
    59   28  153 1    
    60   29   30 am   BACKBONE|DICT|INTERRES
    61   29  154 1    
    62   30   31 2    
    63   30   32 1    
    64   32   33 1    
    65   32   34 1    
    66   32  155 1    
    67   33  156 1    
    68   33  157 1    
    69   33  158 1    
    70   34   35 am   BACKBONE|DICT|INTERRES
    71   34  159 1    
    72   35   36 2    
    73   35   37 1    
    74   37   38 1    
    75   37   39 1    
    76   37  160 1    
    77   38  161 1    
    78   38  162 1    
    79   38  163 1    
    80   39   40 am   BACKBONE|DICT|INTERRES
    81   39  164 1    
    82   40   41 2    
    83   40   42 1    
    84   42   43 1    
    85   42   44 1    
    86   42  165 1    
    87   43  166 1    
    88   43  167 1    
    89   43  168 1    
    90   44   45 am   BACKBONE|DICT|INTERRES
    91   44  169 1    
    92   45   46 2    
    93   45   47 1    
    94   47   48 1    
    95   47   49 1    
    96   47  170 1    
    97   48  171 1    
    98   48  172 1    
    99   48  173 1    
   100   49   50 am   BACKBONE|DICT|INTERRES
   101   49  174 1    
   102   50   51 2    
   103   50   52 1    
   104   52   53 1    
   105   52   54 1    
   106   52  175 1    
   107   53  176 1    
   108   53  177 1    
   109   53  178 1    
   110   54   55 am   BACKBONE|DICT|INTERRES
   111   54  179 1    
   112   55   56 2    
   113   55   57 1    
   114   57   58 1    
   115   57   59 1    
   116   57  180 1    
   117   58  181 1    
   118   58  182 1    
   119   58  183 1    
   120   59   60 am   BACKBONE|DICT|INTERRES
   121   59  184 1    
   122   60   61 2    
   123   60   62 1    
   124   62   63 1    
   125   62   64 1    
   126   62  185 1    
   127   63  186 1    
   128   63  187 1    
   129   63  188 1    
   130   64   65 am   BACKBONE|DICT|INTERRES
   131   64  189 1    
   132   65   66 2    
   133   67   68 2    
   134   67   69 am   BACKBONE|DICT|INTERRES
   135   69   70 1    
   136   69  190 1    
   137   70   71 1    
   138   70   72 1    
   139   70  191 1    
   140   71  192 1    
   141   71  193 1    
   142   71  194 1    
   143   72   73 2    
   144   72   74 am   BACKBONE|DICT|INTERRES
   145   74   75 1    
   146   74  195 1    
   147   75   76 1    
   148   75   77 1    
   149   75  196 1    
   150   76  197 1    
   151   76  198 1    
   152   76  199 1    
   153   77   78 2    
   154   77   79 am   BACKBONE|DICT|INTERRES
   155   79   80 1    
   156   79  200 1    
   157   80   81 1    
   158   80   82 1    
   159   80  201 1    
   160   81  202 1    
   161   81  203 1    
   162   81  204 1    
   163   82   83 2    
   164   82   84 am   BACKBONE|DICT|INTERRES
   165   84   85 1    
   166   84  205 1    
   167   85   86 1    
   168   85   87 1    
   169   85  206 1    
   170   86  207 1    
   171   86  208 1    
   172   86  209 1    
   173   87   88 2    
   174   87   89 am   BACKBONE|DICT|INTERRES
   175   89   90 1    
   176   89  210 1    
   177   90   91 1    
   178   90   92 1    
   179   90  211 1    
   180   91  212 1    
   181   91  213 1    
   182   91  214 1    
   183   92   93 2    
   184   92   94 am   BACKBONE|DICT|INTERRES
   185   94   95 1    
   186   94  215 1    
   187   95   96 1    
   188   95   97 1    
   189   95  216 1    
   190   96  217 1    
   191   96  218 1    
   192   96  219 1    
   193   97   98 2    
   194   97   99 am   BACKBONE|DICT|INTERRES
   195   99  100 1    
   196   99  220 1    
   197  100  101 1    
   198  100  102 1    
   199  100  221 1    
   200  101  222 1    
   201  101  223 1    
   202  101  224 1    
   203  102  103 2    
   204  102  104 am   BACKBONE|DICT|INTERRES
   205  104  105 1    
   206  104  225 1    
   207  105  106 1    
   208  105  107 1    
   209  105  226 1    
   210  106  227 1    
   211  106  228 1    
   212  106  229 1    
   213  107  108 2    
   214  107  109 am   BACKBONE|DICT|INTERRES
   215  109  110 1    
   216  109  230 1    
   217  110  111 1    
   218  110  112 1    
   219  110  231 1    
   220  111  232 1    
   221  111  233 1    
   222  111  234 1    
   223  112  113 2    
   224  112  114 am   BACKBONE|DICT|INTERRES
   225  114  115 1    
   226  114  235 1    
   227  115  116 1    
   228  115  117 1    
   229  115  236 1    
   230  116  237 1    
   231  116  238 1    
   232  116  239 1    
   233  117  118 2    
   234  117  119 am   BACKBONE|DICT|INTERRES
   235  119  120 1    
   236  119  240 1    
   237  120  121 1    
   238  120  124 1    
   239  120  241 1    
   240  121  122 am   BACKBONE|DICT|INTERRES
   241  121  123 2    
   242  122  242 1    
   243  122  243 1    
   244  124  125 1    
   245  124  244 1    
   246  124  245 1    
   247  125  126 1    
   248  126  246 1    
   249  126  247 1    
@<TRIPOS>SUBSTRUCTURE
     1 UNK         1 GROUP             0       ****    0 ROOT    
