@<TRIPOS>MOLECULE
3R540
247   249    1
SMALL
USER_CHARGES


@<TRIPOS>ATOM
      1 CA         -1.3692  -12.7762  -52.4494 C.3       0 UNK        -0.1800 
      2 C          -1.5651  -13.3917  -51.0723 C.2       0 UNK         0.5000 
      3 O          -0.7604  -13.1523  -50.1750 O.2       0 UNK        -0.5000 
      4 N          -2.6443  -14.1625  -50.8842 N.am      1 UNK        -0.5000 
      5 CA         -2.9625  -14.8786  -49.6368 C.3       1 UNK         0.1400 
      6 C6         -4.0453  -15.9682  -49.8624 C.3       23 UNK        -0.0398 
      7 S7         -3.5411  -17.5961  -49.2138 S.3       23 UNK        -0.2404 
      8 C8         -2.6055  -18.2734  -50.6255 C.3       23 UNK        -0.0205 
      9 C9         -1.1249  -18.3727  -50.3031 C.ar      23 UNK        -0.0193 
     10 C10        -0.2972  -17.2587  -50.4552 C.ar      23 UNK        -0.1150 
     11 C11         1.0665  -17.3365  -50.1615 C.ar      23 UNK        -0.0193 
     12 C12         1.5979  -18.5448  -49.7037 C.ar      23 UNK        -0.1150 
     13 C13         0.7819  -19.6691  -49.5474 C.ar      23 UNK        -0.0193 
     14 C14        -0.5788  -19.5789  -49.8568 C.ar      23 UNK        -0.1150 
     15 C15         1.3825  -20.9756  -49.0515 C.3       23 UNK        -0.0205 
     16 S16         1.3060  -21.1052  -47.2374 S.3       23 UNK        -0.2404 
     17 C17        -0.3701  -21.7774  -46.9765 C.3       23 UNK        -0.0398 
     18 CA         -0.3443  -23.2333  -46.4518 C.3       11 UNK         0.1400 
     19 N           0.4281  -23.3895  -45.2170 N.am      11 UNK        -0.5000 
     20 C           0.8591  -24.5623  -44.7315 C.2       10 UNK         0.5000 
     21 O           0.6670  -25.6412  -45.2903 O.2       10 UNK        -0.5000 
     22 CA          1.5781  -24.5309  -43.3685 C.3       10 UNK         0.1400 
     23 CB          3.0776  -24.2599  -43.5581 C.3       10 UNK        -0.1800 
     24 N           1.0190  -23.5317  -42.4562 N.am      10 UNK        -0.5000 
     25 C          -0.2373  -23.5466  -41.9890 C.2       9 UNK         0.5000 
     26 O          -1.0302  -24.4623  -42.2067 O.2       9 UNK        -0.5000 
     27 CA         -0.7090  -22.3060  -41.2031 C.3       9 UNK         0.1400 
     28 CB         -0.5564  -22.5393  -39.6931 C.3       9 UNK        -0.1800 
     29 N          -0.0224  -21.0608  -41.5717 N.am      9 UNK        -0.5000 
     30 C          -0.0027  -20.5207  -42.7985 C.2       8 UNK         0.5000 
     31 O          -0.5593  -21.0308  -43.7735 O.2       8 UNK        -0.5000 
     32 CA          0.8048  -19.2250  -42.9672 C.3       8 UNK         0.1400 
     33 CB          2.2893  -19.4303  -42.6043 C.3       8 UNK        -0.1800 
     34 N           0.7089  -18.7569  -44.3481 N.am      8 UNK        -0.5000 
     35 C           0.8687  -17.4887  -44.7324 C.2       7 UNK         0.5000 
     36 O           1.0411  -16.5567  -43.9406 O.2       7 UNK        -0.5000 
     37 CA          0.8320  -17.2058  -46.2451 C.3       7 UNK         0.1400 
     38 CB         -0.5416  -16.6626  -46.6639 C.3       7 UNK        -0.1800 
     39 N           1.8542  -16.2119  -46.5560 N.am      7 UNK        -0.5000 
     40 C           3.1477  -16.4932  -46.7647 C.2       6 UNK         0.5000 
     41 O           3.5843  -17.6242  -46.9766 O.2       6 UNK        -0.5000 
     42 CA          4.1277  -15.3181  -46.6096 C.3       6 UNK         0.1400 
     43 CB          3.9863  -14.2841  -47.7383 C.3       6 UNK        -0.1800 
     44 N           3.8952  -14.6945  -45.3059 N.am      6 UNK        -0.5000 
     45 C           4.4425  -15.1421  -44.1656 C.2       5 UNK         0.5000 
     46 O           5.3876  -15.9314  -44.1342 O.2       5 UNK        -0.5000 
     47 CA          3.8060  -14.7076  -42.8311 C.3       5 UNK         0.1400 
     48 CB          4.7100  -13.7443  -42.0355 C.3       5 UNK        -0.1800 
     49 N           2.4247  -14.2305  -42.9711 N.am      5 UNK        -0.5000 
     50 C           1.9787  -13.0192  -43.3203 C.2       4 UNK         0.5000 
     51 O           2.6963  -12.0356  -43.5129 O.2       4 UNK        -0.5000 
     52 CA          0.4545  -12.8988  -43.5139 C.3       4 UNK         0.1400 
     53 CB         -0.2025  -12.2606  -42.2810 C.3       4 UNK        -0.1800 
     54 N           0.1272  -12.1058  -44.6978 N.am      4 UNK        -0.5000 
     55 C           0.4732  -12.4359  -45.9471 C.2       3 UNK         0.5000 
     56 O           1.0075  -13.5072  -46.2413 O.2       3 UNK        -0.5000 
     57 CA          0.1613  -11.3974  -47.0387 C.3       3 UNK         0.1400 
     58 CB          1.2011  -11.4273  -48.1721 C.3       3 UNK        -0.1800 
     59 N          -1.1715  -11.6183  -47.5947 N.am      3 UNK        -0.5000 
     60 C          -2.3171  -11.2615  -46.9928 C.2       2 UNK         0.5000 
     61 O          -2.3555  -10.6604  -45.9179 O.2       2 UNK        -0.5000 
     62 CA         -3.6457  -11.6101  -47.6986 C.3       2 UNK         0.1400 
     63 CB         -4.2410  -10.3620  -48.3686 C.3       2 UNK        -0.1800 
     64 N          -3.5108  -12.6622  -48.7051 N.am      2 UNK        -0.5000 
     65 C          -3.2922  -13.9570  -48.4387 C.2       1 UNK         0.5000 
     66 O          -3.3139  -14.4231  -47.2996 O.2       1 UNK        -0.5000 
     67 C          -1.7791  -23.7578  -46.2732 C.2       11 UNK         0.5000 
     68 O          -2.3333  -24.3237  -47.2143 O.2       11 UNK        -0.5000 
     69 N          -2.3526  -23.5798  -45.0747 N.am      12 UNK        -0.5000 
     70 CA         -3.6608  -24.1212  -44.7068 C.3       12 UNK         0.1400 
     71 CB         -4.1564  -23.4657  -43.4094 C.3       12 UNK        -0.1800 
     72 C          -3.6329  -25.6549  -44.5931 C.2       12 UNK         0.5000 
     73 O          -4.5324  -26.3145  -45.1131 O.2       12 UNK        -0.5000 
     74 N          -2.5742  -26.1939  -43.9715 N.am      13 UNK        -0.5000 
     75 CA         -2.3160  -27.6308  -43.8498 C.3       13 UNK         0.1400 
     76 CB         -1.1183  -27.8554  -42.9146 C.3       13 UNK        -0.1800 
     77 C          -2.0849  -28.3192  -45.2096 C.2       13 UNK         0.5000 
     78 O          -2.5805  -29.4261  -45.4230 O.2       13 UNK        -0.5000 
     79 N          -1.3660  -27.6394  -46.1135 N.am      14 UNK        -0.5000 
     80 CA         -1.1124  -28.0824  -47.4871 C.3       14 UNK         0.1400 
     81 CB          0.0921  -27.3025  -48.0389 C.3       14 UNK        -0.1800 
     82 C          -2.3225  -27.9152  -48.4300 C.2       14 UNK         0.5000 
     83 O          -2.2918  -28.4502  -49.5385 O.2       14 UNK        -0.5000 
     84 N          -3.3363  -27.1495  -47.9972 N.am      15 UNK        -0.5000 
     85 CA         -4.5201  -26.7091  -48.7479 C.3       15 UNK         0.1400 
     86 CB         -5.3835  -27.9049  -49.1988 C.3       15 UNK        -0.1800 
     87 C          -4.1916  -25.7370  -49.9041 C.2       15 UNK         0.5000 
     88 O          -5.0214  -25.5254  -50.7890 O.2       15 UNK        -0.5000 
     89 N          -3.0037  -25.1210  -49.8508 N.am      16 UNK        -0.5000 
     90 CA         -2.5423  -24.0703  -50.7560 C.3       16 UNK         0.1400 
     91 CB         -1.0196  -23.9284  -50.6171 C.3       16 UNK        -0.1800 
     92 C          -3.2375  -22.7253  -50.4808 C.2       16 UNK         0.5000 
     93 O          -3.3802  -21.9181  -51.3972 O.2       16 UNK        -0.5000 
     94 N          -3.7027  -22.5263  -49.2376 N.am      17 UNK        -0.5000 
     95 CA         -4.4576  -21.3534  -48.7821 C.3       17 UNK         0.1400 
     96 CB         -4.6241  -21.4262  -47.2573 C.3       17 UNK        -0.1800 
     97 C          -5.8288  -21.1592  -49.4688 C.2       17 UNK         0.5000 
     98 O          -6.4467  -20.1088  -49.2965 O.2       17 UNK        -0.5000 
     99 N          -6.2872  -22.1644  -50.2286 N.am      18 UNK        -0.5000 
    100 CA        -7.4689  -22.0919  -51.0863 C.3       18 UNK         0.1400 
    101 CB        -7.8624  -23.5162  -51.5069 C.3       18 UNK        -0.1800 
    102 C         -7.2620  -21.1988  -52.3283 C.2       18 UNK         0.5000 
    103 O         -8.2477  -20.7090  -52.8821 O.2       18 UNK        -0.5000 
    104 N         -6.0042  -21.0027  -52.7517 N.am      19 UNK        -0.5000 
    105 CA        -5.6330  -20.0950  -53.8364 C.3       19 UNK         0.1400 
    106 CB        -4.2345  -20.4726  -54.3476 C.3       19 UNK        -0.1800 
    107 C         -5.6515  -18.6308  -53.3623 C.2       19 UNK         0.5000 
    108 O         -5.3972  -18.3610  -52.1882 O.2       19 UNK        -0.5000 
    109 N         -5.9273  -17.7040  -54.2875 N.am      20 UNK        -0.5000 
    110 CA        -5.9150  -16.2636  -54.0176 C.3       20 UNK         0.1400 
    111 CB        -6.7604  -15.5446  -55.0798 C.3       20 UNK        -0.1800 
    112 C         -4.4904  -15.6783  -53.9810 C.2       20 UNK         0.5000 
    113 O         -4.2477  -14.7204  -53.2450 O.2       20 UNK        -0.5000 
    114 N         -3.5843  -16.2622  -54.7731 N.am      21 UNK        -0.5000 
    115 CA        -2.1896  -15.8548  -54.9191 C.3       21 UNK         0.1400 
    116 CB        -1.9213  -15.5607  -56.4041 C.3       21 UNK        -0.1800 
    117 C         -1.2525  -16.9607  -54.4109 C.2       21 UNK         0.5000 
    118 O         -1.6686  -18.1138  -54.2777 O.2       21 UNK        -0.5000 
    119 N         -0.0002  -16.5782  -54.1446 N.am      22 UNK        -0.5000 
    120 CA         1.0690  -17.4621  -53.6587 C.3       22 UNK         0.1400 
    121 C          1.5409  -18.4877  -54.7257 C.2       22 UNK         0.5000 
    122 N          1.9188  -19.6905  -54.3142 N.am      22 UNK        -0.7600 
    123 O          1.6123  -18.1889  -55.9160 O.2       22 UNK        -0.5000 
    124 C124        2.2780  -16.6578  -53.1054 C.3       23 UNK        -0.0398 
    125 S125        1.8101  -15.3159  -51.9535 S.3       23 UNK        -0.2404 
    126 C126        1.9657  -16.1177  -50.3235 C.3       23 UNK        -0.0205 
    127 H127       -0.5496  -13.2737  -52.9673 H         1 UNK         0.0600 
    128 H128       -1.1218  -11.7189  -52.3557 H         1 UNK         0.0600 
    129 H129       -2.2673  -12.8581  -53.0612 H         1 UNK         0.0600 
    130 H130       -3.2822  -14.3133  -51.6632 H         1 UNK         0.3000 
    131 H131       -2.0368  -15.3686  -49.3364 H         1 UNK         0.0600 
    132 H132       -4.9964  -15.6990  -49.3994 H         1 UNK         0.0800 
    133 H133       -4.2817  -16.0868  -50.9194 H         1 UNK         0.0800 
    134 H134       -3.0044  -19.2558  -50.8802 H         1 UNK         0.0800 
    135 H135       -2.7441  -17.6629  -51.5187 H         1 UNK         0.0800 
    136 H136       -0.7076  -16.3311  -50.8236 H         1 UNK         0.1150 
    137 H137        2.6489  -18.6112  -49.4590 H         1 UNK         0.1150 
    138 H138       -1.2175  -20.4432  -49.7516 H         1 UNK         0.1150 
    139 H139        0.8870  -21.8286  -49.5154 H         1 UNK         0.0800 
    140 H140        2.4280  -21.0359  -49.3572 H         1 UNK         0.0800 
    141 H141       -0.9302  -21.7311  -47.9101 H         1 UNK         0.0800 
    142 H142       -0.8990  -21.1176  -46.2886 H         1 UNK         0.0800 
    143 H143        0.1302  -23.8511  -47.2171 H         1 UNK         0.0600 
    144 H144        0.5574  -22.5482  -44.6696 H         1 UNK         0.3000 
    145 H145        1.4611  -25.5134  -42.9067 H         1 UNK         0.0600 
    146 H146        3.6105  -24.3074  -42.6083 H         1 UNK         0.0600 
    147 H147        3.5271  -25.0020  -44.2194 H         1 UNK         0.0600 
    148 H148        3.2577  -23.2774  -43.9966 H         1 UNK         0.0600 
    149 H149        1.6075  -22.7459  -42.2235 H         1 UNK         0.3000 
    150 H150       -1.7701  -22.1709  -41.4217 H         1 UNK         0.0600 
    151 H151        0.4903  -22.6482  -39.4064 H         1 UNK         0.0600 
    152 H152       -1.0780  -23.4459  -39.3830 H         1 UNK         0.0600 
    153 H153       -0.9782  -21.7127  -39.1209 H         1 UNK         0.0600 
    154 H154        0.4611  -20.5844  -40.8240 H         1 UNK         0.3000 
    155 H155        0.3655  -18.4810  -42.2995 H         1 UNK         0.0600 
    156 H156        2.7534  -20.1896  -43.2354 H         1 UNK         0.0600 
    157 H157        2.4111  -19.7426  -41.5669 H         1 UNK         0.0600 
    158 H158        2.8573  -18.5075  -42.7253 H         1 UNK         0.0600 
    159 H159        0.4999  -19.4779  -45.0267 H         1 UNK         0.3000 
    160 H160        1.0303  -18.1247  -46.7993 H         1 UNK         0.0600 
    161 H161       -0.8106  -15.7645  -46.1060 H         1 UNK         0.0600 
    162 H162       -1.3238  -17.4039  -46.4969 H         1 UNK         0.0600 
    163 H163       -0.5560  -16.4098  -47.7230 H         1 UNK         0.0600 
    164 H164        1.5849  -15.2454  -46.3841 H         1 UNK         0.3000 
    165 H165        5.1455  -15.7120  -46.6535 H         1 UNK         0.0600 
    166 H166        4.6443  -13.4307  -47.5747 H         1 UNK         0.0600 
    167 H167        4.2583  -14.7233  -48.6983 H         1 UNK         0.0600 
    168 H168        2.9697  -13.9074  -47.8319 H         1 UNK         0.0600 
    169 H169        3.1088  -14.0622  -45.2444 H         1 UNK         0.3000 
    170 H170        3.7196  -15.6193  -42.2378 H         1 UNK         0.0600 
    171 H171        5.6504  -14.2301  -41.7727 H         1 UNK         0.0600 
    172 H172        4.9625  -12.8516  -42.6077 H         1 UNK         0.0600 
    173 H173        4.2356  -13.4302  -41.1058 H         1 UNK         0.0600 
    174 H174        1.7424  -14.9848  -42.9618 H         1 UNK         0.3000 
    175 H175        0.0322  -13.8963  -43.6548 H         1 UNK         0.0600 
    176 H176        0.0020  -12.8460  -41.3837 H         1 UNK         0.0600 
    177 H177        0.1684  -11.2498  -42.1056 H         1 UNK         0.0600 
    178 H178       -1.2855  -12.2067  -42.3940 H         1 UNK         0.0600 
    179 H179       -0.3415  -11.2246  -44.5412 H         1 UNK         0.3000 
    180 H180        0.1988  -10.4024  -46.5899 H         1 UNK         0.0600 
    181 H181        1.2323  -12.3960  -48.6710 H         1 UNK         0.0600 
    182 H182        2.2015  -11.2283  -47.7861 H         1 UNK         0.0600 
    183 H183        0.9849  -10.6710  -48.9266 H         1 UNK         0.0600 
    184 H184       -1.2061  -12.1429  -48.4630 H         1 UNK         0.3000 
    185 H185       -4.3440  -11.9533  -46.9324 H         1 UNK         0.0600 
    186 H186       -4.3890   -9.5613  -47.6427 H         1 UNK         0.0600 
    187 H187       -3.5887   -9.9769  -49.1534 H         1 UNK         0.0600 
    188 H188       -5.2124  -10.5780  -48.8139 H         1 UNK         0.0600 
    189 H189       -3.4716  -12.3658  -49.6694 H         1 UNK         0.3000 
    190 H190       -1.8338  -23.0949  -44.3556 H         1 UNK         0.3000 
    191 H191       -4.3674  -23.8680  -45.4982 H         1 UNK         0.0600 
    192 H192       -4.1931  -22.3804  -43.5058 H         1 UNK         0.0600 
    193 H193       -5.1638  -23.8048  -43.1655 H         1 UNK         0.0600 
    194 H194       -3.5187  -23.7059  -42.5595 H         1 UNK         0.0600 
    195 H195       -1.9084  -25.5725  -43.5205 H         1 UNK         0.3000 
    196 H196       -3.1954  -28.0882  -43.3918 H         1 UNK         0.0600 
    197 H197       -0.9275  -28.9198  -42.7730 H         1 UNK         0.0600 
    198 H198       -1.3000  -27.4229  -41.9305 H         1 UNK         0.0600 
    199 H199       -0.2072  -27.4083  -43.3125 H         1 UNK         0.0600 
    200 H200       -0.9217  -26.7720  -45.8302 H         1 UNK         0.3000 
    201 H201       -0.8543  -29.1431  -47.4694 H         1 UNK         0.0600 
    202 H202        0.3397  -27.6232  -49.0516 H         1 UNK         0.0600 
    203 H203        0.9788  -27.4601  -47.4245 H         1 UNK         0.0600 
    204 H204       -0.1056  -26.2306  -48.0731 H         1 UNK         0.0600 
    205 H205       -3.2535  -26.7573  -47.0683 H         1 UNK         0.3000 
    206 H206       -5.1141  -26.1304  -48.0392 H         1 UNK         0.0600 
    207 H207       -5.5959  -28.5739  -48.3649 H         1 UNK         0.0600 
    208 H208       -6.3420  -27.5664  -49.5940 H         1 UNK         0.0600 
    209 H209       -4.8977  -28.4864  -49.9825 H         1 UNK         0.0600 
    210 H210       -2.4402  -25.2796  -49.0242 H         1 UNK         0.3000 
    211 H211       -2.7729  -24.3639  -51.7821 H         1 UNK         0.0600 
    212 H212       -0.7318  -23.6750  -49.5971 H         1 UNK         0.0600 
    213 H213       -0.6374  -23.1454  -51.2736 H         1 UNK         0.0600 
    214 H214       -0.5126  -24.8553  -50.8859 H         1 UNK         0.0600 
    215 H215       -3.5181  -23.2442  -48.5465 H         1 UNK         0.3000 
    216 H216       -3.8568  -20.4744  -49.0117 H         1 UNK         0.0600 
    217 H217       -5.1315  -20.5386  -46.8770 H         1 UNK         0.0600 
    218 H218       -3.6599  -21.4811  -46.7534 H         1 UNK         0.0600 
    219 H219       -5.2174  -22.2920  -46.9640 H         1 UNK         0.0600 
    220 H220       -5.7266  -23.0009  -50.3066 H         1 UNK         0.3000 
    221 H221       -8.2904  -21.6670  -50.5057 H         1 UNK         0.0600 
    222 H222       -7.0757  -23.9938  -52.0924 H         1 UNK         0.0600 
    223 H223       -8.0615  -24.1445  -50.6385 H         1 UNK         0.0600 
    224 H224       -8.7669  -23.5081  -52.1165 H         1 UNK         0.0600 
    225 H225       -5.2362  -21.3854  -52.2117 H         1 UNK         0.3000 
    226 H226       -6.3458  -20.2136  -54.6552 H         1 UNK         0.0600 
    227 H227       -3.9546  -19.8649  -55.2088 H         1 UNK         0.0600 
    228 H228       -3.4721  -20.3193  -53.5824 H         1 UNK         0.0600 
    229 H229       -4.1933  -21.5168  -54.6578 H         1 UNK         0.0600 
    230 H230       -6.1403  -17.9901  -55.2323 H         1 UNK         0.3000 
    231 H231       -6.3734  -16.0809  -53.0430 H         1 UNK         0.0600 
    232 H232       -6.3602  -15.6930  -56.0836 H         1 UNK         0.0600 
    233 H233       -6.7889  -14.4701  -54.8936 H         1 UNK         0.0600 
    234 H234       -7.7904  -15.9018  -55.0720 H         1 UNK         0.0600 
    235 H235       -3.8464  -17.1030  -55.2660 H         1 UNK         0.3000 
    236 H236       -1.9917  -14.9504  -54.3422 H         1 UNK         0.0600 
    237 H237       -2.5768  -14.7715  -56.7727 H         1 UNK         0.0600 
    238 H238       -0.8945  -15.2284  -56.5618 H         1 UNK         0.0600 
    239 H239       -2.0791  -16.4441  -57.0243 H         1 UNK         0.0600 
    240 H240        0.2697  -15.6190  -54.3018 H         1 UNK         0.3000 
    241 H241        0.6464  -18.0424  -52.8391 H         1 UNK         0.0600 
    242 H242        1.8735  -19.9562  -53.3428 H         1 UNK         0.3800 
    243 H243        2.2428  -20.3602  -54.9947 H         1 UNK         0.3800 
    244 H244        2.9822  -17.3253  -52.6060 H         1 UNK         0.0800 
    245 H245        2.8306  -16.1980  -53.9267 H         1 UNK         0.0800 
    246 H246        3.0112  -16.3816  -50.1586 H         1 UNK         0.0800 
    247 H247        1.7015  -15.3913  -49.5536 H         1 UNK         0.0800 
@<TRIPOS>BOND
     1    1    2 1    
     2    1  127 1    
     3    1  128 1    
     4    1  129 1    
     5    2    3 2    
     6    2    4 am   BACKBONE|DICT|INTERRES
     7    4    5 1    
     8    4  130 1    
     9    5    6 1    
    10    5   65 1    
    11    5  131 1    
    12    6    7 1    
    13    6  132 1    
    14    6  133 1    
    15    7    8 1    
    16    8    9 1    
    17    8  134 1    
    18    8  135 1    
    19    9   10 ar   
    20    9   14 ar   
    21   10   11 ar   
    22   10  136 1    
    23   11   12 ar   
    24   11  126 1    
    25   12   13 ar   
    26   12  137 1    
    27   13   14 ar   
    28   13   15 1    
    29   14  138 1    
    30   15   16 1    
    31   15  139 1    
    32   15  140 1    
    33   16   17 1    
    34   17   18 1    
    35   17  141 1    
    36   17  142 1    
    37   18   19 1    
    38   18   67 1    
    39   18  143 1    
    40   19   20 am   BACKBONE|DICT|INTERRES
    41   19  144 1    
    42   20   21 2    
    43   20   22 1    
    44   22   23 1    
    45   22   24 1    
    46   22  145 1    
    47   23  146 1    
    48   23  147 1    
    49   23  148 1    
    50   24   25 am   BACKBONE|DICT|INTERRES
    51   24  149 1    
    52   25   26 2    
    53   25   27 1    
    54   27   28 1    
    55   27   29 1    
    56   27  150 1    
    57   28  151 1    
    58   28  152 1    
    59   28  153 1    
    60   29   30 am   BACKBONE|DICT|INTERRES
    61   29  154 1    
    62   30   31 2    
    63   30   32 1    
    64   32   33 1    
    65   32   34 1    
    66   32  155 1    
    67   33  156 1    
    68   33  157 1    
    69   33  158 1    
    70   34   35 am   BACKBONE|DICT|INTERRES
    71   34  159 1    
    72   35   36 2    
    73   35   37 1    
    74   37   38 1    
    75   37   39 1    
    76   37  160 1    
    77   38  161 1    
    78   38  162 1    
    79   38  163 1    
    80   39   40 am   BACKBONE|DICT|INTERRES
    81   39  164 1    
    82   40   41 2    
    83   40   42 1    
    84   42   43 1    
    85   42   44 1    
    86   42  165 1    
    87   43  166 1    
    88   43  167 1    
    89   43  168 1    
    90   44   45 am   BACKBONE|DICT|INTERRES
    91   44  169 1    
    92   45   46 2    
    93   45   47 1    
    94   47   48 1    
    95   47   49 1    
    96   47  170 1    
    97   48  171 1    
    98   48  172 1    
    99   48  173 1    
   100   49   50 am   BACKBONE|DICT|INTERRES
   101   49  174 1    
   102   50   51 2    
   103   50   52 1    
   104   52   53 1    
   105   52   54 1    
   106   52  175 1    
   107   53  176 1    
   108   53  177 1    
   109   53  178 1    
   110   54   55 am   BACKBONE|DICT|INTERRES
   111   54  179 1    
   112   55   56 2    
   113   55   57 1    
   114   57   58 1    
   115   57   59 1    
   116   57  180 1    
   117   58  181 1    
   118   58  182 1    
   119   58  183 1    
   120   59   60 am   BACKBONE|DICT|INTERRES
   121   59  184 1    
   122   60   61 2    
   123   60   62 1    
   124   62   63 1    
   125   62   64 1    
   126   62  185 1    
   127   63  186 1    
   128   63  187 1    
   129   63  188 1    
   130   64   65 am   BACKBONE|DICT|INTERRES
   131   64  189 1    
   132   65   66 2    
   133   67   68 2    
   134   67   69 am   BACKBONE|DICT|INTERRES
   135   69   70 1    
   136   69  190 1    
   137   70   71 1    
   138   70   72 1    
   139   70  191 1    
   140   71  192 1    
   141   71  193 1    
   142   71  194 1    
   143   72   73 2    
   144   72   74 am   BACKBONE|DICT|INTERRES
   145   74   75 1    
   146   74  195 1    
   147   75   76 1    
   148   75   77 1    
   149   75  196 1    
   150   76  197 1    
   151   76  198 1    
   152   76  199 1    
   153   77   78 2    
   154   77   79 am   BACKBONE|DICT|INTERRES
   155   79   80 1    
   156   79  200 1    
   157   80   81 1    
   158   80   82 1    
   159   80  201 1    
   160   81  202 1    
   161   81  203 1    
   162   81  204 1    
   163   82   83 2    
   164   82   84 am   BACKBONE|DICT|INTERRES
   165   84   85 1    
   166   84  205 1    
   167   85   86 1    
   168   85   87 1    
   169   85  206 1    
   170   86  207 1    
   171   86  208 1    
   172   86  209 1    
   173   87   88 2    
   174   87   89 am   BACKBONE|DICT|INTERRES
   175   89   90 1    
   176   89  210 1    
   177   90   91 1    
   178   90   92 1    
   179   90  211 1    
   180   91  212 1    
   181   91  213 1    
   182   91  214 1    
   183   92   93 2    
   184   92   94 am   BACKBONE|DICT|INTERRES
   185   94   95 1    
   186   94  215 1    
   187   95   96 1    
   188   95   97 1    
   189   95  216 1    
   190   96  217 1    
   191   96  218 1    
   192   96  219 1    
   193   97   98 2    
   194   97   99 am   BACKBONE|DICT|INTERRES
   195   99  100 1    
   196   99  220 1    
   197  100  101 1    
   198  100  102 1    
   199  100  221 1    
   200  101  222 1    
   201  101  223 1    
   202  101  224 1    
   203  102  103 2    
   204  102  104 am   BACKBONE|DICT|INTERRES
   205  104  105 1    
   206  104  225 1    
   207  105  106 1    
   208  105  107 1    
   209  105  226 1    
   210  106  227 1    
   211  106  228 1    
   212  106  229 1    
   213  107  108 2    
   214  107  109 am   BACKBONE|DICT|INTERRES
   215  109  110 1    
   216  109  230 1    
   217  110  111 1    
   218  110  112 1    
   219  110  231 1    
   220  111  232 1    
   221  111  233 1    
   222  111  234 1    
   223  112  113 2    
   224  112  114 am   BACKBONE|DICT|INTERRES
   225  114  115 1    
   226  114  235 1    
   227  115  116 1    
   228  115  117 1    
   229  115  236 1    
   230  116  237 1    
   231  116  238 1    
   232  116  239 1    
   233  117  118 2    
   234  117  119 am   BACKBONE|DICT|INTERRES
   235  119  120 1    
   236  119  240 1    
   237  120  121 1    
   238  120  124 1    
   239  120  241 1    
   240  121  122 am   BACKBONE|DICT|INTERRES
   241  121  123 2    
   242  122  242 1    
   243  122  243 1    
   244  124  125 1    
   245  124  244 1    
   246  124  245 1    
   247  125  126 1    
   248  126  246 1    
   249  126  247 1    
@<TRIPOS>SUBSTRUCTURE
     1 UNK         1 GROUP             0       ****    0 ROOT    
