@<TRIPOS>MOLECULE
3R540
247   249    1
SMALL
USER_CHARGES


@<TRIPOS>ATOM
      1 CA         -0.3702  -13.9868  -52.5158 C.3       0 UNK        -0.1800 
      2 C           0.0205  -13.1629  -51.2954 C.2       0 UNK         0.5000 
      3 O          -0.2051  -11.9524  -51.2744 O.2       0 UNK        -0.5000 
      4 N           0.6124  -13.8115  -50.2863 N.am      1 UNK        -0.5000 
      5 CA          0.9793  -13.2189  -48.9968 C.3       1 UNK         0.1400 
      6 C6          2.1110  -14.0249  -48.3034 C.3       23 UNK        -0.0398 
      7 S7          1.7200  -15.7895  -48.0189 S.3       23 UNK        -0.2404 
      8 C8          2.7177  -16.5837  -49.3167 C.3       23 UNK        -0.0205 
      9 C9          2.0593  -17.8581  -49.8169 C.ar      23 UNK        -0.0193 
     10 C10         0.9829  -17.7790  -50.7023 C.ar      23 UNK        -0.1150 
     11 C11         0.3869  -18.9353  -51.2090 C.ar      23 UNK        -0.0193 
     12 C12         0.8650  -20.1864  -50.8054 C.ar      23 UNK        -0.1150 
     13 C13         1.9389  -20.2819  -49.9105 C.ar      23 UNK        -0.0193 
     14 C14         2.5350  -19.1118  -49.4257 C.ar      23 UNK        -0.1150 
     15 C15         2.4637  -21.6507  -49.4843 C.3       23 UNK        -0.0205 
     16 S16         2.5759  -21.8447  -47.6719 S.3       23 UNK        -0.2404 
     17 C17         0.8598  -21.4928  -47.1743 C.3       23 UNK        -0.0398 
     18 CA          0.2813  -22.5359  -46.1900 C.3       11 UNK         0.1400 
     19 N           0.9721  -22.5073  -44.9023 N.am      11 UNK        -0.5000 
     20 C           1.2399  -23.5629  -44.1267 C.2       10 UNK         0.5000 
     21 O           0.9194  -24.7177  -44.4127 O.2       10 UNK        -0.5000 
     22 CA          1.9733  -23.2605  -42.8005 C.3       10 UNK         0.1400 
     23 CB          2.7311  -24.4781  -42.2320 C.3       10 UNK        -0.1800 
     24 N           2.8427  -22.0800  -42.8835 N.am      10 UNK        -0.5000 
     25 C           3.9405  -21.9167  -43.6391 C.2       9 UNK         0.5000 
     26 O           4.4407  -22.8097  -44.3236 O.2       9 UNK        -0.5000 
     27 CA          4.5859  -20.5139  -43.6563 C.3       9 UNK         0.1400 
     28 CB          4.3718  -19.8456  -45.0243 C.3       9 UNK        -0.1800 
     29 N           4.0765  -19.6175  -42.6163 N.am      9 UNK        -0.5000 
     30 C           4.3913  -19.6844  -41.3160 C.2       8 UNK         0.5000 
     31 O           5.2056  -20.4816  -40.8495 O.2       8 UNK        -0.5000 
     32 CA          3.6361  -18.7261  -40.3731 C.3       8 UNK         0.1400 
     33 CB          4.3368  -17.3610  -40.3046 C.3       8 UNK        -0.1800 
     34 N           2.2318  -18.5391  -40.7509 N.am      8 UNK        -0.5000 
     35 C           1.3091  -19.5124  -40.7465 C.2       7 UNK         0.5000 
     36 O           1.5372  -20.6688  -40.3921 O.2       7 UNK        -0.5000 
     37 CA         -0.0883  -19.1560  -41.2805 C.3       7 UNK         0.1400 
     38 CB         -0.9201  -18.4282  -40.2148 C.3       7 UNK        -0.1800 
     39 N          -0.0331  -18.3573  -42.5055 N.am      7 UNK        -0.5000 
     40 C           0.4447  -18.8007  -43.6767 C.2       6 UNK         0.5000 
     41 O           0.8215  -19.9565  -43.8592 O.2       6 UNK        -0.5000 
     42 CA          0.5540  -17.7865  -44.8280 C.3       6 UNK         0.1400 
     43 CB         -0.7875  -17.6507  -45.5625 C.3       6 UNK        -0.1800 
     44 N           1.0113  -16.4757  -44.3704 N.am      6 UNK        -0.5000 
     45 C           2.2083  -16.2417  -43.8144 C.2       5 UNK         0.5000 
     46 O           3.0774  -17.1011  -43.6748 O.2       5 UNK        -0.5000 
     47 CA          2.4497  -14.8285  -43.2596 C.3       5 UNK         0.1400 
     48 CB          2.8617  -13.8531  -44.3709 C.3       5 UNK        -0.1800 
     49 N           1.2722  -14.3129  -42.5629 N.am      5 UNK        -0.5000 
     50 C           0.8322  -14.7708  -41.3832 C.2       4 UNK         0.5000 
     51 O           1.4010  -15.6509  -40.7368 O.2       4 UNK        -0.5000 
     52 CA         -0.4844  -14.1680  -40.8586 C.3       4 UNK         0.1400 
     53 CB         -0.2209  -12.8407  -40.1320 C.3       4 UNK        -0.1800 
     54 N          -1.4687  -13.9526  -41.9216 N.am      4 UNK        -0.5000 
     55 C          -2.0765  -14.9392  -42.5955 C.2       3 UNK         0.5000 
     56 O          -1.8916  -16.1337  -42.3689 O.2       3 UNK        -0.5000 
     57 CA         -3.0122  -14.5248  -43.7473 C.3       3 UNK         0.1400 
     58 CB         -4.4254  -14.2406  -43.2173 C.3       3 UNK        -0.1800 
     59 N          -2.5396  -13.3702  -44.5197 N.am      3 UNK        -0.5000 
     60 C          -1.3665  -13.3117  -45.1638 C.2       2 UNK         0.5000 
     61 O          -0.5137  -14.1990  -45.1042 O.2       2 UNK        -0.5000 
     62 CA         -1.0794  -12.0256  -45.9625 C.3       2 UNK         0.1400 
     63 CB         -0.5634  -10.9257  -45.0212 C.3       2 UNK        -0.1800 
     64 N          -0.0866  -12.2375  -47.0188 N.am      2 UNK        -0.5000 
     65 C          -0.2564  -13.0333  -48.0841 C.2       1 UNK         0.5000 
     66 O          -1.3206  -13.6024  -48.3461 O.2       1 UNK        -0.5000 
     67 C          -1.2235  -22.2599  -46.0316 C.2       11 UNK         0.5000 
     68 O          -1.9645  -22.5665  -46.9623 O.2       11 UNK        -0.5000 
     69 N          -1.6475  -21.6543  -44.9096 N.am      12 UNK        -0.5000 
     70 CA         -2.9758  -21.0629  -44.6834 C.3       12 UNK         0.1400 
     71 CB         -3.0977  -20.6175  -43.2190 C.3       12 UNK        -0.1800 
     72 C          -4.1866  -21.9276  -45.0853 C.2       12 UNK         0.5000 
     73 O          -5.1400  -21.3999  -45.6581 O.2       12 UNK        -0.5000 
     74 N          -4.1109  -23.2381  -44.8189 N.am      13 UNK        -0.5000 
     75 CA         -5.1430  -24.2171  -45.1705 C.3       13 UNK         0.1400 
     76 CB         -4.8096  -25.5574  -44.4981 C.3       13 UNK        -0.1800 
     77 C          -5.3286  -24.4081  -46.6901 C.2       13 UNK         0.5000 
     78 O          -6.4387  -24.7113  -47.1284 O.2       13 UNK        -0.5000 
     79 N          -4.2493  -24.2227  -47.4605 N.am      14 UNK        -0.5000 
     80 CA         -4.2437  -24.2824  -48.9199 C.3       14 UNK         0.1400 
     81 CB         -2.9177  -24.8973  -49.3954 C.3       14 UNK        -0.1800 
     82 C          -4.4380  -22.8827  -49.5211 C.2       14 UNK         0.5000 
     83 O          -5.2146  -22.7277  -50.4637 O.2       14 UNK        -0.5000 
     84 N          -3.7506  -21.8793  -48.9559 N.am      15 UNK        -0.5000 
     85 CA         -3.7609  -20.4786  -49.3869 C.3       15 UNK         0.1400 
     86 CB         -2.7094  -19.6867  -48.5971 C.3       15 UNK        -0.1800 
     87 C          -5.1438  -19.8056  -49.2980 C.2       15 UNK         0.5000 
     88 O          -5.4048  -18.8761  -50.0609 O.2       15 UNK        -0.5000 
     89 N          -6.0343  -20.3310  -48.4440 N.am      16 UNK        -0.5000 
     90 CA         -7.4608  -19.9920  -48.3945 C.3       16 UNK         0.1400 
     91 CB         -8.1116  -20.7490  -47.2270 C.3       16 UNK        -0.1800 
     92 C          -8.2183  -20.2829  -49.7107 C.2       16 UNK         0.5000 
     93 O          -9.2174  -19.6202  -49.9906 O.2       16 UNK        -0.5000 
     94 N          -7.7144  -21.2396  -50.5019 N.am      17 UNK        -0.5000 
     95 CA         -8.1732  -21.5798  -51.8494 C.3       17 UNK         0.1400 
     96 CB         -8.5081  -23.0815  -51.8841 C.3       17 UNK        -0.1800 
     97 C          -7.1070  -21.2080  -52.9040 C.2       17 UNK         0.5000 
     98 O          -7.1016  -21.7776  -53.9965 O.2       17 UNK        -0.5000 
     99 N          -6.1981  -20.2841  -52.5494 N.am      18 UNK        -0.5000 
    100 CA        -5.0605  -19.7822  -53.3306 C.3       18 UNK         0.1400 
    101 CB        -5.5513  -19.0437  -54.5916 C.3       18 UNK        -0.1800 
    102 C         -3.9928  -20.8477  -53.6597 C.2       18 UNK         0.5000 
    103 O         -3.1701  -20.6262  -54.5492 O.2       18 UNK        -0.5000 
    104 N         -4.0257  -21.9960  -52.9670 N.am      19 UNK        -0.5000 
    105 CA        -3.1420  -23.1617  -53.1090 C.3       19 UNK         0.1400 
    106 CB        -1.7377  -22.8210  -52.5698 C.3       19 UNK        -0.1800 
    107 C         -3.0935  -23.7685  -54.5309 C.2       19 UNK         0.5000 
    108 O         -2.1668  -24.5188  -54.8397 O.2       19 UNK        -0.5000 
    109 N         -4.0764  -23.4103  -55.3734 N.am      20 UNK        -0.5000 
    110 CA        -4.1549  -23.6568  -56.8169 C.3       20 UNK         0.1400 
    111 CB        -4.3944  -25.1549  -57.0979 C.3       20 UNK        -0.1800 
    112 C         -2.9537  -23.0800  -57.6059 C.2       20 UNK         0.5000 
    113 O         -2.5987  -23.6246  -58.6535 O.2       20 UNK        -0.5000 
    114 N         -2.3409  -22.0019  -57.0926 N.am      21 UNK        -0.5000 
    115 CA        -1.1081  -21.4217  -57.6310 C.3       21 UNK         0.1400 
    116 CB         0.1009  -22.0416  -56.9096 C.3       21 UNK        -0.1800 
    117 C         -1.0684  -19.8889  -57.5284 C.2       21 UNK         0.5000 
    118 O         -0.5209  -19.2442  -58.4240 O.2       21 UNK        -0.5000 
    119 N         -1.6352  -19.3267  -56.4547 N.am      22 UNK        -0.5000 
    120 CA        -1.6354  -17.8834  -56.1621 C.3       22 UNK         0.1400 
    121 C         -2.7791  -17.0885  -56.8591 C.2       22 UNK         0.5000 
    122 N         -3.6729  -17.7212  -57.6095 N.am      22 UNK        -0.7600 
    123 O         -2.8506  -15.8698  -56.7276 O.2       22 UNK        -0.5000 
    124 C124       -1.6050  -17.6138  -54.6340 C.3       23 UNK        -0.0398 
    125 S125       -0.1161  -18.3085  -53.8384 S.3       23 UNK        -0.2404 
    126 C126       -0.7537  -18.8083  -52.2080 C.3       23 UNK        -0.0205 
    127 H127       -0.0242  -15.0177  -52.4416 H         1 UNK         0.0600 
    128 H128       -1.4543  -13.9996  -52.6281 H         1 UNK         0.0600 
    129 H129        0.0612  -13.5513  -53.4171 H         1 UNK         0.0600 
    130 H130        0.7224  -14.8127  -50.3343 H         1 UNK         0.3000 
    131 H131        1.3730  -12.2191  -49.1933 H         1 UNK         0.0600 
    132 H132        2.3713  -13.5739  -47.3467 H         1 UNK         0.0800 
    133 H133        3.0219  -13.9497  -48.8985 H         1 UNK         0.0800 
    134 H134        3.7154  -16.7886  -48.9256 H         1 UNK         0.0800 
    135 H135        2.8526  -15.9074  -50.1620 H         1 UNK         0.0800 
    136 H136        0.6174  -16.8134  -51.0168 H         1 UNK         0.1150 
    137 H137        0.4088  -21.0842  -51.1974 H         1 UNK         0.1150 
    138 H138        3.3701  -19.1795  -48.7425 H         1 UNK         0.1150 
    139 H139        1.8337  -22.4478  -49.8822 H         1 UNK         0.0800 
    140 H140        3.4546  -21.7966  -49.9159 H         1 UNK         0.0800 
    141 H141        0.2471  -21.4519  -48.0766 H         1 UNK         0.0800 
    142 H142        0.8300  -20.4900  -46.7443 H         1 UNK         0.0800 
    143 H143        0.3823  -23.5261  -46.6396 H         1 UNK         0.0600 
    144 H144        1.2224  -21.5836  -44.5557 H         1 UNK         0.3000 
    145 H145        1.1929  -23.0013  -42.0838 H         1 UNK         0.0600 
    146 H146        3.2390  -24.2258  -41.3011 H         1 UNK         0.0600 
    147 H147        2.0451  -25.2973  -42.0144 H         1 UNK         0.0600 
    148 H148        3.4772  -24.8565  -42.9309 H         1 UNK         0.0600 
    149 H149        2.5208  -21.2773  -42.3580 H         1 UNK         0.3000 
    150 H150        5.6591  -20.6452  -43.5048 H         1 UNK         0.0600 
    151 H151        4.7855  -20.4552  -45.8285 H         1 UNK         0.0600 
    152 H152        4.8609  -18.8725  -45.0708 H         1 UNK         0.0600 
    153 H153        3.3125  -19.6983  -45.2373 H         1 UNK         0.0600 
    154 H154        3.4581  -18.8733  -42.9265 H         1 UNK         0.3000 
    155 H155        3.6542  -19.1654  -39.3736 H         1 UNK         0.0600 
    156 H156        4.3387  -16.8592  -41.2722 H         1 UNK         0.0600 
    157 H157        5.3752  -17.4706  -39.9896 H         1 UNK         0.0600 
    158 H158        3.8469  -16.7020  -39.5875 H         1 UNK         0.0600 
    159 H159        1.9535  -17.6007  -41.0192 H         1 UNK         0.3000 
    160 H160       -0.5928  -20.0954  -41.5136 H         1 UNK         0.0600 
    161 H161       -1.9416  -18.2651  -40.5586 H         1 UNK         0.0600 
    162 H162       -0.4936  -17.4577  -39.9616 H         1 UNK         0.0600 
    163 H163       -0.9763  -19.0130  -39.2959 H         1 UNK         0.0600 
    164 H164       -0.4047  -17.4138  -42.4513 H         1 UNK         0.3000 
    165 H165        1.2924  -18.1635  -45.5386 H         1 UNK         0.0600 
    166 H166       -0.7150  -16.9447  -46.3902 H         1 UNK         0.0600 
    167 H167       -1.1003  -18.6086  -45.9790 H         1 UNK         0.0600 
    168 H168       -1.5788  -17.3055  -44.8973 H         1 UNK         0.0600 
    169 H169        0.3758  -15.6922  -44.5064 H         1 UNK         0.3000 
    170 H170        3.2727  -14.8896  -42.5444 H         1 UNK         0.0600 
    171 H171        3.7157  -14.2354  -44.9316 H         1 UNK         0.0600 
    172 H172        2.0506  -13.6872  -45.0778 H         1 UNK         0.0600 
    173 H173        3.1478  -12.8855  -43.9586 H         1 UNK         0.0600 
    174 H174        0.7068  -13.6444  -43.0646 H         1 UNK         0.3000 
    175 H175       -0.9085  -14.8717  -40.1391 H         1 UNK         0.0600 
    176 H176       -1.1355  -12.4456  -39.6894 H         1 UNK         0.0600 
    177 H177        0.4985  -12.9754  -39.3232 H         1 UNK         0.0600 
    178 H178        0.1808  -12.0833  -40.8062 H         1 UNK         0.0600 
    179 H179       -1.6751  -12.9971  -42.1723 H         1 UNK         0.3000 
    180 H180       -3.0736  -15.3710  -44.4345 H         1 UNK         0.0600 
    181 H181       -4.4408  -13.3748  -42.5542 H         1 UNK         0.0600 
    182 H182       -4.8100  -15.0924  -42.6545 H         1 UNK         0.0600 
    183 H183       -5.1228  -14.0518  -44.0337 H         1 UNK         0.0600 
    184 H184       -3.1796  -12.5931  -44.5987 H         1 UNK         0.3000 
    185 H185       -2.0082  -11.6902  -46.4284 H         1 UNK         0.0600 
    186 H186        0.3699  -11.2159  -44.5361 H         1 UNK         0.0600 
    187 H187       -0.3854   -9.9956  -45.5614 H         1 UNK         0.0600 
    188 H188       -1.2873  -10.7071  -44.2351 H         1 UNK         0.0600 
    189 H189        0.8146  -11.8105  -46.8664 H         1 UNK         0.3000 
    190 H190       -0.9459  -21.4396  -44.2146 H         1 UNK         0.3000 
    191 H191       -3.0250  -20.1626  -45.2963 H         1 UNK         0.0600 
    192 H192       -2.4225  -19.7908  -43.0063 H         1 UNK         0.0600 
    193 H193       -2.8725  -21.4305  -42.5281 H         1 UNK         0.0600 
    194 H194       -4.1055  -20.2645  -42.9950 H         1 UNK         0.0600 
    195 H195       -3.2810  -23.5900  -44.3647 H         1 UNK         0.3000 
    196 H196       -6.0934  -23.8605  -44.7678 H         1 UNK         0.0600 
    197 H197       -5.5725  -26.3055  -44.7180 H         1 UNK         0.0600 
    198 H198       -4.7610  -25.4541  -43.4139 H         1 UNK         0.0600 
    199 H199       -3.8530  -25.9529  -44.8421 H         1 UNK         0.0600 
    200 H200       -3.3916  -23.9005  -47.0250 H         1 UNK         0.3000 
    201 H201       -5.0576  -24.9196  -49.2722 H         1 UNK         0.0600 
    202 H202       -2.7699  -25.8886  -48.9668 H         1 UNK         0.0600 
    203 H203       -2.0596  -24.2837  -49.1182 H         1 UNK         0.0600 
    204 H204       -2.9035  -25.0104  -50.4790 H         1 UNK         0.0600 
    205 H205       -3.1211  -22.1065  -48.1879 H         1 UNK         0.3000 
    206 H206       -3.4659  -20.4641  -50.4378 H         1 UNK         0.0600 
    207 H207       -1.7144  -20.1117  -48.7271 H         1 UNK         0.0600 
    208 H208       -2.6632  -18.6505  -48.9350 H         1 UNK         0.0600 
    209 H209       -2.9362  -19.6746  -47.5325 H         1 UNK         0.0600 
    210 H210       -5.7202  -21.0493  -47.8029 H         1 UNK         0.3000 
    211 H211       -7.5423  -18.9209  -48.1996 H         1 UNK         0.0600 
    212 H212       -8.0006  -21.8288  -47.3369 H         1 UNK         0.0600 
    213 H213       -9.1786  -20.5314  -47.1629 H         1 UNK         0.0600 
    214 H214       -7.6660  -20.4619  -46.2745 H         1 UNK         0.0600 
    215 H215       -6.8749  -21.7282  -50.2044 H         1 UNK         0.3000 
    216 H216       -9.0765  -21.0210  -52.1004 H         1 UNK         0.0600 
    217 H217       -8.9153  -23.3735  -52.8528 H         1 UNK         0.0600 
    218 H218       -9.2542  -23.3351  -51.1310 H         1 UNK         0.0600 
    219 H219       -7.6243  -23.6934  -51.6989 H         1 UNK         0.0600 
    220 H220       -6.2816  -19.8739  -51.6257 H         1 UNK         0.3000 
    221 H221       -4.5601  -19.0493  -52.6968 H         1 UNK         0.0600 
    222 H222       -5.9788  -19.7282  -55.3247 H         1 UNK         0.0600 
    223 H223       -6.3085  -18.2999  -54.3443 H         1 UNK         0.0600 
    224 H224       -4.7331  -18.5165  -55.0795 H         1 UNK         0.0600 
    225 H225       -4.7355  -22.0970  -52.2477 H         1 UNK         0.3000 
    226 H226       -3.5670  -23.9385  -52.4738 H         1 UNK         0.0600 
    227 H227       -1.7921  -22.4079  -51.5624 H         1 UNK         0.0600 
    228 H228       -1.2281  -22.0959  -53.2052 H         1 UNK         0.0600 
    229 H229       -1.1086  -23.7102  -52.5190 H         1 UNK         0.0600 
    230 H230       -4.7942  -22.8029  -55.0009 H         1 UNK         0.3000 
    231 H231       -5.0321  -23.1120  -57.1684 H         1 UNK         0.0600 
    232 H232       -5.2487  -25.5298  -56.5342 H         1 UNK         0.0600 
    233 H233       -3.5266  -25.7601  -56.8344 H         1 UNK         0.0600 
    234 H234       -4.6046  -25.3274  -58.1540 H         1 UNK         0.0600 
    235 H235       -2.6959  -21.6047  -56.2292 H         1 UNK         0.3000 
    236 H236       -1.0274  -21.6564  -58.6945 H         1 UNK         0.0600 
    237 H237        1.0375  -21.6255  -57.2827 H         1 UNK         0.0600 
    238 H238        0.0619  -21.8574  -55.8349 H         1 UNK         0.0600 
    239 H239        0.1401  -23.1204  -57.0616 H         1 UNK         0.0600 
    240 H240       -2.0842  -19.9052  -55.7488 H         1 UNK         0.3000 
    241 H241       -0.7153  -17.4610  -56.5704 H         1 UNK         0.0600 
    242 H242       -4.4035  -17.1954  -58.0628 H         1 UNK         0.3800 
    243 H243       -3.6169  -18.7185  -57.7367 H         1 UNK         0.3800 
    244 H244       -1.6098  -16.5417  -54.4298 H         1 UNK         0.0800 
    245 H245       -2.4981  -18.0190  -54.1586 H         1 UNK         0.0800 
    246 H246       -1.2993  -19.7479  -52.3024 H         1 UNK         0.0800 
    247 H247       -1.4666  -18.0664  -51.8448 H         1 UNK         0.0800 
@<TRIPOS>BOND
     1    1    2 1    
     2    1  127 1    
     3    1  128 1    
     4    1  129 1    
     5    2    3 2    
     6    2    4 am   BACKBONE|DICT|INTERRES
     7    4    5 1    
     8    4  130 1    
     9    5    6 1    
    10    5   65 1    
    11    5  131 1    
    12    6    7 1    
    13    6  132 1    
    14    6  133 1    
    15    7    8 1    
    16    8    9 1    
    17    8  134 1    
    18    8  135 1    
    19    9   10 ar   
    20    9   14 ar   
    21   10   11 ar   
    22   10  136 1    
    23   11   12 ar   
    24   11  126 1    
    25   12   13 ar   
    26   12  137 1    
    27   13   14 ar   
    28   13   15 1    
    29   14  138 1    
    30   15   16 1    
    31   15  139 1    
    32   15  140 1    
    33   16   17 1    
    34   17   18 1    
    35   17  141 1    
    36   17  142 1    
    37   18   19 1    
    38   18   67 1    
    39   18  143 1    
    40   19   20 am   BACKBONE|DICT|INTERRES
    41   19  144 1    
    42   20   21 2    
    43   20   22 1    
    44   22   23 1    
    45   22   24 1    
    46   22  145 1    
    47   23  146 1    
    48   23  147 1    
    49   23  148 1    
    50   24   25 am   BACKBONE|DICT|INTERRES
    51   24  149 1    
    52   25   26 2    
    53   25   27 1    
    54   27   28 1    
    55   27   29 1    
    56   27  150 1    
    57   28  151 1    
    58   28  152 1    
    59   28  153 1    
    60   29   30 am   BACKBONE|DICT|INTERRES
    61   29  154 1    
    62   30   31 2    
    63   30   32 1    
    64   32   33 1    
    65   32   34 1    
    66   32  155 1    
    67   33  156 1    
    68   33  157 1    
    69   33  158 1    
    70   34   35 am   BACKBONE|DICT|INTERRES
    71   34  159 1    
    72   35   36 2    
    73   35   37 1    
    74   37   38 1    
    75   37   39 1    
    76   37  160 1    
    77   38  161 1    
    78   38  162 1    
    79   38  163 1    
    80   39   40 am   BACKBONE|DICT|INTERRES
    81   39  164 1    
    82   40   41 2    
    83   40   42 1    
    84   42   43 1    
    85   42   44 1    
    86   42  165 1    
    87   43  166 1    
    88   43  167 1    
    89   43  168 1    
    90   44   45 am   BACKBONE|DICT|INTERRES
    91   44  169 1    
    92   45   46 2    
    93   45   47 1    
    94   47   48 1    
    95   47   49 1    
    96   47  170 1    
    97   48  171 1    
    98   48  172 1    
    99   48  173 1    
   100   49   50 am   BACKBONE|DICT|INTERRES
   101   49  174 1    
   102   50   51 2    
   103   50   52 1    
   104   52   53 1    
   105   52   54 1    
   106   52  175 1    
   107   53  176 1    
   108   53  177 1    
   109   53  178 1    
   110   54   55 am   BACKBONE|DICT|INTERRES
   111   54  179 1    
   112   55   56 2    
   113   55   57 1    
   114   57   58 1    
   115   57   59 1    
   116   57  180 1    
   117   58  181 1    
   118   58  182 1    
   119   58  183 1    
   120   59   60 am   BACKBONE|DICT|INTERRES
   121   59  184 1    
   122   60   61 2    
   123   60   62 1    
   124   62   63 1    
   125   62   64 1    
   126   62  185 1    
   127   63  186 1    
   128   63  187 1    
   129   63  188 1    
   130   64   65 am   BACKBONE|DICT|INTERRES
   131   64  189 1    
   132   65   66 2    
   133   67   68 2    
   134   67   69 am   BACKBONE|DICT|INTERRES
   135   69   70 1    
   136   69  190 1    
   137   70   71 1    
   138   70   72 1    
   139   70  191 1    
   140   71  192 1    
   141   71  193 1    
   142   71  194 1    
   143   72   73 2    
   144   72   74 am   BACKBONE|DICT|INTERRES
   145   74   75 1    
   146   74  195 1    
   147   75   76 1    
   148   75   77 1    
   149   75  196 1    
   150   76  197 1    
   151   76  198 1    
   152   76  199 1    
   153   77   78 2    
   154   77   79 am   BACKBONE|DICT|INTERRES
   155   79   80 1    
   156   79  200 1    
   157   80   81 1    
   158   80   82 1    
   159   80  201 1    
   160   81  202 1    
   161   81  203 1    
   162   81  204 1    
   163   82   83 2    
   164   82   84 am   BACKBONE|DICT|INTERRES
   165   84   85 1    
   166   84  205 1    
   167   85   86 1    
   168   85   87 1    
   169   85  206 1    
   170   86  207 1    
   171   86  208 1    
   172   86  209 1    
   173   87   88 2    
   174   87   89 am   BACKBONE|DICT|INTERRES
   175   89   90 1    
   176   89  210 1    
   177   90   91 1    
   178   90   92 1    
   179   90  211 1    
   180   91  212 1    
   181   91  213 1    
   182   91  214 1    
   183   92   93 2    
   184   92   94 am   BACKBONE|DICT|INTERRES
   185   94   95 1    
   186   94  215 1    
   187   95   96 1    
   188   95   97 1    
   189   95  216 1    
   190   96  217 1    
   191   96  218 1    
   192   96  219 1    
   193   97   98 2    
   194   97   99 am   BACKBONE|DICT|INTERRES
   195   99  100 1    
   196   99  220 1    
   197  100  101 1    
   198  100  102 1    
   199  100  221 1    
   200  101  222 1    
   201  101  223 1    
   202  101  224 1    
   203  102  103 2    
   204  102  104 am   BACKBONE|DICT|INTERRES
   205  104  105 1    
   206  104  225 1    
   207  105  106 1    
   208  105  107 1    
   209  105  226 1    
   210  106  227 1    
   211  106  228 1    
   212  106  229 1    
   213  107  108 2    
   214  107  109 am   BACKBONE|DICT|INTERRES
   215  109  110 1    
   216  109  230 1    
   217  110  111 1    
   218  110  112 1    
   219  110  231 1    
   220  111  232 1    
   221  111  233 1    
   222  111  234 1    
   223  112  113 2    
   224  112  114 am   BACKBONE|DICT|INTERRES
   225  114  115 1    
   226  114  235 1    
   227  115  116 1    
   228  115  117 1    
   229  115  236 1    
   230  116  237 1    
   231  116  238 1    
   232  116  239 1    
   233  117  118 2    
   234  117  119 am   BACKBONE|DICT|INTERRES
   235  119  120 1    
   236  119  240 1    
   237  120  121 1    
   238  120  124 1    
   239  120  241 1    
   240  121  122 am   BACKBONE|DICT|INTERRES
   241  121  123 2    
   242  122  242 1    
   243  122  243 1    
   244  124  125 1    
   245  124  244 1    
   246  124  245 1    
   247  125  126 1    
   248  126  246 1    
   249  126  247 1    
@<TRIPOS>SUBSTRUCTURE
     1 UNK         1 GROUP             0       ****    0 ROOT    
