@<TRIPOS>MOLECULE
3R540
247   249    1
SMALL
USER_CHARGES


@<TRIPOS>ATOM
      1 CA         -4.9156  -12.0341  -46.9200 C.3       0 UNK        -0.1800 
      2 C          -3.5804  -12.7584  -46.8299 C.2       0 UNK         0.5000 
      3 O          -2.6459  -12.2411  -46.2197 O.2       0 UNK        -0.5000 
      4 N          -3.4915  -13.9572  -47.4224 N.am      1 UNK        -0.5000 
      5 CA         -2.2969  -14.8115  -47.4384 C.3       1 UNK         0.1400 
      6 C6         -2.5033  -16.0373  -48.3635 C.3       23 UNK        -0.0398 
      7 S7         -0.9725  -16.9653  -48.7140 S.3       23 UNK        -0.2404 
      8 C8         -1.3739  -17.7089  -50.3292 C.3       23 UNK        -0.0205 
      9 C9         -0.5995  -18.9974  -50.5903 C.ar      23 UNK        -0.0193 
     10 C10        -1.2772  -20.1523  -50.9958 C.ar      23 UNK        -0.1150 
     11 C11        -0.5897  -21.3479  -51.2252 C.ar      23 UNK        -0.0193 
     12 C12         0.7977  -21.3748  -51.0503 C.ar      23 UNK        -0.1150 
     13 C13         1.4911  -20.2326  -50.6450 C.ar      23 UNK        -0.0193 
     14 C14         0.7892  -19.0437  -50.4314 C.ar      23 UNK        -0.1150 
     15 C15         2.9967  -20.2864  -50.4270 C.3       23 UNK        -0.0205 
     16 S16         3.4959  -21.5875  -49.2496 S.3       23 UNK        -0.2404 
     17 C17         2.7208  -21.0260  -47.6964 C.3       23 UNK        -0.0398 
     18 CA          1.8836  -22.1388  -47.0109 C.3       11 UNK         0.1400 
     19 N           1.9026  -22.0082  -45.5530 N.am      11 UNK        -0.5000 
     20 C           1.5444  -22.9688  -44.6899 C.2       10 UNK         0.5000 
     21 O           1.2665  -24.1205  -45.0234 O.2       10 UNK        -0.5000 
     22 CA          1.4463  -22.5664  -43.2047 C.3       10 UNK         0.1400 
     23 CB          2.7909  -22.7689  -42.4908 C.3       10 UNK        -0.1800 
     24 N           0.9975  -21.1847  -43.0201 N.am      10 UNK        -0.5000 
     25 C          -0.2119  -20.7300  -43.3767 C.2       9 UNK         0.5000 
     26 O          -1.1020  -21.4475  -43.8332 O.2       9 UNK        -0.5000 
     27 CA         -0.4489  -19.2141  -43.2521 C.3       9 UNK         0.1400 
     28 CB         -0.8339  -18.8402  -41.8128 C.3       9 UNK        -0.1800 
     29 N           0.7039  -18.4177  -43.6842 N.am      9 UNK        -0.5000 
     30 C           1.1973  -18.4056  -44.9319 C.2       8 UNK         0.5000 
     31 O           0.6943  -19.0247  -45.8646 O.2       8 UNK        -0.5000 
     32 CA          2.5188  -17.6549  -45.1691 C.3       8 UNK         0.1400 
     33 CB          2.2883  -16.1626  -45.4384 C.3       8 UNK        -0.1800 
     34 N           3.4426  -17.8254  -44.0502 N.am      8 UNK        -0.5000 
     35 C           4.0825  -18.9707  -43.7752 C.2       7 UNK         0.5000 
     36 O           4.0030  -19.9805  -44.4742 O.2       7 UNK        -0.5000 
     37 CA          4.9138  -19.0023  -42.4793 C.3       7 UNK         0.1400 
     38 CB          6.3283  -18.4598  -42.7310 C.3       7 UNK        -0.1800 
     39 N           4.2874  -18.2388  -41.3983 N.am      7 UNK        -0.5000 
     40 C           3.1371  -18.5795  -40.7992 C.2       6 UNK         0.5000 
     41 O           2.5209  -19.6145  -41.0504 O.2       6 UNK        -0.5000 
     42 CA          2.5523  -17.5647  -39.7966 C.3       6 UNK         0.1400 
     43 CB          3.1125  -17.8117  -38.3883 C.3       6 UNK        -0.1800 
     44 N           2.8065  -16.1736  -40.1871 N.am      6 UNK        -0.5000 
     45 C           2.2997  -15.5962  -41.2842 C.2       5 UNK         0.5000 
     46 O           1.5227  -16.1627  -42.0559 O.2       5 UNK        -0.5000 
     47 CA          2.8131  -14.1902  -41.6183 C.3       5 UNK         0.1400 
     48 CB          4.2172  -14.2914  -42.2527 C.3       5 UNK        -0.1800 
     49 N           1.8784  -13.5469  -42.5388 N.am      5 UNK        -0.5000 
     50 C           1.9229  -12.2697  -42.9373 C.2       4 UNK         0.5000 
     51 O           2.7585  -11.4557  -42.5414 O.2       4 UNK        -0.5000 
     52 CA          0.8486  -11.8152  -43.9418 C.3       4 UNK         0.1400 
     53 CB          1.2391  -12.2130  -45.3735 C.3       4 UNK        -0.1800 
     54 N          -0.4845  -12.3351  -43.6371 N.am      4 UNK        -0.5000 
     55 C          -1.2296  -11.9428  -42.5922 C.2       3 UNK         0.5000 
     56 O          -0.8466  -11.1267  -41.7528 O.2       3 UNK        -0.5000 
     57 CA         -2.6463  -12.5359  -42.4608 C.3       3 UNK         0.1400 
     58 CB         -3.7071  -11.5098  -42.8903 C.3       3 UNK        -0.1800 
     59 N          -2.8222  -13.7593  -43.2424 N.am      3 UNK        -0.5000 
     60 C          -2.4128  -14.9707  -42.8447 C.2       2 UNK         0.5000 
     61 O          -1.9002  -15.1846  -41.7466 O.2       2 UNK        -0.5000 
     62 CA         -2.5970  -16.1391  -43.8327 C.3       2 UNK         0.1400 
     63 CB         -3.7437  -17.0610  -43.3913 C.3       2 UNK        -0.1800 
     64 N          -2.8272  -15.7187  -45.2167 N.am      2 UNK        -0.5000 
     65 C          -1.8705  -15.2183  -46.0107 C.2       1 UNK         0.5000 
     66 O          -0.7185  -15.0144  -45.6323 O.2       1 UNK        -0.5000 
     67 C           0.4309  -22.2041  -47.5333 C.2       11 UNK         0.5000 
     68 O           0.0847  -23.1375  -48.2580 O.2       11 UNK        -0.5000 
     69 N          -0.4047  -21.2473  -47.0978 N.am      12 UNK        -0.5000 
     70 CA         -1.8203  -21.1032  -47.4476 C.3       12 UNK         0.1400 
     71 CB         -2.4153  -19.8834  -46.7257 C.3       12 UNK        -0.1800 
     72 C          -2.6668  -22.3501  -47.1533 C.2       12 UNK         0.5000 
     73 O          -3.5404  -22.6877  -47.9499 O.2       12 UNK        -0.5000 
     74 N          -2.3596  -23.0402  -46.0469 N.am      13 UNK        -0.5000 
     75 CA         -3.0038  -24.2776  -45.5997 C.3       13 UNK         0.1400 
     76 CB         -2.3504  -24.7247  -44.2829 C.3       13 UNK        -0.1800 
     77 C          -2.9971  -25.4330  -46.6258 C.2       13 UNK         0.5000 
     78 O          -3.8141  -26.3462  -46.4985 O.2       13 UNK        -0.5000 
     79 N          -2.1021  -25.3802  -47.6234 N.am      14 UNK        -0.5000 
     80 CA         -2.0432  -26.3336  -48.7292 C.3       14 UNK         0.1400 
     81 CB         -0.6906  -26.1943  -49.4423 C.3       14 UNK        -0.1800 
     82 C          -3.2070  -26.1981  -49.7346 C.2       14 UNK         0.5000 
     83 O          -3.5599  -27.2012  -50.3567 O.2       14 UNK        -0.5000 
     84 N          -3.7882  -24.9966  -49.8796 N.am      15 UNK        -0.5000 
     85 CA         -4.9021  -24.7118  -50.7867 C.3       15 UNK         0.1400 
     86 CB         -4.4842  -24.8554  -52.2694 C.3       15 UNK        -0.1800 
     87 C          -5.4914  -23.3282  -50.4665 C.2       15 UNK         0.5000 
     88 O          -6.4224  -23.2426  -49.6645 O.2       15 UNK        -0.5000 
     89 N          -4.9365  -22.2835  -51.0997 N.am      16 UNK        -0.5000 
     90 CA         -5.3514  -20.8789  -51.0390 C.3       16 UNK         0.1400 
     91 CB         -5.1807  -20.2887  -49.6229 C.3       16 UNK        -0.1800 
     92 C          -6.7379  -20.6407  -51.6715 C.2       16 UNK         0.5000 
     93 O          -7.1307  -21.3860  -52.5731 O.2       16 UNK        -0.5000 
     94 N          -7.4200  -19.5657  -51.2489 N.am      17 UNK        -0.5000 
     95 CA         -8.6440  -19.0150  -51.8393 C.3       17 UNK         0.1400 
     96 CB         -9.8415  -19.9708  -51.6318 C.3       17 UNK        -0.1800 
     97 C          -8.3925  -18.6107  -53.3069 C.2       17 UNK         0.5000 
     98 O          -7.6216  -17.6797  -53.5451 O.2       17 UNK        -0.5000 
     99 N          -9.0009  -19.3292  -54.2590 N.am      18 UNK        -0.5000 
    100 CA        -8.7740  -19.1650  -55.6963 C.3       18 UNK         0.1400 
    101 CB        -9.8881  -19.8958  -56.4612 C.3       18 UNK        -0.1800 
    102 C         -7.3882  -19.6633  -56.1582 C.2       18 UNK         0.5000 
    103 O         -6.8961  -19.2004  -57.1876 O.2       18 UNK        -0.5000 
    104 N         -6.7805  -20.5829  -55.3971 N.am      19 UNK        -0.5000 
    105 CA        -5.4719  -21.1776  -55.6601 C.3       19 UNK         0.1400 
    106 CB        -5.5889  -22.7055  -55.5198 C.3       19 UNK        -0.1800 
    107 C         -4.4175  -20.5736  -54.7156 C.2       19 UNK         0.5000 
    108 O         -3.7179  -21.3029  -54.0108 O.2       19 UNK        -0.5000 
    109 N         -4.3405  -19.2377  -54.6889 N.am      20 UNK        -0.5000 
    110 CA        -3.3140  -18.4861  -53.9688 C.3       20 UNK         0.1400 
    111 CB        -3.7558  -17.0204  -53.8514 C.3       20 UNK        -0.1800 
    112 C         -1.9470  -18.5944  -54.6717 C.2       20 UNK         0.5000 
    113 O         -1.9003  -18.6899  -55.9006 O.2       20 UNK        -0.5000 
    114 N         -0.8691  -18.5568  -53.8739 N.am      21 UNK        -0.5000 
    115 CA         0.5370  -18.6878  -54.2782 C.3       21 UNK         0.1400 
    116 CB         0.9869  -17.4652  -55.1049 C.3       21 UNK        -0.1800 
    117 C          0.8223  -20.0365  -54.9728 C.2       21 UNK         0.5000 
    118 O          1.4502  -20.0755  -56.0324 O.2       21 UNK        -0.5000 
    119 N          0.3220  -21.1185  -54.3632 N.am      22 UNK        -0.5000 
    120 CA         0.3909  -22.4925  -54.8814 C.3       22 UNK         0.1400 
    121 C          1.7968  -23.1655  -54.8401 C.2       22 UNK         0.5000 
    122 N          2.7942  -22.5875  -54.1815 N.am      22 UNK        -0.7600 
    123 O          1.9882  -24.2244  -55.4322 O.2       22 UNK        -0.5000 
    124 C124       -0.7222  -23.3802  -54.2643 C.3       23 UNK        -0.0398 
    125 S125       -0.4648  -23.8721  -52.5213 S.3       23 UNK        -0.2404 
    126 C126       -1.3821  -22.6043  -51.5784 C.3       23 UNK        -0.0205 
    127 H127       -5.3185  -11.8655  -45.9213 H         1 UNK         0.0600 
    128 H128       -5.6490  -12.6033  -47.4917 H         1 UNK         0.0600 
    129 H129       -4.7843  -11.0660  -47.4033 H         1 UNK         0.0600 
    130 H130       -4.2998  -14.3207  -47.9070 H         1 UNK         0.3000 
    131 H131       -1.4867  -14.2102  -47.8571 H         1 UNK         0.0600 
    132 H132       -2.9108  -15.6983  -49.3171 H         1 UNK         0.0800 
    133 H133       -3.2410  -16.7256  -47.9473 H         1 UNK         0.0800 
    134 H134       -1.1551  -16.9859  -51.1159 H         1 UNK         0.0800 
    135 H135       -2.4467  -17.9046  -50.3709 H         1 UNK         0.0800 
    136 H136       -2.3516  -20.1337  -51.1017 H         1 UNK         0.1150 
    137 H137        1.3450  -22.2958  -51.1902 H         1 UNK         0.1150 
    138 H138        1.3198  -18.1557  -50.1178 H         1 UNK         0.1150 
    139 H139        3.4829  -20.4745  -51.3849 H         1 UNK         0.0800 
    140 H140        3.3750  -19.3261  -50.0729 H         1 UNK         0.0800 
    141 H141        2.1332  -20.1217  -47.8628 H         1 UNK         0.0800 
    142 H142        3.5418  -20.7223  -47.0459 H         1 UNK         0.0800 
    143 H143        2.3505  -23.1000  -47.2377 H         1 UNK         0.0600 
    144 H144        2.1536  -21.1008  -45.1825 H         1 UNK         0.3000 
    145 H145        0.7099  -23.2212  -42.7341 H         1 UNK         0.0600 
    146 H146        2.7122  -22.5369  -41.4285 H         1 UNK         0.0600 
    147 H147        3.5719  -22.1373  -42.9136 H         1 UNK         0.0600 
    148 H148        3.1247  -23.8038  -42.5748 H         1 UNK         0.0600 
    149 H149        1.6494  -20.5442  -42.5778 H         1 UNK         0.3000 
    150 H150       -1.2850  -18.9627  -43.9052 H         1 UNK         0.0600 
    151 H151       -1.7747  -19.3132  -41.5294 H         1 UNK         0.0600 
    152 H152       -0.9616  -17.7644  -41.6981 H         1 UNK         0.0600 
    153 H153       -0.0805  -19.1611  -41.0946 H         1 UNK         0.0600 
    154 H154        1.1382  -17.8214  -42.9863 H         1 UNK         0.3000 
    155 H155        2.9849  -18.0809  -46.0604 H         1 UNK         0.0600 
    156 H156        1.7690  -15.6753  -44.6145 H         1 UNK         0.0600 
    157 H157        1.6804  -16.0251  -46.3335 H         1 UNK         0.0600 
    158 H158        3.2290  -15.6371  -45.6022 H         1 UNK         0.0600 
    159 H159        3.5190  -17.0571  -43.4023 H         1 UNK         0.3000 
    160 H160        4.9966  -20.0436  -42.1604 H         1 UNK         0.0600 
    161 H161        6.3118  -17.4117  -43.0328 H         1 UNK         0.0600 
    162 H162        6.8260  -19.0218  -43.5225 H         1 UNK         0.0600 
    163 H163        6.9469  -18.5425  -41.8372 H         1 UNK         0.0600 
    164 H164        4.7395  -17.3800  -41.1230 H         1 UNK         0.3000 
    165 H165        1.4712  -17.7146  -39.7651 H         1 UNK         0.0600 
    166 H166        2.6486  -17.1488  -37.6577 H         1 UNK         0.0600 
    167 H167        2.9182  -18.8355  -38.0657 H         1 UNK         0.0600 
    168 H168        4.1911  -17.6541  -38.3487 H         1 UNK         0.0600 
    169 H169        3.4407  -15.6492  -39.6014 H         1 UNK         0.3000 
    170 H170        2.8600  -13.6069  -40.6968 H         1 UNK         0.0600 
    171 H171        4.1879  -14.8104  -43.2114 H         1 UNK         0.0600 
    172 H172        4.6549  -13.3082  -42.4226 H         1 UNK         0.0600 
    173 H173        4.9084  -14.8331  -41.6061 H         1 UNK         0.0600 
    174 H174        1.1436  -14.1556  -42.8788 H         1 UNK         0.3000 
    175 H175        0.7978  -10.7250  -43.9019 H         1 UNK         0.0600 
    176 H176        1.3328  -13.2935  -45.4815 H         1 UNK         0.0600 
    177 H177        0.4985  -11.8681  -46.0955 H         1 UNK         0.0600 
    178 H178        2.1973  -11.7729  -45.6523 H         1 UNK         0.0600 
    179 H179       -0.8709  -13.0037  -44.2905 H         1 UNK         0.3000 
    180 H180       -2.8103  -12.7633  -41.4052 H         1 UNK         0.0600 
    181 H181       -4.7143  -11.9127  -42.7827 H         1 UNK         0.0600 
    182 H182       -3.5764  -11.2018  -43.9276 H         1 UNK         0.0600 
    183 H183       -3.6501  -10.6112  -42.2748 H         1 UNK         0.0600 
    184 H184       -3.2046  -13.6553  -44.1709 H         1 UNK         0.3000 
    185 H185       -1.6679  -16.7080  -43.8092 H         1 UNK         0.0600 
    186 H186       -4.7057  -16.5481  -43.4209 H         1 UNK         0.0600 
    187 H187       -3.8102  -17.9411  -44.0314 H         1 UNK         0.0600 
    188 H188       -3.5917  -17.4147  -42.3707 H         1 UNK         0.0600 
    189 H189       -3.7649  -15.8207  -45.5765 H         1 UNK         0.3000 
    190 H190       -0.0168  -20.4961  -46.5289 H         1 UNK         0.3000 
    191 H191       -1.8650  -20.9224  -48.5195 H         1 UNK         0.0600 
    192 H192       -2.4866  -20.0472  -45.6513 H         1 UNK         0.0600 
    193 H193       -3.4209  -19.6664  -47.0862 H         1 UNK         0.0600 
    194 H194       -1.8137  -18.9910  -46.8841 H         1 UNK         0.0600 
    195 H195       -1.6566  -22.6491  -45.4285 H         1 UNK         0.3000 
    196 H196       -4.0495  -24.0383  -45.3977 H         1 UNK         0.0600 
    197 H197       -2.4312  -23.9517  -43.5184 H         1 UNK         0.0600 
    198 H198       -1.2928  -24.9522  -44.4192 H         1 UNK         0.0600 
    199 H199       -2.8316  -25.6211  -43.8897 H         1 UNK         0.0600 
    200 H200       -1.4618  -24.5952  -47.6674 H         1 UNK         0.3000 
    201 H201       -2.0937  -27.3401  -48.3087 H         1 UNK         0.0600 
    202 H202        0.1378  -26.3802  -48.7586 H         1 UNK         0.0600 
    203 H203       -0.5600  -25.1964  -49.8593 H         1 UNK         0.0600 
    204 H204       -0.6035  -26.9066  -50.2636 H         1 UNK         0.0600 
    205 H205       -3.5151  -24.2320  -49.2673 H         1 UNK         0.3000 
    206 H206       -5.6912  -25.4403  -50.5895 H         1 UNK         0.0600 
    207 H207       -3.6018  -24.2660  -52.5131 H         1 UNK         0.0600 
    208 H208       -4.2634  -25.8913  -52.5247 H         1 UNK         0.0600 
    209 H209       -5.2905  -24.5388  -52.9303 H         1 UNK         0.0600 
    210 H210       -4.2436  -22.4844  -51.8062 H         1 UNK         0.3000 
    211 H211       -4.6559  -20.3437  -51.6827 H         1 UNK         0.0600 
    212 H212       -5.8752  -20.7296  -48.9074 H         1 UNK         0.0600 
    213 H213       -5.3290  -19.2088  -49.6122 H         1 UNK         0.0600 
    214 H214       -4.1706  -20.4636  -49.2588 H         1 UNK         0.0600 
    215 H215       -7.0055  -19.0020  -50.5207 H         1 UNK         0.3000 
    216 H216       -8.8641  -18.0918  -51.3012 H         1 UNK         0.0600 
    217 H217      -10.7614  -19.5367  -52.0256 H         1 UNK         0.0600 
    218 H218      -10.0059  -20.1576  -50.5705 H         1 UNK         0.0600 
    219 H219       -9.6975  -20.9379  -52.1138 H         1 UNK         0.0600 
    220 H220       -9.5993  -20.0923  -53.9777 H         1 UNK         0.3000 
    221 H221       -8.8375  -18.1013  -55.9351 H         1 UNK         0.0600 
    222 H222       -9.8839  -20.9665  -56.2527 H         1 UNK         0.0600 
    223 H223      -10.8708  -19.5051  -56.1965 H         1 UNK         0.0600 
    224 H224       -9.7696  -19.7708  -57.5384 H         1 UNK         0.0600 
    225 H225       -7.2132  -20.8612  -54.5215 H         1 UNK         0.3000 
    226 H226       -5.1466  -20.9620  -56.6797 H         1 UNK         0.0600 
    227 H227       -6.2936  -23.1130  -56.2447 H         1 UNK         0.0600 
    228 H228       -4.6287  -23.1943  -55.6893 H         1 UNK         0.0600 
    229 H229       -5.9346  -22.9867  -54.5255 H         1 UNK         0.0600 
    230 H230       -4.9405  -18.7089  -55.3054 H         1 UNK         0.3000 
    231 H231       -3.2256  -18.8975  -52.9627 H         1 UNK         0.0600 
    232 H232       -4.7109  -16.9376  -53.3317 H         1 UNK         0.0600 
    233 H233       -3.8661  -16.5541  -54.8313 H         1 UNK         0.0600 
    234 H234       -3.0275  -16.4351  -53.2887 H         1 UNK         0.0600 
    235 H235       -1.0146  -18.4897  -52.8775 H         1 UNK         0.3000 
    236 H236        1.1247  -18.6911  -53.3594 H         1 UNK         0.0600 
    237 H237        0.4764  -17.4132  -56.0669 H         1 UNK         0.0600 
    238 H238        0.7909  -16.5356  -54.5707 H         1 UNK         0.0600 
    239 H239        2.0581  -17.5037  -55.3059 H         1 UNK         0.0600 
    240 H240       -0.1610  -21.0057  -53.4839 H         1 UNK         0.3000 
    241 H241        0.1560  -22.4186  -55.9451 H         1 UNK         0.0600 
    242 H242        3.7003  -23.0280  -54.1664 H         1 UNK         0.3800 
    243 H243        2.6485  -21.7165  -53.6999 H         1 UNK         0.3800 
    244 H244       -0.8100  -24.2998  -54.8449 H         1 UNK         0.0800 
    245 H245       -1.6907  -22.8916  -54.3658 H         1 UNK         0.0800 
    246 H246       -2.2807  -22.3339  -52.1284 H         1 UNK         0.0800 
    247 H247       -1.7151  -23.0539  -50.6423 H         1 UNK         0.0800 
@<TRIPOS>BOND
     1    1    2 1    
     2    1  127 1    
     3    1  128 1    
     4    1  129 1    
     5    2    3 2    
     6    2    4 am   BACKBONE|DICT|INTERRES
     7    4    5 1    
     8    4  130 1    
     9    5    6 1    
    10    5   65 1    
    11    5  131 1    
    12    6    7 1    
    13    6  132 1    
    14    6  133 1    
    15    7    8 1    
    16    8    9 1    
    17    8  134 1    
    18    8  135 1    
    19    9   10 ar   
    20    9   14 ar   
    21   10   11 ar   
    22   10  136 1    
    23   11   12 ar   
    24   11  126 1    
    25   12   13 ar   
    26   12  137 1    
    27   13   14 ar   
    28   13   15 1    
    29   14  138 1    
    30   15   16 1    
    31   15  139 1    
    32   15  140 1    
    33   16   17 1    
    34   17   18 1    
    35   17  141 1    
    36   17  142 1    
    37   18   19 1    
    38   18   67 1    
    39   18  143 1    
    40   19   20 am   BACKBONE|DICT|INTERRES
    41   19  144 1    
    42   20   21 2    
    43   20   22 1    
    44   22   23 1    
    45   22   24 1    
    46   22  145 1    
    47   23  146 1    
    48   23  147 1    
    49   23  148 1    
    50   24   25 am   BACKBONE|DICT|INTERRES
    51   24  149 1    
    52   25   26 2    
    53   25   27 1    
    54   27   28 1    
    55   27   29 1    
    56   27  150 1    
    57   28  151 1    
    58   28  152 1    
    59   28  153 1    
    60   29   30 am   BACKBONE|DICT|INTERRES
    61   29  154 1    
    62   30   31 2    
    63   30   32 1    
    64   32   33 1    
    65   32   34 1    
    66   32  155 1    
    67   33  156 1    
    68   33  157 1    
    69   33  158 1    
    70   34   35 am   BACKBONE|DICT|INTERRES
    71   34  159 1    
    72   35   36 2    
    73   35   37 1    
    74   37   38 1    
    75   37   39 1    
    76   37  160 1    
    77   38  161 1    
    78   38  162 1    
    79   38  163 1    
    80   39   40 am   BACKBONE|DICT|INTERRES
    81   39  164 1    
    82   40   41 2    
    83   40   42 1    
    84   42   43 1    
    85   42   44 1    
    86   42  165 1    
    87   43  166 1    
    88   43  167 1    
    89   43  168 1    
    90   44   45 am   BACKBONE|DICT|INTERRES
    91   44  169 1    
    92   45   46 2    
    93   45   47 1    
    94   47   48 1    
    95   47   49 1    
    96   47  170 1    
    97   48  171 1    
    98   48  172 1    
    99   48  173 1    
   100   49   50 am   BACKBONE|DICT|INTERRES
   101   49  174 1    
   102   50   51 2    
   103   50   52 1    
   104   52   53 1    
   105   52   54 1    
   106   52  175 1    
   107   53  176 1    
   108   53  177 1    
   109   53  178 1    
   110   54   55 am   BACKBONE|DICT|INTERRES
   111   54  179 1    
   112   55   56 2    
   113   55   57 1    
   114   57   58 1    
   115   57   59 1    
   116   57  180 1    
   117   58  181 1    
   118   58  182 1    
   119   58  183 1    
   120   59   60 am   BACKBONE|DICT|INTERRES
   121   59  184 1    
   122   60   61 2    
   123   60   62 1    
   124   62   63 1    
   125   62   64 1    
   126   62  185 1    
   127   63  186 1    
   128   63  187 1    
   129   63  188 1    
   130   64   65 am   BACKBONE|DICT|INTERRES
   131   64  189 1    
   132   65   66 2    
   133   67   68 2    
   134   67   69 am   BACKBONE|DICT|INTERRES
   135   69   70 1    
   136   69  190 1    
   137   70   71 1    
   138   70   72 1    
   139   70  191 1    
   140   71  192 1    
   141   71  193 1    
   142   71  194 1    
   143   72   73 2    
   144   72   74 am   BACKBONE|DICT|INTERRES
   145   74   75 1    
   146   74  195 1    
   147   75   76 1    
   148   75   77 1    
   149   75  196 1    
   150   76  197 1    
   151   76  198 1    
   152   76  199 1    
   153   77   78 2    
   154   77   79 am   BACKBONE|DICT|INTERRES
   155   79   80 1    
   156   79  200 1    
   157   80   81 1    
   158   80   82 1    
   159   80  201 1    
   160   81  202 1    
   161   81  203 1    
   162   81  204 1    
   163   82   83 2    
   164   82   84 am   BACKBONE|DICT|INTERRES
   165   84   85 1    
   166   84  205 1    
   167   85   86 1    
   168   85   87 1    
   169   85  206 1    
   170   86  207 1    
   171   86  208 1    
   172   86  209 1    
   173   87   88 2    
   174   87   89 am   BACKBONE|DICT|INTERRES
   175   89   90 1    
   176   89  210 1    
   177   90   91 1    
   178   90   92 1    
   179   90  211 1    
   180   91  212 1    
   181   91  213 1    
   182   91  214 1    
   183   92   93 2    
   184   92   94 am   BACKBONE|DICT|INTERRES
   185   94   95 1    
   186   94  215 1    
   187   95   96 1    
   188   95   97 1    
   189   95  216 1    
   190   96  217 1    
   191   96  218 1    
   192   96  219 1    
   193   97   98 2    
   194   97   99 am   BACKBONE|DICT|INTERRES
   195   99  100 1    
   196   99  220 1    
   197  100  101 1    
   198  100  102 1    
   199  100  221 1    
   200  101  222 1    
   201  101  223 1    
   202  101  224 1    
   203  102  103 2    
   204  102  104 am   BACKBONE|DICT|INTERRES
   205  104  105 1    
   206  104  225 1    
   207  105  106 1    
   208  105  107 1    
   209  105  226 1    
   210  106  227 1    
   211  106  228 1    
   212  106  229 1    
   213  107  108 2    
   214  107  109 am   BACKBONE|DICT|INTERRES
   215  109  110 1    
   216  109  230 1    
   217  110  111 1    
   218  110  112 1    
   219  110  231 1    
   220  111  232 1    
   221  111  233 1    
   222  111  234 1    
   223  112  113 2    
   224  112  114 am   BACKBONE|DICT|INTERRES
   225  114  115 1    
   226  114  235 1    
   227  115  116 1    
   228  115  117 1    
   229  115  236 1    
   230  116  237 1    
   231  116  238 1    
   232  116  239 1    
   233  117  118 2    
   234  117  119 am   BACKBONE|DICT|INTERRES
   235  119  120 1    
   236  119  240 1    
   237  120  121 1    
   238  120  124 1    
   239  120  241 1    
   240  121  122 am   BACKBONE|DICT|INTERRES
   241  121  123 2    
   242  122  242 1    
   243  122  243 1    
   244  124  125 1    
   245  124  244 1    
   246  124  245 1    
   247  125  126 1    
   248  126  246 1    
   249  126  247 1    
@<TRIPOS>SUBSTRUCTURE
     1 UNK         1 GROUP             0       ****    0 ROOT    
