@<TRIPOS>MOLECULE
3R540
247   249    1
SMALL
USER_CHARGES


@<TRIPOS>ATOM
      1 CA          0.5584   -9.2912  -50.0613 C.3       0 UNK        -0.1800 
      2 C           1.6888  -10.1288  -49.4813 C.2       0 UNK         0.5000 
      3 O           2.8061   -9.6340  -49.3291 O.2       0 UNK        -0.5000 
      4 N           1.4029  -11.3903  -49.1383 N.am      1 UNK        -0.5000 
      5 CA          2.3491  -12.3715  -48.5889 C.3       1 UNK         0.1400 
      6 C6          1.9320  -13.8223  -48.9431 C.3       23 UNK        -0.0398 
      7 S7          2.0016  -14.1410  -50.7413 S.3       23 UNK        -0.2404 
      8 C8          0.2321  -14.1499  -51.2058 C.3       23 UNK        -0.0205 
      9 C9         -0.5873  -15.3674  -50.7669 C.ar      23 UNK        -0.0193 
     10 C10        -1.9346  -15.4230  -51.1401 C.ar      23 UNK        -0.1150 
     11 C11        -2.7389  -16.5070  -50.7749 C.ar      23 UNK        -0.0193 
     12 C12        -2.1910  -17.5417  -50.0152 C.ar      23 UNK        -0.1150 
     13 C13        -0.8473  -17.5082  -49.6386 C.ar      23 UNK        -0.0193 
     14 C14        -0.0522  -16.4243  -50.0177 C.ar      23 UNK        -0.1150 
     15 C15        -0.2452  -18.6423  -48.8280 C.3       23 UNK        -0.0205 
     16 S16        -0.6329  -18.4691  -47.0609 S.3       23 UNK        -0.2404 
     17 C17        -1.9397  -19.7202  -46.8484 C.3       23 UNK        -0.0398 
     18 CA         -1.3471  -21.1322  -46.6342 C.3       11 UNK         0.1400 
     19 N          -0.3866  -21.1874  -45.5304 N.am      11 UNK        -0.5000 
     20 C           0.4420  -22.2115  -45.2894 C.2       10 UNK         0.5000 
     21 O           0.4949  -23.2277  -45.9795 O.2       10 UNK        -0.5000 
     22 CA          1.3210  -22.0983  -44.0342 C.3       10 UNK         0.1400 
     23 CB          2.6156  -21.3314  -44.3414 C.3       10 UNK        -0.1800 
     24 N           0.6000  -21.4562  -42.9342 N.am      10 UNK        -0.5000 
     25 C          -0.4145  -22.0401  -42.2780 C.2       9 UNK         0.5000 
     26 O          -0.7986  -23.1898  -42.4984 O.2       9 UNK        -0.5000 
     27 CA         -1.1587  -21.1798  -41.2429 C.3       9 UNK         0.1400 
     28 CB         -0.4490  -21.2357  -39.8828 C.3       9 UNK        -0.1800 
     29 N          -1.3090  -19.7884  -41.6774 N.am      9 UNK        -0.5000 
     30 C          -2.1034  -19.4085  -42.6906 C.2       8 UNK         0.5000 
     31 O          -2.7610  -20.2102  -43.3542 O.2       8 UNK        -0.5000 
     32 CA         -2.1548  -17.9169  -43.0799 C.3       8 UNK         0.1400 
     33 CB         -3.5981  -17.4114  -43.2765 C.3       8 UNK        -0.1800 
     34 N          -1.3821  -17.0320  -42.2044 N.am      8 UNK        -0.5000 
     35 C          -1.6319  -16.6639  -40.9394 C.2       7 UNK         0.5000 
     36 O          -2.6431  -16.9819  -40.3127 O.2       7 UNK        -0.5000 
     37 CA         -0.5282  -15.8132  -40.2672 C.3       7 UNK         0.1400 
     38 CB         -0.5842  -15.8657  -38.7259 C.3       7 UNK        -0.1800 
     39 N           0.8218  -16.1418  -40.7544 N.am      7 UNK        -0.5000 
     40 C           1.4287  -17.3371  -40.6776 C.2       6 UNK         0.5000 
     41 O           0.9286  -18.3201  -40.1311 O.2       6 UNK        -0.5000 
     42 CA          2.7787  -17.4590  -41.4136 C.3       6 UNK         0.1400 
     43 CB          3.3482  -18.8921  -41.3880 C.3       6 UNK        -0.1800 
     44 N           2.7001  -16.9619  -42.7927 N.am      6 UNK        -0.5000 
     45 C           1.8734  -17.3835  -43.7646 C.2       5 UNK         0.5000 
     46 O           1.0541  -18.2928  -43.6182 O.2       5 UNK        -0.5000 
     47 CA          1.9311  -16.6434  -45.1174 C.3       5 UNK         0.1400 
     48 CB          0.7213  -15.7054  -45.2557 C.3       5 UNK        -0.1800 
     49 N           3.1495  -15.8589  -45.3203 N.am      5 UNK        -0.5000 
     50 C           4.3715  -16.3749  -45.5094 C.2       4 UNK         0.5000 
     51 O           4.5981  -17.5817  -45.5996 O.2       4 UNK        -0.5000 
     52 CA          5.5435  -15.3768  -45.5772 C.3       4 UNK         0.1400 
     53 CB          5.7882  -14.9359  -47.0285 C.3       4 UNK        -0.1800 
     54 N           5.3652  -14.1842  -44.7443 N.am      4 UNK        -0.5000 
     55 C           5.1775  -14.1517  -43.4184 C.2       3 UNK         0.5000 
     56 O           5.0990  -15.1613  -42.7183 O.2       3 UNK        -0.5000 
     57 CA          5.0028  -12.7670  -42.7594 C.3       3 UNK         0.1400 
     58 CB          6.3651  -12.1240  -42.4373 C.3       3 UNK        -0.1800 
     59 N           4.1266  -11.8515  -43.5060 N.am      3 UNK        -0.5000 
     60 C           4.3308  -11.2857  -44.7031 C.2       2 UNK         0.5000 
     61 O           5.3708  -11.3982  -45.3569 O.2       2 UNK        -0.5000 
     62 CA          3.1439  -10.5081  -45.2978 C.3       2 UNK         0.1400 
     63 CB          3.4122   -8.9961  -45.2734 C.3       2 UNK        -0.1800 
     64 N           2.8665  -10.9249  -46.6722 N.am      2 UNK        -0.5000 
     65 C           2.5519  -12.1659  -47.0690 C.2       1 UNK         0.5000 
     66 O           2.4163  -13.1108  -46.2884 O.2       1 UNK        -0.5000 
     67 C          -2.4589  -22.1831  -46.4698 C.2       11 UNK         0.5000 
     68 O          -2.8085  -22.8418  -47.4454 O.2       11 UNK        -0.5000 
     69 N          -2.9570  -22.3595  -45.2378 N.am      12 UNK        -0.5000 
     70 CA         -3.9211  -23.3977  -44.8756 C.3       12 UNK         0.1400 
     71 CB         -4.3930  -23.1812  -43.4299 C.3       12 UNK        -0.1800 
     72 C          -3.3551  -24.8170  -45.0639 C.2       12 UNK         0.5000 
     73 O          -4.0421  -25.6717  -45.6238 O.2       12 UNK        -0.5000 
     74 N          -2.1013  -25.0306  -44.6371 N.am      13 UNK        -0.5000 
     75 CA         -1.3721  -26.2909  -44.8028 C.3       13 UNK         0.1400 
     76 CB         -0.0653  -26.2346  -43.9973 C.3       13 UNK        -0.1800 
     77 C          -1.0916  -26.6374  -46.2788 C.2       13 UNK         0.5000 
     78 O          -1.2013  -27.8020  -46.6631 O.2       13 UNK        -0.5000 
     79 N          -0.7649  -25.6174  -47.0824 N.am      14 UNK        -0.5000 
     80 CA         -0.5176  -25.7183  -48.5224 C.3       14 UNK         0.1400 
     81 CB          0.3807  -24.5431  -48.9436 C.3       14 UNK        -0.1800 
     82 C          -1.8028  -25.7374  -49.3766 C.2       14 UNK         0.5000 
     83 O          -1.7004  -25.8237  -50.6013 O.2       14 UNK        -0.5000 
     84 N          -2.9772  -25.6008  -48.7434 N.am      15 UNK        -0.5000 
     85 CA         -4.3242  -25.4282  -49.3061 C.3       15 UNK         0.1400 
     86 CB         -4.7207  -26.5958  -50.2303 C.3       15 UNK        -0.1800 
     87 C          -4.5403  -24.0599  -49.9849 C.2       15 UNK         0.5000 
     88 O          -5.5659  -23.4259  -49.7333 O.2       15 UNK        -0.5000 
     89 N          -3.5661  -23.6282  -50.7992 N.am      16 UNK        -0.5000 
     90 CA         -3.3943  -22.3153  -51.4268 C.3       16 UNK         0.1400 
     91 CB         -2.8616  -21.3009  -50.3987 C.3       16 UNK        -0.1800 
     92 C          -4.6462  -21.8164  -52.1708 C.2       16 UNK         0.5000 
     93 O          -4.8321  -22.1671  -53.3351 O.2       16 UNK        -0.5000 
     94 N          -5.4973  -21.0376  -51.4907 N.am      17 UNK        -0.5000 
     95 CA         -6.7721  -20.5343  -52.0038 C.3       17 UNK         0.1400 
     96 CB         -7.3957  -19.5879  -50.9674 C.3       17 UNK        -0.1800 
     97 C          -7.7600  -21.6564  -52.3743 C.2       17 UNK         0.5000 
     98 O          -8.4788  -21.5251  -53.3647 O.2       17 UNK        -0.5000 
     99 N          -7.7384  -22.7622  -51.6156 N.am      18 UNK        -0.5000 
    100 CA        -8.5351  -23.9624  -51.8845 C.3       18 UNK         0.1400 
    101 CB        -8.6119  -24.8166  -50.6103 C.3       18 UNK        -0.1800 
    102 C         -7.9971  -24.7870  -53.0719 C.2       18 UNK         0.5000 
    103 O         -8.7565  -25.5497  -53.6695 O.2       18 UNK        -0.5000 
    104 N         -6.7135  -24.6016  -53.4096 N.am      19 UNK        -0.5000 
    105 CA        -6.0590  -25.1723  -54.5890 C.3       19 UNK         0.1400 
    106 CB        -4.6049  -25.5172  -54.2245 C.3       19 UNK        -0.1800 
    107 C         -6.1111  -24.2219  -55.8052 C.2       19 UNK         0.5000 
    108 O         -5.6251  -24.5921  -56.8746 O.2       19 UNK        -0.5000 
    109 N         -6.6839  -23.0211  -55.6213 N.am      20 UNK        -0.5000 
    110 CA        -6.7812  -21.9132  -56.5762 C.3       20 UNK         0.1400 
    111 CB        -7.6862  -22.2910  -57.7678 C.3       20 UNK        -0.1800 
    112 C         -5.4048  -21.3569  -57.0045 C.2       20 UNK         0.5000 
    113 O         -5.2271  -20.9806  -58.1650 O.2       20 UNK        -0.5000 
    114 N         -4.4561  -21.3192  -56.0583 N.am      21 UNK        -0.5000 
    115 CA        -3.1168  -20.7606  -56.2279 C.3       21 UNK         0.1400 
    116 CB        -2.1228  -21.5829  -55.3834 C.3       21 UNK        -0.1800 
    117 C         -3.1288  -19.2513  -55.9016 C.2       21 UNK         0.5000 
    118 O         -3.7668  -18.4871  -56.6271 O.2       21 UNK        -0.5000 
    119 N         -2.4205  -18.8436  -54.8377 N.am      22 UNK        -0.5000 
    120 CA        -2.2677  -17.4511  -54.3644 C.3       22 UNK         0.1400 
    121 C         -1.4124  -16.5356  -55.2956 C.2       22 UNK         0.5000 
    122 N         -0.6473  -17.0766  -56.2363 N.am      22 UNK        -0.7600 
    123 O         -1.4109  -15.3165  -55.1475 O.2       22 UNK        -0.5000 
    124 C124       -3.6135  -16.7853  -53.9524 C.3       23 UNK        -0.0398 
    125 S125       -4.4580  -17.6851  -52.6080 S.3       23 UNK        -0.2404 
    126 C126       -4.2003  -16.5657  -51.1939 C.3       23 UNK        -0.0205 
    127 H127       -0.3688   -9.8596  -50.1393 H         1 UNK         0.0600 
    128 H128        0.8260   -8.9396  -51.0577 H         1 UNK         0.0600 
    129 H129        0.3732   -8.4223  -49.4299 H         1 UNK         0.0600 
    130 H130        0.4557  -11.7210  -49.2482 H         1 UNK         0.3000 
    131 H131        3.3274  -12.1993  -49.0433 H         1 UNK         0.0600 
    132 H132        2.6030  -14.5420  -48.4707 H         1 UNK         0.0800 
    133 H133        0.9349  -14.0425  -48.5583 H         1 UNK         0.0800 
    134 H134        0.1782  -14.0818  -52.2935 H         1 UNK         0.0800 
    135 H135       -0.2394  -13.2451  -50.8212 H         1 UNK         0.0800 
    136 H136       -2.3580  -14.6172  -51.7235 H         1 UNK         0.1150 
    137 H137       -2.8144  -18.3717  -49.7188 H         1 UNK         0.1150 
    138 H138        0.9846  -16.4185  -49.7177 H         1 UNK         0.1150 
    139 H139        0.8397  -18.6521  -48.9430 H         1 UNK         0.0800 
    140 H140       -0.5938  -19.6012  -49.2117 H         1 UNK         0.0800 
    141 H141       -2.5996  -19.7015  -47.7166 H         1 UNK         0.0800 
    142 H142       -2.5531  -19.4253  -45.9958 H         1 UNK         0.0800 
    143 H143       -0.8003  -21.3987  -47.5411 H         1 UNK         0.0600 
    144 H144       -0.3542  -20.3854  -44.9183 H         1 UNK         0.3000 
    145 H145        1.5935  -23.1093  -43.7239 H         1 UNK         0.0600 
    146 H146        3.1758  -21.8223  -45.1382 H         1 UNK         0.0600 
    147 H147        3.2672  -21.2891  -43.4690 H         1 UNK         0.0600 
    148 H148        2.4178  -20.3104  -44.6668 H         1 UNK         0.0600 
    149 H149        0.8202  -20.4875  -42.7401 H         1 UNK         0.3000 
    150 H150       -2.1585  -21.6005  -41.1162 H         1 UNK         0.0600 
    151 H151        0.5900  -20.9128  -39.9551 H         1 UNK         0.0600 
    152 H152       -0.4455  -22.2531  -39.4900 H         1 UNK         0.0600 
    153 H153       -0.9479  -20.6034  -39.1481 H         1 UNK         0.0600 
    154 H154       -0.7508  -19.0958  -41.1914 H         1 UNK         0.3000 
    155 H155       -1.6649  -17.8602  -44.0522 H         1 UNK         0.0600 
    156 H156       -4.1955  -17.5211  -42.3714 H         1 UNK         0.0600 
    157 H157       -4.1024  -17.9707  -44.0654 H         1 UNK         0.0600 
    158 H158       -3.6127  -16.3609  -43.5663 H         1 UNK         0.0600 
    159 H159       -0.4855  -16.7621  -42.5822 H         1 UNK         0.3000 
    160 H160       -0.7196  -14.7819  -40.5671 H         1 UNK         0.0600 
    161 H161       -0.4750  -16.8832  -38.3494 H         1 UNK         0.0600 
    162 H162       -1.5358  -15.4823  -38.3561 H         1 UNK         0.0600 
    163 H163        0.2034  -15.2572  -38.2819 H         1 UNK         0.0600 
    164 H164        1.3050  -15.3982  -41.2387 H         1 UNK         0.3000 
    165 H165        3.4822  -16.8124  -40.8872 H         1 UNK         0.0600 
    166 H166        3.5348  -19.2185  -40.3643 H         1 UNK         0.0600 
    167 H167        2.6610  -19.6083  -41.8367 H         1 UNK         0.0600 
    168 H168        4.2938  -18.9508  -41.9269 H         1 UNK         0.0600 
    169 H169        3.3660  -16.2309  -43.0179 H         1 UNK         0.3000 
    170 H170        1.8787  -17.3997  -45.9023 H         1 UNK         0.0600 
    171 H171        0.6660  -15.2856  -46.2601 H         1 UNK         0.0600 
    172 H172        0.7699  -14.8770  -44.5480 H         1 UNK         0.0600 
    173 H173       -0.2161  -16.2324  -45.0797 H         1 UNK         0.0600 
    174 H174        3.0403  -14.8501  -45.3356 H         1 UNK         0.3000 
    175 H175        6.4352  -15.8952  -45.2194 H         1 UNK         0.0600 
    176 H176        5.9409  -15.7972  -47.6801 H         1 UNK         0.0600 
    177 H177        4.9442  -14.3694  -47.4233 H         1 UNK         0.0600 
    178 H178        6.6767  -14.3090  -47.1054 H         1 UNK         0.0600 
    179 H179        5.4127  -13.2864  -45.2180 H         1 UNK         0.3000 
    180 H180        4.4969  -12.9406  -41.8082 H         1 UNK         0.0600 
    181 H181        6.9630  -11.9549  -43.3331 H         1 UNK         0.0600 
    182 H182        6.9488  -12.7664  -41.7768 H         1 UNK         0.0600 
    183 H183        6.2395  -11.1667  -41.9315 H         1 UNK         0.0600 
    184 H184        3.2215  -11.7084  -43.0798 H         1 UNK         0.3000 
    185 H185        2.2497  -10.7106  -44.7048 H         1 UNK         0.0600 
    186 H186        3.6040   -8.6497  -44.2570 H         1 UNK         0.0600 
    187 H187        4.2796   -8.7322  -45.8802 H         1 UNK         0.0600 
    188 H188        2.5561   -8.4370  -45.6515 H         1 UNK         0.0600 
    189 H189        2.9818  -10.2229  -47.3950 H         1 UNK         0.3000 
    190 H190       -2.6715  -21.7267  -44.4952 H         1 UNK         0.3000 
    191 H191       -4.7856  -23.2940  -45.5348 H         1 UNK         0.0600 
    192 H192       -4.8632  -22.2048  -43.3118 H         1 UNK         0.0600 
    193 H193       -5.1280  -23.9338  -43.1418 H         1 UNK         0.0600 
    194 H194       -3.5661  -23.2405  -42.7218 H         1 UNK         0.0600 
    195 H195       -1.6148  -24.2830  -44.1551 H         1 UNK         0.3000 
    196 H196       -1.9905  -27.0897  -44.3880 H         1 UNK         0.0600 
    197 H197        0.4820  -27.1748  -44.0746 H         1 UNK         0.0600 
    198 H198       -0.2616  -26.0579  -42.9396 H         1 UNK         0.0600 
    199 H199        0.5932  -25.4412  -44.3513 H         1 UNK         0.0600 
    200 H200       -0.6290  -24.6990  -46.6700 H         1 UNK         0.3000 
    201 H201        0.0202  -26.6467  -48.7241 H         1 UNK         0.0600 
    202 H202        0.6464  -24.6056  -49.9995 H         1 UNK         0.0600 
    203 H203        1.3119  -24.5353  -48.3768 H         1 UNK         0.0600 
    204 H204       -0.1159  -23.5848  -48.7853 H         1 UNK         0.0600 
    205 H205       -2.9313  -25.4745  -47.7407 H         1 UNK         0.3000 
    206 H206       -4.9974  -25.4529  -48.4477 H         1 UNK         0.0600 
    207 H207       -4.6485  -27.5498  -49.7082 H         1 UNK         0.0600 
    208 H208       -5.7488  -26.4925  -50.5760 H         1 UNK         0.0600 
    209 H209       -4.0902  -26.6527  -51.1165 H         1 UNK         0.0600 
    210 H210       -2.8005  -24.2799  -50.9446 H         1 UNK         0.3000 
    211 H211       -2.6190  -22.4476  -52.1816 H         1 UNK         0.0600 
    212 H212       -1.9111  -21.6350  -49.9825 H         1 UNK         0.0600 
    213 H213       -2.6871  -20.3344  -50.8711 H         1 UNK         0.0600 
    214 H214       -3.5505  -21.1549  -49.5665 H         1 UNK         0.0600 
    215 H215       -5.2918  -20.8411  -50.5225 H         1 UNK         0.3000 
    216 H216       -6.5641  -19.9643  -52.9116 H         1 UNK         0.0600 
    217 H217       -7.6073  -20.1020  -50.0290 H         1 UNK         0.0600 
    218 H218       -8.3349  -19.1720  -51.3343 H         1 UNK         0.0600 
    219 H219       -6.7345  -18.7496  -50.7488 H         1 UNK         0.0600 
    220 H220       -7.0786  -22.8165  -50.8438 H         1 UNK         0.3000 
    221 H221       -9.5504  -23.6511  -52.1398 H         1 UNK         0.0600 
    222 H222       -7.6262  -25.1409  -50.2805 H         1 UNK         0.0600 
    223 H223       -9.0704  -24.2609  -49.7923 H         1 UNK         0.0600 
    224 H224       -9.2149  -25.7108  -50.7736 H         1 UNK         0.0600 
    225 H225       -6.1702  -23.9233  -52.8925 H         1 UNK         0.3000 
    226 H226       -6.5609  -26.0972  -54.8800 H         1 UNK         0.0600 
    227 H227       -4.5664  -26.2318  -53.4034 H         1 UNK         0.0600 
    228 H228       -4.0853  -25.9711  -55.0691 H         1 UNK         0.0600 
    229 H229       -4.0377  -24.6345  -53.9289 H         1 UNK         0.0600 
    230 H230       -7.0453  -22.8189  -54.6994 H         1 UNK         0.3000 
    231 H231       -7.2741  -21.1011  -56.0398 H         1 UNK         0.0600 
    232 H232       -7.2321  -23.0576  -58.3962 H         1 UNK         0.0600 
    233 H233       -7.8813  -21.4243  -58.4002 H         1 UNK         0.0600 
    234 H234       -8.6513  -22.6649  -57.4260 H         1 UNK         0.0600 
    235 H235       -4.6874  -21.6468  -55.1232 H         1 UNK         0.3000 
    236 H236       -2.8123  -20.8576  -57.2719 H         1 UNK         0.0600 
    237 H237       -2.3434  -21.5257  -54.3188 H         1 UNK         0.0600 
    238 H238       -2.1513  -22.6353  -55.6668 H         1 UNK         0.0600 
    239 H239       -1.0986  -21.2393  -55.5338 H         1 UNK         0.0600 
    240 H240       -1.9201  -19.5385  -54.3038 H         1 UNK         0.3000 
    241 H241       -1.6667  -17.5269  -53.4574 H         1 UNK         0.0600 
    242 H242       -0.0900  -16.4779  -56.8255 H         1 UNK         0.3800 
    243 H243       -0.6203  -18.0745  -56.3679 H         1 UNK         0.3800 
    244 H244       -4.2913  -16.7204  -54.8035 H         1 UNK         0.0800 
    245 H245       -3.4558  -15.7553  -53.6318 H         1 UNK         0.0800 
    246 H246       -4.5748  -15.5708  -51.4397 H         1 UNK         0.0800 
    247 H247       -4.8024  -16.9167  -50.3546 H         1 UNK         0.0800 
@<TRIPOS>BOND
     1    1    2 1    
     2    1  127 1    
     3    1  128 1    
     4    1  129 1    
     5    2    3 2    
     6    2    4 am   BACKBONE|DICT|INTERRES
     7    4    5 1    
     8    4  130 1    
     9    5    6 1    
    10    5   65 1    
    11    5  131 1    
    12    6    7 1    
    13    6  132 1    
    14    6  133 1    
    15    7    8 1    
    16    8    9 1    
    17    8  134 1    
    18    8  135 1    
    19    9   10 ar   
    20    9   14 ar   
    21   10   11 ar   
    22   10  136 1    
    23   11   12 ar   
    24   11  126 1    
    25   12   13 ar   
    26   12  137 1    
    27   13   14 ar   
    28   13   15 1    
    29   14  138 1    
    30   15   16 1    
    31   15  139 1    
    32   15  140 1    
    33   16   17 1    
    34   17   18 1    
    35   17  141 1    
    36   17  142 1    
    37   18   19 1    
    38   18   67 1    
    39   18  143 1    
    40   19   20 am   BACKBONE|DICT|INTERRES
    41   19  144 1    
    42   20   21 2    
    43   20   22 1    
    44   22   23 1    
    45   22   24 1    
    46   22  145 1    
    47   23  146 1    
    48   23  147 1    
    49   23  148 1    
    50   24   25 am   BACKBONE|DICT|INTERRES
    51   24  149 1    
    52   25   26 2    
    53   25   27 1    
    54   27   28 1    
    55   27   29 1    
    56   27  150 1    
    57   28  151 1    
    58   28  152 1    
    59   28  153 1    
    60   29   30 am   BACKBONE|DICT|INTERRES
    61   29  154 1    
    62   30   31 2    
    63   30   32 1    
    64   32   33 1    
    65   32   34 1    
    66   32  155 1    
    67   33  156 1    
    68   33  157 1    
    69   33  158 1    
    70   34   35 am   BACKBONE|DICT|INTERRES
    71   34  159 1    
    72   35   36 2    
    73   35   37 1    
    74   37   38 1    
    75   37   39 1    
    76   37  160 1    
    77   38  161 1    
    78   38  162 1    
    79   38  163 1    
    80   39   40 am   BACKBONE|DICT|INTERRES
    81   39  164 1    
    82   40   41 2    
    83   40   42 1    
    84   42   43 1    
    85   42   44 1    
    86   42  165 1    
    87   43  166 1    
    88   43  167 1    
    89   43  168 1    
    90   44   45 am   BACKBONE|DICT|INTERRES
    91   44  169 1    
    92   45   46 2    
    93   45   47 1    
    94   47   48 1    
    95   47   49 1    
    96   47  170 1    
    97   48  171 1    
    98   48  172 1    
    99   48  173 1    
   100   49   50 am   BACKBONE|DICT|INTERRES
   101   49  174 1    
   102   50   51 2    
   103   50   52 1    
   104   52   53 1    
   105   52   54 1    
   106   52  175 1    
   107   53  176 1    
   108   53  177 1    
   109   53  178 1    
   110   54   55 am   BACKBONE|DICT|INTERRES
   111   54  179 1    
   112   55   56 2    
   113   55   57 1    
   114   57   58 1    
   115   57   59 1    
   116   57  180 1    
   117   58  181 1    
   118   58  182 1    
   119   58  183 1    
   120   59   60 am   BACKBONE|DICT|INTERRES
   121   59  184 1    
   122   60   61 2    
   123   60   62 1    
   124   62   63 1    
   125   62   64 1    
   126   62  185 1    
   127   63  186 1    
   128   63  187 1    
   129   63  188 1    
   130   64   65 am   BACKBONE|DICT|INTERRES
   131   64  189 1    
   132   65   66 2    
   133   67   68 2    
   134   67   69 am   BACKBONE|DICT|INTERRES
   135   69   70 1    
   136   69  190 1    
   137   70   71 1    
   138   70   72 1    
   139   70  191 1    
   140   71  192 1    
   141   71  193 1    
   142   71  194 1    
   143   72   73 2    
   144   72   74 am   BACKBONE|DICT|INTERRES
   145   74   75 1    
   146   74  195 1    
   147   75   76 1    
   148   75   77 1    
   149   75  196 1    
   150   76  197 1    
   151   76  198 1    
   152   76  199 1    
   153   77   78 2    
   154   77   79 am   BACKBONE|DICT|INTERRES
   155   79   80 1    
   156   79  200 1    
   157   80   81 1    
   158   80   82 1    
   159   80  201 1    
   160   81  202 1    
   161   81  203 1    
   162   81  204 1    
   163   82   83 2    
   164   82   84 am   BACKBONE|DICT|INTERRES
   165   84   85 1    
   166   84  205 1    
   167   85   86 1    
   168   85   87 1    
   169   85  206 1    
   170   86  207 1    
   171   86  208 1    
   172   86  209 1    
   173   87   88 2    
   174   87   89 am   BACKBONE|DICT|INTERRES
   175   89   90 1    
   176   89  210 1    
   177   90   91 1    
   178   90   92 1    
   179   90  211 1    
   180   91  212 1    
   181   91  213 1    
   182   91  214 1    
   183   92   93 2    
   184   92   94 am   BACKBONE|DICT|INTERRES
   185   94   95 1    
   186   94  215 1    
   187   95   96 1    
   188   95   97 1    
   189   95  216 1    
   190   96  217 1    
   191   96  218 1    
   192   96  219 1    
   193   97   98 2    
   194   97   99 am   BACKBONE|DICT|INTERRES
   195   99  100 1    
   196   99  220 1    
   197  100  101 1    
   198  100  102 1    
   199  100  221 1    
   200  101  222 1    
   201  101  223 1    
   202  101  224 1    
   203  102  103 2    
   204  102  104 am   BACKBONE|DICT|INTERRES
   205  104  105 1    
   206  104  225 1    
   207  105  106 1    
   208  105  107 1    
   209  105  226 1    
   210  106  227 1    
   211  106  228 1    
   212  106  229 1    
   213  107  108 2    
   214  107  109 am   BACKBONE|DICT|INTERRES
   215  109  110 1    
   216  109  230 1    
   217  110  111 1    
   218  110  112 1    
   219  110  231 1    
   220  111  232 1    
   221  111  233 1    
   222  111  234 1    
   223  112  113 2    
   224  112  114 am   BACKBONE|DICT|INTERRES
   225  114  115 1    
   226  114  235 1    
   227  115  116 1    
   228  115  117 1    
   229  115  236 1    
   230  116  237 1    
   231  116  238 1    
   232  116  239 1    
   233  117  118 2    
   234  117  119 am   BACKBONE|DICT|INTERRES
   235  119  120 1    
   236  119  240 1    
   237  120  121 1    
   238  120  124 1    
   239  120  241 1    
   240  121  122 am   BACKBONE|DICT|INTERRES
   241  121  123 2    
   242  122  242 1    
   243  122  243 1    
   244  124  125 1    
   245  124  244 1    
   246  124  245 1    
   247  125  126 1    
   248  126  246 1    
   249  126  247 1    
@<TRIPOS>SUBSTRUCTURE
     1 UNK         1 GROUP             0       ****    0 ROOT    
