@<TRIPOS>MOLECULE
3R540
247   249    1
SMALL
USER_CHARGES


@<TRIPOS>ATOM
      1 CA          2.0126  -15.8872  -52.3547 C.3       0 UNK        -0.1800 
      2 C           1.9088  -15.4724  -50.8944 C.2       0 UNK         0.5000 
      3 O           2.7021  -15.9254  -50.0683 O.2       0 UNK        -0.5000 
      4 N           0.9405  -14.6048  -50.5721 N.am      1 UNK        -0.5000 
      5 CA          0.6313  -14.1100  -49.2250 C.3       1 UNK         0.1400 
      6 C6         -0.8184  -13.5554  -49.1386 C.3       23 UNK        -0.0398 
      7 S7         -2.1935  -14.6698  -49.5981 S.3       23 UNK        -0.2404 
      8 C8         -1.7430  -16.3009  -48.9084 C.3       23 UNK        -0.0205 
      9 C9         -1.0918  -17.2423  -49.9203 C.ar      23 UNK        -0.0193 
     10 C10        -1.4973  -17.2590  -51.2603 C.ar      23 UNK        -0.1150 
     11 C11        -0.9091  -18.1340  -52.1742 C.ar      23 UNK        -0.0193 
     12 C12         0.0854  -19.0120  -51.7424 C.ar      23 UNK        -0.1150 
     13 C13         0.4994  -19.0222  -50.4085 C.ar      23 UNK        -0.0193 
     14 C14        -0.0969  -18.1332  -49.5037 C.ar      23 UNK        -0.1150 
     15 C15         1.6303  -19.9653  -50.0003 C.3       23 UNK        -0.0205 
     16 S16         1.5106  -20.6289  -48.3074 S.3       23 UNK        -0.2404 
     17 C17        -0.0721  -21.5338  -48.3757 C.3       23 UNK        -0.0398 
     18 CA         -0.1282  -22.6691  -47.3273 C.3       11 UNK         0.1400 
     19 N           0.0001  -22.1756  -45.9527 N.am      11 UNK        -0.5000 
     20 C           0.2895  -22.9560  -44.9033 C.2       10 UNK         0.5000 
     21 O           0.4365  -24.1756  -44.9820 O.2       10 UNK        -0.5000 
     22 CA          0.3966  -22.2713  -43.5316 C.3       10 UNK         0.1400 
     23 CB          1.7274  -21.5152  -43.4051 C.3       10 UNK        -0.1800 
     24 N          -0.7123  -21.3621  -43.2435 N.am      10 UNK        -0.5000 
     25 C          -1.9998  -21.7228  -43.1495 C.2       9 UNK         0.5000 
     26 O          -2.4104  -22.8599  -43.3804 O.2       9 UNK        -0.5000 
     27 CA         -2.9953  -20.6241  -42.7447 C.3       9 UNK         0.1400 
     28 CB         -2.8619  -20.2759  -41.2538 C.3       9 UNK        -0.1800 
     29 N          -2.7965  -19.4225  -43.5503 N.am      9 UNK        -0.5000 
     30 C          -3.3417  -19.2365  -44.7601 C.2       8 UNK         0.5000 
     31 O          -4.1491  -20.0139  -45.2666 O.2       8 UNK        -0.5000 
     32 CA         -2.8967  -17.9895  -45.5501 C.3       8 UNK         0.1400 
     33 CB         -3.9004  -16.8422  -45.3688 C.3       8 UNK        -0.1800 
     34 N          -1.5508  -17.5241  -45.2028 N.am      8 UNK        -0.5000 
     35 C          -0.4395  -18.2334  -45.4470 C.2       7 UNK         0.5000 
     36 O          -0.4490  -19.3448  -45.9717 O.2       7 UNK        -0.5000 
     37 CA          0.9005  -17.6379  -44.9864 C.3       7 UNK         0.1400 
     38 CB          1.4487  -16.6442  -46.0221 C.3       7 UNK        -0.1800 
     39 N           0.8413  -16.9927  -43.6755 N.am      7 UNK        -0.5000 
     40 C           0.5077  -17.5929  -42.5243 C.2       6 UNK         0.5000 
     41 O           0.0916  -18.7487  -42.4500 O.2       6 UNK        -0.5000 
     42 CA          0.6566  -16.7574  -41.2447 C.3       6 UNK         0.1400 
     43 CB          2.1358  -16.6469  -40.8428 C.3       6 UNK        -0.1800 
     44 N           0.1087  -15.4183  -41.4401 N.am      6 UNK        -0.5000 
     45 C          -1.1145  -15.0346  -41.0552 C.2       5 UNK         0.5000 
     46 O          -1.8836  -15.7435  -40.4049 O.2       5 UNK        -0.5000 
     47 CA         -1.5683  -13.6223  -41.4772 C.3       5 UNK         0.1400 
     48 CB         -1.2498  -12.6038  -40.3720 C.3       5 UNK        -0.1800 
     49 N          -0.9862  -13.1545  -42.7383 N.am      5 UNK        -0.5000 
     50 C          -1.1610  -13.7433  -43.9289 C.2       4 UNK         0.5000 
     51 O          -1.8017  -14.7799  -44.0997 O.2       4 UNK        -0.5000 
     52 CA         -0.4683  -13.0869  -45.1350 C.3       4 UNK         0.1400 
     53 CB         -1.2761  -11.8684  -45.6085 C.3       4 UNK        -0.1800 
     54 N           0.9345  -12.6901  -44.9568 N.am      4 UNK        -0.5000 
     55 C           1.9117  -13.3524  -44.3193 C.2       3 UNK         0.5000 
     56 O           1.7367  -14.3480  -43.6164 O.2       3 UNK        -0.5000 
     57 CA          3.3355  -12.8623  -44.6119 C.3       3 UNK         0.1400 
     58 CB          4.4124  -13.6102  -43.8042 C.3       3 UNK        -0.1800 
     59 N           3.5648  -13.0685  -46.0378 N.am      3 UNK        -0.5000 
     60 C           4.1089  -12.1885  -46.8836 C.2       2 UNK         0.5000 
     61 O           4.5867  -11.1070  -46.5390 O.2       2 UNK        -0.5000 
     62 CA          4.0911  -12.5769  -48.3757 C.3       2 UNK         0.1400 
     63 CB          5.3966  -13.2879  -48.7626 C.3       2 UNK        -0.1800 
     64 N           2.9565  -13.4286  -48.7520 N.am      2 UNK        -0.5000 
     65 C           1.6673  -13.0642  -48.7353 C.2       1 UNK         0.5000 
     66 O           1.2930  -11.9525  -48.3584 O.2       1 UNK        -0.5000 
     67 C          -1.3911  -23.5327  -47.5105 C.2       11 UNK         0.5000 
     68 O          -1.3685  -24.4533  -48.3277 O.2       11 UNK        -0.5000 
     69 N          -2.4476  -23.2522  -46.7321 N.am      12 UNK        -0.5000 
     70 CA         -3.6718  -24.0508  -46.6894 C.3       12 UNK         0.1400 
     71 CB         -4.7965  -23.2595  -46.0046 C.3       12 UNK        -0.1800 
     72 C          -3.4438  -25.3940  -45.9780 C.2       12 UNK         0.5000 
     73 O          -3.8633  -26.4292  -46.4944 O.2       12 UNK        -0.5000 
     74 N          -2.7539  -25.3576  -44.8281 N.am      13 UNK        -0.5000 
     75 CA         -2.3864  -26.5312  -44.0327 C.3       13 UNK         0.1400 
     76 CB         -1.7840  -26.0743  -42.6953 C.3       13 UNK        -0.1800 
     77 C          -1.4212  -27.4761  -44.7714 C.2       13 UNK         0.5000 
     78 O          -1.5890  -28.6942  -44.7025 O.2       13 UNK        -0.5000 
     79 N          -0.4505  -26.8967  -45.4905 N.am      14 UNK        -0.5000 
     80 CA          0.4887  -27.6161  -46.3523 C.3       14 UNK         0.1400 
     81 CB          1.6751  -26.6914  -46.6682 C.3       14 UNK        -0.1800 
     82 C          -0.1460  -28.1212  -47.6637 C.2       14 UNK         0.5000 
     83 O           0.4287  -29.0036  -48.3024 O.2       14 UNK        -0.5000 
     84 N          -1.2891  -27.5338  -48.0528 N.am      15 UNK        -0.5000 
     85 CA         -1.9931  -27.6997  -49.3303 C.3       15 UNK         0.1400 
     86 CB         -2.5856  -29.1183  -49.4541 C.3       15 UNK        -0.1800 
     87 C          -1.1076  -27.2970  -50.5298 C.2       15 UNK         0.5000 
     88 O          -1.0927  -27.9758  -51.5584 O.2       15 UNK        -0.5000 
     89 N          -0.3541  -26.2055  -50.3482 N.am      16 UNK        -0.5000 
     90 CA          0.6433  -25.7040  -51.2906 C.3       16 UNK         0.1400 
     91 CB          1.6567  -24.8437  -50.5184 C.3       16 UNK        -0.1800 
     92 C           0.0240  -24.8955  -52.4428 C.2       16 UNK         0.5000 
     93 O           0.6136  -24.8325  -53.5224 O.2       16 UNK        -0.5000 
     94 N          -1.1394  -24.2863  -52.1927 N.am      17 UNK        -0.5000 
     95 CA         -1.8769  -23.4223  -53.1074 C.3       17 UNK         0.1400 
     96 CB         -1.1449  -22.0721  -53.2553 C.3       17 UNK        -0.1800 
     97 C          -3.3002  -23.2318  -52.5561 C.2       17 UNK         0.5000 
     98 O          -3.6474  -23.8319  -51.5345 O.2       17 UNK        -0.5000 
     99 N          -4.0904  -22.3734  -53.2182 N.am      18 UNK        -0.5000 
    100 CA        -5.4193  -21.9448  -52.7628 C.3       18 UNK         0.1400 
    101 CB        -6.1109  -21.1508  -53.8825 C.3       18 UNK        -0.1800 
    102 C         -5.3773  -21.1217  -51.4572 C.2       18 UNK         0.5000 
    103 O         -6.3578  -21.1204  -50.7130 O.2       18 UNK        -0.5000 
    104 N         -4.2311  -20.4709  -51.2021 N.am      19 UNK        -0.5000 
    105 CA        -3.8466  -19.7859  -49.9658 C.3       19 UNK         0.1400 
    106 CB        -3.7622  -20.7928  -48.8038 C.3       19 UNK        -0.1800 
    107 C         -4.7133  -18.5551  -49.6293 C.2       19 UNK         0.5000 
    108 O         -4.8790  -18.2273  -48.4541 O.2       19 UNK        -0.5000 
    109 N         -5.2390  -17.8809  -50.6587 N.am      20 UNK        -0.5000 
    110 CA        -6.1069  -16.7147  -50.5242 C.3       20 UNK         0.1400 
    111 CB        -7.5115  -17.1440  -50.0473 C.3       20 UNK        -0.1800 
    112 C         -6.1413  -15.9584  -51.8589 C.2       20 UNK         0.5000 
    113 O         -7.1412  -16.0324  -52.5747 O.2       20 UNK        -0.5000 
    114 N         -5.0335  -15.2675  -52.1739 N.am      21 UNK        -0.5000 
    115 CA        -4.8198  -14.4401  -53.3718 C.3       21 UNK         0.1400 
    116 CB        -5.6830  -13.1631  -53.3040 C.3       21 UNK        -0.1800 
    117 C         -5.0283  -15.2394  -54.6758 C.2       21 UNK         0.5000 
    118 O         -5.9565  -14.9683  -55.4399 O.2       21 UNK        -0.5000 
    119 N         -4.1758  -16.2542  -54.8563 N.am      22 UNK        -0.5000 
    120 CA        -4.2815  -17.3219  -55.8679 C.3       22 UNK         0.1400 
    121 C         -4.2720  -16.8727  -57.3601 C.2       22 UNK         0.5000 
    122 N         -3.8205  -15.6696  -57.6912 N.am      22 UNK        -0.7600 
    123 O         -4.6763  -17.6360  -58.2329 O.2       22 UNK        -0.5000 
    124 C124       -3.2143  -18.4307  -55.6508 C.3       23 UNK        -0.0398 
    125 S125       -2.9417  -18.8801  -53.8996 S.3       23 UNK        -0.2404 
    126 C126       -1.3215  -18.0977  -53.6342 C.3       23 UNK        -0.0205 
    127 H127        1.1331  -15.5843  -52.9234 H         1 UNK         0.0600 
    128 H128        2.1059  -16.9704  -52.4304 H         1 UNK         0.0600 
    129 H129        2.8925  -15.4354  -52.8120 H         1 UNK         0.0600 
    130 H130        0.3311  -14.2640  -51.3012 H         1 UNK         0.3000 
    131 H131        0.7144  -14.9497  -48.5349 H         1 UNK         0.0600 
    132 H132       -0.9117  -12.6656  -49.7639 H         1 UNK         0.0800 
    133 H133       -1.0299  -13.2210  -48.1246 H         1 UNK         0.0800 
    134 H134       -1.1195  -16.1746  -48.0235 H         1 UNK         0.0800 
    135 H135       -2.6569  -16.7724  -48.5528 H         1 UNK         0.0800 
    136 H136       -2.2720  -16.5897  -51.6024 H         1 UNK         0.1150 
    137 H137        0.5534  -19.6780  -52.4536 H         1 UNK         0.1150 
    138 H138        0.2175  -18.1323  -48.4719 H         1 UNK         0.1150 
    139 H139        1.6912  -20.8069  -50.6922 H         1 UNK         0.0800 
    140 H140        2.5720  -19.4227  -50.0910 H         1 UNK         0.0800 
    141 H141       -0.2016  -21.9345  -49.3830 H         1 UNK         0.0800 
    142 H142       -0.8816  -20.8201  -48.2193 H         1 UNK         0.0800 
    143 H143        0.7230  -23.3270  -47.5166 H         1 UNK         0.0600 
    144 H144       -0.1136  -21.1717  -45.8248 H         1 UNK         0.3000 
    145 H145        0.3807  -23.0553  -42.7718 H         1 UNK         0.0600 
    146 H146        1.8469  -21.0903  -42.4084 H         1 UNK         0.0600 
    147 H147        2.5735  -22.1810  -43.5795 H         1 UNK         0.0600 
    148 H148        1.7960  -20.7009  -44.1264 H         1 UNK         0.0600 
    149 H149       -0.4581  -20.4012  -43.0254 H         1 UNK         0.3000 
    150 H150       -4.0048  -21.0090  -42.9053 H         1 UNK         0.0600 
    151 H151       -3.6017  -19.5322  -40.9571 H         1 UNK         0.0600 
    152 H152       -1.8758  -19.8792  -41.0115 H         1 UNK         0.0600 
    153 H153       -3.0212  -21.1586  -40.6332 H         1 UNK         0.0600 
    154 H154       -2.0996  -18.7660  -43.2260 H         1 UNK         0.3000 
    155 H155       -2.8867  -18.2657  -46.6057 H         1 UNK         0.0600 
    156 H156       -4.9022  -17.1514  -45.6698 H         1 UNK         0.0600 
    157 H157       -3.9532  -16.5145  -44.3299 H         1 UNK         0.0600 
    158 H158       -3.6299  -15.9820  -45.9815 H         1 UNK         0.0600 
    159 H159       -1.4854  -16.6208  -44.7417 H         1 UNK         0.3000 
    160 H160        1.6132  -18.4604  -44.9075 H         1 UNK         0.0600 
    161 H161        2.4150  -16.2471  -45.7114 H         1 UNK         0.0600 
    162 H162        0.7711  -15.8047  -46.1700 H         1 UNK         0.0600 
    163 H163        1.5995  -17.1258  -46.9881 H         1 UNK         0.0600 
    164 H164        1.1675  -16.0294  -43.6372 H         1 UNK         0.3000 
    165 H165        0.1277  -17.2746  -40.4413 H         1 UNK         0.0600 
    166 H166        2.2470  -16.1023  -39.9051 H         1 UNK         0.0600 
    167 H167        2.5762  -17.6345  -40.7000 H         1 UNK         0.0600 
    168 H168        2.7258  -16.1294  -41.6006 H         1 UNK         0.0600 
    169 H169        0.6530  -14.7908  -42.0232 H         1 UNK         0.3000 
    170 H170       -2.6518  -13.6560  -41.6084 H         1 UNK         0.0600 
    171 H171       -0.1748  -12.5022  -40.2174 H         1 UNK         0.0600 
    172 H172       -1.6499  -11.6191  -40.6146 H         1 UNK         0.0600 
    173 H173       -1.6911  -12.9071  -39.4216 H         1 UNK         0.0600 
    174 H174       -0.4161  -12.3226  -42.6943 H         1 UNK         0.3000 
    175 H175       -0.4772  -13.8252  -45.9369 H         1 UNK         0.0600 
    176 H176       -0.8588  -11.4419  -46.5207 H         1 UNK         0.0600 
    177 H177       -1.2937  -11.0809  -44.8542 H         1 UNK         0.0600 
    178 H178       -2.3102  -12.1425  -45.8223 H         1 UNK         0.0600 
    179 H179        1.2189  -11.8962  -45.5138 H         1 UNK         0.3000 
    180 H180        3.3773  -11.8009  -44.3587 H         1 UNK         0.0600 
    181 H181        4.4125  -14.6788  -44.0231 H         1 UNK         0.0600 
    182 H182        4.2482  -13.4930  -42.7324 H         1 UNK         0.0600 
    183 H183        5.4072  -13.2240  -44.0261 H         1 UNK         0.0600 
    184 H184        3.1868  -13.9212  -46.4245 H         1 UNK         0.3000 
    185 H185        4.0207  -11.6530  -48.9535 H         1 UNK         0.0600 
    186 H186        5.5088  -14.2366  -48.2362 H         1 UNK         0.0600 
    187 H187        5.4318  -13.4923  -49.8329 H         1 UNK         0.0600 
    188 H188        6.2643  -12.6725  -48.5209 H         1 UNK         0.0600 
    189 H189        3.1711  -14.3574  -49.1070 H         1 UNK         0.3000 
    190 H190       -2.3724  -22.4992  -46.0633 H         1 UNK         0.3000 
    191 H191       -3.9820  -24.2591  -47.7160 H         1 UNK         0.0600 
    192 H192       -5.0121  -22.3341  -46.5359 H         1 UNK         0.0600 
    193 H193       -5.7200  -23.8391  -45.9789 H         1 UNK         0.0600 
    194 H194       -4.5457  -22.9986  -44.9766 H         1 UNK         0.0600 
    195 H195       -2.4840  -24.4545  -44.4469 H         1 UNK         0.3000 
    196 H196       -3.3004  -27.0897  -43.8212 H         1 UNK         0.0600 
    197 H197       -1.5124  -26.9295  -42.0754 H         1 UNK         0.0600 
    198 H198       -2.4955  -25.4738  -42.1282 H         1 UNK         0.0600 
    199 H199       -0.8850  -25.4747  -42.8426 H         1 UNK         0.0600 
    200 H200       -0.3295  -25.8890  -45.4279 H         1 UNK         0.3000 
    201 H201        0.8652  -28.4852  -45.8088 H         1 UNK         0.0600 
    202 H202        2.1768  -26.3674  -45.7562 H         1 UNK         0.0600 
    203 H203        1.3545  -25.7998  -47.2085 H         1 UNK         0.0600 
    204 H204        2.4174  -27.1999  -47.2846 H         1 UNK         0.0600 
    205 H205       -1.6721  -26.8211  -47.4467 H         1 UNK         0.3000 
    206 H206       -2.8247  -26.9936  -49.3139 H         1 UNK         0.0600 
    207 H207       -3.2076  -29.3599  -48.5921 H         1 UNK         0.0600 
    208 H208       -3.2141  -29.2018  -50.3413 H         1 UNK         0.0600 
    209 H209       -1.8085  -29.8791  -49.5315 H         1 UNK         0.0600 
    210 H210       -0.5004  -25.6645  -49.5001 H         1 UNK         0.3000 
    211 H211        1.1756  -26.5528  -51.7251 H         1 UNK         0.0600 
    212 H212        1.1805  -23.9799  -50.0535 H         1 UNK         0.0600 
    213 H213        2.4380  -24.4700  -51.1814 H         1 UNK         0.0600 
    214 H214        2.1458  -25.4202  -49.7329 H         1 UNK         0.0600 
    215 H215       -1.6022  -24.4385  -51.3043 H         1 UNK         0.3000 
    216 H216       -1.9493  -23.9144  -54.0792 H         1 UNK         0.0600 
    217 H217       -1.5941  -21.4649  -54.0399 H         1 UNK         0.0600 
    218 H218       -0.0979  -22.2017  -53.5280 H         1 UNK         0.0600 
    219 H219       -1.1775  -21.5008  -52.3273 H         1 UNK         0.0600 
    220 H220       -3.7387  -21.9272  -54.0529 H         1 UNK         0.3000 
    221 H221       -6.0113  -22.8409  -52.5651 H         1 UNK         0.0600 
    222 H222       -5.5682  -20.2389  -54.1304 H         1 UNK         0.0600 
    223 H223       -6.2007  -21.7460  -54.7912 H         1 UNK         0.0600 
    224 H224       -7.1192  -20.8588  -53.5860 H         1 UNK         0.0600 
    225 H225       -3.5193  -20.4977  -51.9185 H         1 UNK         0.3000 
    226 H226       -2.8376  -19.4153  -50.1359 H         1 UNK         0.0600 
    227 H227       -3.1796  -21.6691  -49.0859 H         1 UNK         0.0600 
    228 H228       -3.2876  -20.3489  -47.9286 H         1 UNK         0.0600 
    229 H229       -4.7520  -21.1335  -48.5016 H         1 UNK         0.0600 
    230 H230       -5.0564  -18.1999  -51.6002 H         1 UNK         0.3000 
    231 H231       -5.6833  -16.0372  -49.7792 H         1 UNK         0.0600 
    232 H232       -7.9520  -17.8860  -50.7145 H         1 UNK         0.0600 
    233 H233       -8.1892  -16.2905  -50.0069 H         1 UNK         0.0600 
    234 H234       -7.4796  -17.5749  -49.0467 H         1 UNK         0.0600 
    235 H235       -4.2670  -15.2820  -51.5155 H         1 UNK         0.3000 
    236 H236       -3.7742  -14.1283  -53.3569 H         1 UNK         0.0600 
    237 H237       -6.7496  -13.3902  -53.3126 H         1 UNK         0.0600 
    238 H238       -5.4703  -12.5927  -52.3998 H         1 UNK         0.0600 
    239 H239       -5.4809  -12.5109  -54.1544 H         1 UNK         0.0600 
    240 H240       -3.4670  -16.4085  -54.1562 H         1 UNK         0.3000 
    241 H241       -5.2585  -17.7805  -55.7040 H         1 UNK         0.0600 
    242 H242       -3.8203  -15.3870  -58.6588 H         1 UNK         0.3800 
    243 H243       -3.5034  -15.0290  -56.9815 H         1 UNK         0.3800 
    244 H244       -3.5096  -19.3361  -56.1839 H         1 UNK         0.0800 
    245 H245       -2.2599  -18.1319  -56.0886 H         1 UNK         0.0800 
    246 H246       -1.3490  -17.0602  -53.9701 H         1 UNK         0.0800 
    247 H247       -0.5770  -18.6003  -54.2538 H         1 UNK         0.0800 
@<TRIPOS>BOND
     1    1    2 1    
     2    1  127 1    
     3    1  128 1    
     4    1  129 1    
     5    2    3 2    
     6    2    4 am   BACKBONE|DICT|INTERRES
     7    4    5 1    
     8    4  130 1    
     9    5    6 1    
    10    5   65 1    
    11    5  131 1    
    12    6    7 1    
    13    6  132 1    
    14    6  133 1    
    15    7    8 1    
    16    8    9 1    
    17    8  134 1    
    18    8  135 1    
    19    9   10 ar   
    20    9   14 ar   
    21   10   11 ar   
    22   10  136 1    
    23   11   12 ar   
    24   11  126 1    
    25   12   13 ar   
    26   12  137 1    
    27   13   14 ar   
    28   13   15 1    
    29   14  138 1    
    30   15   16 1    
    31   15  139 1    
    32   15  140 1    
    33   16   17 1    
    34   17   18 1    
    35   17  141 1    
    36   17  142 1    
    37   18   19 1    
    38   18   67 1    
    39   18  143 1    
    40   19   20 am   BACKBONE|DICT|INTERRES
    41   19  144 1    
    42   20   21 2    
    43   20   22 1    
    44   22   23 1    
    45   22   24 1    
    46   22  145 1    
    47   23  146 1    
    48   23  147 1    
    49   23  148 1    
    50   24   25 am   BACKBONE|DICT|INTERRES
    51   24  149 1    
    52   25   26 2    
    53   25   27 1    
    54   27   28 1    
    55   27   29 1    
    56   27  150 1    
    57   28  151 1    
    58   28  152 1    
    59   28  153 1    
    60   29   30 am   BACKBONE|DICT|INTERRES
    61   29  154 1    
    62   30   31 2    
    63   30   32 1    
    64   32   33 1    
    65   32   34 1    
    66   32  155 1    
    67   33  156 1    
    68   33  157 1    
    69   33  158 1    
    70   34   35 am   BACKBONE|DICT|INTERRES
    71   34  159 1    
    72   35   36 2    
    73   35   37 1    
    74   37   38 1    
    75   37   39 1    
    76   37  160 1    
    77   38  161 1    
    78   38  162 1    
    79   38  163 1    
    80   39   40 am   BACKBONE|DICT|INTERRES
    81   39  164 1    
    82   40   41 2    
    83   40   42 1    
    84   42   43 1    
    85   42   44 1    
    86   42  165 1    
    87   43  166 1    
    88   43  167 1    
    89   43  168 1    
    90   44   45 am   BACKBONE|DICT|INTERRES
    91   44  169 1    
    92   45   46 2    
    93   45   47 1    
    94   47   48 1    
    95   47   49 1    
    96   47  170 1    
    97   48  171 1    
    98   48  172 1    
    99   48  173 1    
   100   49   50 am   BACKBONE|DICT|INTERRES
   101   49  174 1    
   102   50   51 2    
   103   50   52 1    
   104   52   53 1    
   105   52   54 1    
   106   52  175 1    
   107   53  176 1    
   108   53  177 1    
   109   53  178 1    
   110   54   55 am   BACKBONE|DICT|INTERRES
   111   54  179 1    
   112   55   56 2    
   113   55   57 1    
   114   57   58 1    
   115   57   59 1    
   116   57  180 1    
   117   58  181 1    
   118   58  182 1    
   119   58  183 1    
   120   59   60 am   BACKBONE|DICT|INTERRES
   121   59  184 1    
   122   60   61 2    
   123   60   62 1    
   124   62   63 1    
   125   62   64 1    
   126   62  185 1    
   127   63  186 1    
   128   63  187 1    
   129   63  188 1    
   130   64   65 am   BACKBONE|DICT|INTERRES
   131   64  189 1    
   132   65   66 2    
   133   67   68 2    
   134   67   69 am   BACKBONE|DICT|INTERRES
   135   69   70 1    
   136   69  190 1    
   137   70   71 1    
   138   70   72 1    
   139   70  191 1    
   140   71  192 1    
   141   71  193 1    
   142   71  194 1    
   143   72   73 2    
   144   72   74 am   BACKBONE|DICT|INTERRES
   145   74   75 1    
   146   74  195 1    
   147   75   76 1    
   148   75   77 1    
   149   75  196 1    
   150   76  197 1    
   151   76  198 1    
   152   76  199 1    
   153   77   78 2    
   154   77   79 am   BACKBONE|DICT|INTERRES
   155   79   80 1    
   156   79  200 1    
   157   80   81 1    
   158   80   82 1    
   159   80  201 1    
   160   81  202 1    
   161   81  203 1    
   162   81  204 1    
   163   82   83 2    
   164   82   84 am   BACKBONE|DICT|INTERRES
   165   84   85 1    
   166   84  205 1    
   167   85   86 1    
   168   85   87 1    
   169   85  206 1    
   170   86  207 1    
   171   86  208 1    
   172   86  209 1    
   173   87   88 2    
   174   87   89 am   BACKBONE|DICT|INTERRES
   175   89   90 1    
   176   89  210 1    
   177   90   91 1    
   178   90   92 1    
   179   90  211 1    
   180   91  212 1    
   181   91  213 1    
   182   91  214 1    
   183   92   93 2    
   184   92   94 am   BACKBONE|DICT|INTERRES
   185   94   95 1    
   186   94  215 1    
   187   95   96 1    
   188   95   97 1    
   189   95  216 1    
   190   96  217 1    
   191   96  218 1    
   192   96  219 1    
   193   97   98 2    
   194   97   99 am   BACKBONE|DICT|INTERRES
   195   99  100 1    
   196   99  220 1    
   197  100  101 1    
   198  100  102 1    
   199  100  221 1    
   200  101  222 1    
   201  101  223 1    
   202  101  224 1    
   203  102  103 2    
   204  102  104 am   BACKBONE|DICT|INTERRES
   205  104  105 1    
   206  104  225 1    
   207  105  106 1    
   208  105  107 1    
   209  105  226 1    
   210  106  227 1    
   211  106  228 1    
   212  106  229 1    
   213  107  108 2    
   214  107  109 am   BACKBONE|DICT|INTERRES
   215  109  110 1    
   216  109  230 1    
   217  110  111 1    
   218  110  112 1    
   219  110  231 1    
   220  111  232 1    
   221  111  233 1    
   222  111  234 1    
   223  112  113 2    
   224  112  114 am   BACKBONE|DICT|INTERRES
   225  114  115 1    
   226  114  235 1    
   227  115  116 1    
   228  115  117 1    
   229  115  236 1    
   230  116  237 1    
   231  116  238 1    
   232  116  239 1    
   233  117  118 2    
   234  117  119 am   BACKBONE|DICT|INTERRES
   235  119  120 1    
   236  119  240 1    
   237  120  121 1    
   238  120  124 1    
   239  120  241 1    
   240  121  122 am   BACKBONE|DICT|INTERRES
   241  121  123 2    
   242  122  242 1    
   243  122  243 1    
   244  124  125 1    
   245  124  244 1    
   246  124  245 1    
   247  125  126 1    
   248  126  246 1    
   249  126  247 1    
@<TRIPOS>SUBSTRUCTURE
     1 UNK         1 GROUP             0       ****    0 ROOT    
