@<TRIPOS>MOLECULE
3R540
247   249    1
SMALL
USER_CHARGES


@<TRIPOS>ATOM
      1 CA          0.5275  -12.4575  -53.1944 C.3       0 UNK        -0.1800 
      2 C           0.9318  -13.6562  -52.3487 C.2       0 UNK         0.5000 
      3 O           1.6013  -14.5594  -52.8489 O.2       0 UNK        -0.5000 
      4 N           0.5302  -13.6655  -51.0708 N.am      1 UNK        -0.5000 
      5 CA          0.8631  -14.7164  -50.1005 C.3       1 UNK         0.1400 
      6 C6         -0.0497  -14.6600  -48.8479 C.3       23 UNK        -0.0398 
      7 S7         -1.7755  -15.1080  -49.2313 S.3       23 UNK        -0.2404 
      8 C8         -1.8899  -16.8127  -48.5978 C.3       23 UNK        -0.0205 
      9 C9         -1.0534  -17.7855  -49.4106 C.ar      23 UNK        -0.0193 
     10 C10        -1.6041  -18.4225  -50.5234 C.ar      23 UNK        -0.1150 
     11 C11        -0.8361  -19.3089  -51.2824 C.ar      23 UNK        -0.0193 
     12 C12         0.4936  -19.5549  -50.9228 C.ar      23 UNK        -0.1150 
     13 C13         1.0584  -18.9127  -49.8170 C.ar      23 UNK        -0.0193 
     14 C14         0.2724  -18.0451  -49.0552 C.ar      23 UNK        -0.1150 
     15 C15         2.5314  -19.1005  -49.4775 C.3       23 UNK        -0.0205 
     16 S16         2.8835  -20.6668  -48.6249 S.3       23 UNK        -0.2404 
     17 C17         2.0016  -20.4479  -47.0398 C.3       23 UNK        -0.0398 
     18 CA          1.2096  -21.7079  -46.6290 C.3       11 UNK         0.1400 
     19 N           0.7543  -21.6376  -45.2396 N.am      11 UNK        -0.5000 
     20 C           0.2868  -22.6888  -44.5524 C.2       10 UNK         0.5000 
     21 O           0.2163  -23.8273  -45.0115 O.2       10 UNK        -0.5000 
     22 CA         -0.2211  -22.4264  -43.1264 C.3       10 UNK         0.1400 
     23 CB          0.9543  -22.3580  -42.1404 C.3       10 UNK        -0.1800 
     24 N          -1.0296  -21.2118  -43.0283 N.am      10 UNK        -0.5000 
     25 C          -2.1970  -21.0227  -43.6606 C.2       9 UNK         0.5000 
     26 O          -2.7299  -21.8672  -44.3806 O.2       9 UNK        -0.5000 
     27 CA         -2.8596  -19.6427  -43.4981 C.3       9 UNK         0.1400 
     28 CB         -3.5580  -19.5254  -42.1354 C.3       9 UNK        -0.1800 
     29 N          -1.9169  -18.5361  -43.6620 N.am      9 UNK        -0.5000 
     30 C          -1.2202  -18.2895  -44.7807 C.2       8 UNK         0.5000 
     31 O          -1.2981  -18.9637  -45.8077 O.2       8 UNK        -0.5000 
     32 CA         -0.2259  -17.1196  -44.7196 C.3       8 UNK         0.1400 
     33 CB         -0.9538  -15.7689  -44.8064 C.3       8 UNK        -0.1800 
     34 N           0.5964  -17.1685  -43.5103 N.am      8 UNK        -0.5000 
     35 C           1.4756  -18.1432  -43.2362 C.2       7 UNK         0.5000 
     36 O           1.7407  -19.0656  -44.0079 O.2       7 UNK        -0.5000 
     37 CA          2.1255  -18.1087  -41.8424 C.3       7 UNK         0.1400 
     38 CB          3.3340  -17.1616  -41.8167 C.3       7 UNK        -0.1800 
     39 N           1.1726  -17.7276  -40.7977 N.am      7 UNK        -0.5000 
     40 C           0.1610  -18.5096  -40.3929 C.2       6 UNK         0.5000 
     41 O          -0.0607  -19.6269  -40.8545 O.2       6 UNK        -0.5000 
     42 CA         -0.7862  -17.9491  -39.3178 C.3       6 UNK         0.1400 
     43 CB         -0.2645  -18.2863  -37.9133 C.3       6 UNK        -0.1800 
     44 N          -1.0032  -16.5070  -39.4180 N.am      6 UNK        -0.5000 
     45 C          -1.5535  -15.8775  -40.4646 C.2       5 UNK         0.5000 
     46 O          -1.9252  -16.4566  -41.4880 O.2       5 UNK        -0.5000 
     47 CA         -1.7111  -14.3441  -40.3593 C.3       5 UNK         0.1400 
     48 CB         -1.1876  -13.7441  -39.0341 C.3       5 UNK        -0.1800 
     49 N          -1.1132  -13.6288  -41.4909 N.am      5 UNK        -0.5000 
     50 C           0.1446  -13.7318  -41.9405 C.2       4 UNK         0.5000 
     51 O           0.9789  -14.5310  -41.5051 O.2       4 UNK        -0.5000 
     52 CA          0.5323  -12.7589  -43.0623 C.3       4 UNK         0.1400 
     53 CB          0.7847  -11.3469  -42.5066 C.3       4 UNK        -0.1800 
     54 N           1.7413  -13.2377  -43.7253 N.am      4 UNK        -0.5000 
     55 C           1.9782  -13.1493  -45.0362 C.2       3 UNK         0.5000 
     56 O           1.2028  -12.6184  -45.8386 O.2       3 UNK        -0.5000 
     57 CA          3.2834  -13.7810  -45.5442 C.3       3 UNK         0.1400 
     58 CB          3.2363  -15.3177  -45.4243 C.3       3 UNK        -0.1800 
     59 N           3.4352  -13.3985  -46.9406 N.am      3 UNK        -0.5000 
     60 C           4.5171  -13.5230  -47.7148 C.2       2 UNK         0.5000 
     61 O           5.6138  -13.9042  -47.3017 O.2       2 UNK        -0.5000 
     62 CA          4.3134  -13.1703  -49.2081 C.3       2 UNK         0.1400 
     63 CB          5.3711  -13.8155  -50.1275 C.3       2 UNK        -0.1800 
     64 N           2.9541  -13.4724  -49.6876 N.am      2 UNK        -0.5000 
     65 C           2.3443  -14.6710  -49.6704 C.2       1 UNK         0.5000 
     66 O           2.8891  -15.7106  -49.3027 O.2       1 UNK        -0.5000 
     67 C           0.0530  -22.0367  -47.5981 C.2       11 UNK         0.5000 
     68 O           0.2176  -22.9070  -48.4533 O.2       11 UNK        -0.5000 
     69 N          -1.1110  -21.3961  -47.4130 N.am      12 UNK        -0.5000 
     70 CA         -2.3270  -21.6796  -48.1781 C.3       12 UNK         0.1400 
     71 CB         -3.4198  -20.6664  -47.8111 C.3       12 UNK        -0.1800 
     72 C          -2.8260  -23.1245  -47.9828 C.2       12 UNK         0.5000 
     73 O          -3.1999  -23.7737  -48.9603 O.2       12 UNK        -0.5000 
     74 N          -2.7785  -23.6179  -46.7362 N.am      13 UNK        -0.5000 
     75 CA         -3.0844  -25.0021  -46.3757 C.3       13 UNK         0.1400 
     76 CB         -3.1323  -25.1485  -44.8478 C.3       13 UNK        -0.1800 
     77 C          -2.0984  -26.0066  -46.9993 C.2       13 UNK         0.5000 
     78 O          -2.5410  -26.9849  -47.6028 O.2       13 UNK        -0.5000 
     79 N          -0.7910  -25.7251  -46.8879 N.am      14 UNK        -0.5000 
     80 CA          0.3021  -26.5215  -47.4579 C.3       14 UNK         0.1400 
     81 CB          1.6512  -25.9631  -46.9821 C.3       14 UNK        -0.1800 
     82 C           0.2675  -26.6078  -48.9956 C.2       14 UNK         0.5000 
     83 O           0.6759  -27.6252  -49.5553 O.2       14 UNK        -0.5000 
     84 N          -0.2803  -25.5736  -49.6461 N.am      15 UNK        -0.5000 
     85 CA         -0.5831  -25.5132  -51.0775 C.3       15 UNK         0.1400 
     86 CB         -0.6306  -24.0352  -51.5039 C.3       15 UNK        -0.1800 
     87 C          -1.8694  -26.2824  -51.4727 C.2       15 UNK         0.5000 
     88 O          -2.4242  -26.0217  -52.5405 O.2       15 UNK        -0.5000 
     89 N          -2.3106  -27.2210  -50.6209 N.am      16 UNK        -0.5000 
     90 CA         -3.4789  -28.0957  -50.7493 C.3       16 UNK         0.1400 
     91 CB         -3.3744  -28.9992  -51.9967 C.3       16 UNK        -0.1800 
     92 C          -4.8029  -27.3153  -50.6579 C.2       16 UNK         0.5000 
     93 O          -5.7029  -27.5238  -51.4738 O.2       16 UNK        -0.5000 
     94 N          -4.8841  -26.4335  -49.6494 N.am      17 UNK        -0.5000 
     95 CA         -6.0018  -25.5309  -49.3466 C.3       17 UNK         0.1400 
     96 CB         -7.2336  -26.3265  -48.8671 C.3       17 UNK        -0.1800 
     97 C          -6.3052  -24.5810  -50.5226 C.2       17 UNK         0.5000 
     98 O          -7.4349  -24.5263  -51.0141 O.2       17 UNK        -0.5000 
     99 N          -5.2594  -23.8792  -50.9733 N.am      18 UNK        -0.5000 
    100 CA        -5.2950  -22.9416  -52.0912 C.3       18 UNK         0.1400 
    101 CB        -3.8603  -22.5347  -52.4447 C.3       18 UNK        -0.1800 
    102 C         -6.1427  -21.6963  -51.7812 C.2       18 UNK         0.5000 
    103 O         -6.1187  -21.1954  -50.6540 O.2       18 UNK        -0.5000 
    104 N         -6.8594  -21.2153  -52.8006 N.am      19 UNK        -0.5000 
    105 CA        -7.6769  -20.0088  -52.7399 C.3       19 UNK         0.1400 
    106 CB        -8.8350  -20.1547  -53.7405 C.3       19 UNK        -0.1800 
    107 C         -6.8461  -18.7567  -53.0672 C.2       19 UNK         0.5000 
    108 O         -5.8313  -18.8481  -53.7665 O.2       19 UNK        -0.5000 
    109 N         -7.3451  -17.6046  -52.6005 N.am      20 UNK        -0.5000 
    110 CA        -6.8445  -16.2532  -52.8637 C.3       20 UNK         0.1400 
    111 CB        -7.1033  -15.8777  -54.3422 C.3       20 UNK        -0.1800 
    112 C         -5.3803  -16.0452  -52.4151 C.2       20 UNK         0.5000 
    113 O         -4.9483  -16.6367  -51.4237 O.2       20 UNK        -0.5000 
    114 N         -4.6573  -15.1887  -53.1406 N.am      21 UNK        -0.5000 
    115 CA        -3.2629  -14.8372  -52.9162 C.3       21 UNK         0.1400 
    116 CB        -3.2117  -13.5470  -52.0751 C.3       21 UNK        -0.1800 
    117 C         -2.6181  -14.6691  -54.3033 C.2       21 UNK         0.5000 
    118 O         -2.4857  -13.5390  -54.7708 O.2       21 UNK        -0.5000 
    119 N         -2.2815  -15.7470  -55.0192 N.am      22 UNK        -0.5000 
    120 CA        -2.3690  -17.1686  -54.6637 C.3       22 UNK         0.1400 
    121 C         -2.8297  -17.9321  -55.9342 C.2       22 UNK         0.5000 
    122 N         -3.9386  -18.6574  -55.8792 N.am      22 UNK        -0.7600 
    123 O         -2.1812  -17.8686  -56.9767 O.2       22 UNK        -0.5000 
    124 C124       -1.0088  -17.6519  -54.0785 C.3       23 UNK        -0.0398 
    125 S125       -0.6937  -19.4558  -54.0631 S.3       23 UNK        -0.2404 
    126 C126       -1.4478  -19.9891  -52.4959 C.3       23 UNK        -0.0205 
    127 H127       -0.2012  -11.8270  -52.6846 H         1 UNK         0.0600 
    128 H128        0.0879  -12.7909  -54.1341 H         1 UNK         0.0600 
    129 H129        1.4028  -11.8506  -53.4253 H         1 UNK         0.0600 
    130 H130       -0.0367  -12.9065  -50.7207 H         1 UNK         0.3000 
    131 H131        0.7118  -15.6806  -50.5908 H         1 UNK         0.0600 
    132 H132       -0.0454  -13.6568  -48.4180 H         1 UNK         0.0800 
    133 H133        0.3141  -15.3134  -48.0541 H         1 UNK         0.0800 
    134 H134       -1.5841  -16.8458  -47.5548 H         1 UNK         0.0800 
    135 H135       -2.9359  -17.1223  -48.6162 H         1 UNK         0.0800 
    136 H136       -2.6297  -18.2191  -50.8006 H         1 UNK         0.1150 
    137 H137        1.0947  -20.2284  -51.5174 H         1 UNK         0.1150 
    138 H138        0.7060  -17.5501  -48.1990 H         1 UNK         0.1150 
    139 H139        3.1175  -19.0604  -50.3965 H         1 UNK         0.0800 
    140 H140        2.8909  -18.2794  -48.8564 H         1 UNK         0.0800 
    141 H141        1.3459  -19.5785  -47.0664 H         1 UNK         0.0800 
    142 H142        2.7559  -20.2254  -46.2840 H         1 UNK         0.0800 
    143 H143        1.9061  -22.5479  -46.6777 H         1 UNK         0.0600 
    144 H144        0.8081  -20.7315  -44.7861 H         1 UNK         0.3000 
    145 H145       -0.8535  -23.2692  -42.8404 H         1 UNK         0.0600 
    146 H146        0.6010  -22.2854  -41.1118 H         1 UNK         0.0600 
    147 H147        1.5744  -23.2529  -42.2073 H         1 UNK         0.0600 
    148 H148        1.5948  -21.4975  -42.3369 H         1 UNK         0.0600 
    149 H149       -0.6768  -20.4855  -42.4102 H         1 UNK         0.3000 
    150 H150       -3.6179  -19.5463  -44.2779 H         1 UNK         0.0600 
    151 H151       -4.3009  -20.3139  -42.0091 H         1 UNK         0.0600 
    152 H152       -4.0753  -18.5707  -42.0379 H         1 UNK         0.0600 
    153 H153       -2.8494  -19.6071  -41.3113 H         1 UNK         0.0600 
    154 H154       -1.8038  -17.9102  -42.8703 H         1 UNK         0.3000 
    155 H155        0.4337  -17.2063  -45.5855 H         1 UNK         0.0600 
    156 H156       -1.5008  -15.5401  -43.8930 H         1 UNK         0.0600 
    157 H157       -1.6777  -15.7499  -45.6198 H         1 UNK         0.0600 
    158 H158       -0.2508  -14.9603  -44.9901 H         1 UNK         0.0600 
    159 H159        0.4148  -16.4737  -42.7983 H         1 UNK         0.3000 
    160 H160        2.4859  -19.1161  -41.6231 H         1 UNK         0.0600 
    161 H161        3.0428  -16.1255  -41.9864 H         1 UNK         0.0600 
    162 H162        4.0570  -17.4306  -42.5880 H         1 UNK         0.0600 
    163 H163        3.8498  -17.2098  -40.8577 H         1 UNK         0.0600 
    164 H164        1.2582  -16.7961  -40.4141 H         1 UNK         0.3000 
    165 H165       -1.7541  -18.4373  -39.4462 H         1 UNK         0.0600 
    166 H166       -0.9722  -17.9765  -37.1440 H         1 UNK         0.0600 
    167 H167       -0.1142  -19.3609  -37.8004 H         1 UNK         0.0600 
    168 H168        0.6894  -17.7981  -37.7098 H         1 UNK         0.0600 
    169 H169       -0.7129  -15.9522  -38.6261 H         1 UNK         0.3000 
    170 H170       -2.7839  -14.1525  -40.4061 H         1 UNK         0.0600 
    171 H171       -1.6945  -14.1780  -38.1712 H         1 UNK         0.0600 
    172 H172       -0.1148  -13.8981  -38.9099 H         1 UNK         0.0600 
    173 H173       -1.3689  -12.6698  -38.9976 H         1 UNK         0.0600 
    174 H174       -1.7272  -12.9688  -41.9470 H         1 UNK         0.3000 
    175 H175       -0.2972  -12.7240  -43.7720 H         1 UNK         0.0600 
    176 H176        1.5998  -11.3413  -41.7818 H         1 UNK         0.0600 
    177 H177        1.0425  -10.6506  -43.3048 H         1 UNK         0.0600 
    178 H178       -0.1018  -10.9533  -42.0081 H         1 UNK         0.0600 
    179 H179        2.3761  -13.7451  -43.1225 H         1 UNK         0.3000 
    180 H180        4.1175  -13.3808  -44.9648 H         1 UNK         0.0600 
    181 H181        2.4254  -15.7403  -46.0187 H         1 UNK         0.0600 
    182 H182        3.0856  -15.6309  -44.3921 H         1 UNK         0.0600 
    183 H183        4.1666  -15.7732  -45.7632 H         1 UNK         0.0600 
    184 H184        2.5861  -13.0138  -47.3365 H         1 UNK         0.3000 
    185 H185        4.4311  -12.0883  -49.2808 H         1 UNK         0.0600 
    186 H186        6.3751  -13.4807  -49.8644 H         1 UNK         0.0600 
    187 H187        5.3606  -14.9035  -50.0561 H         1 UNK         0.0600 
    188 H188        5.2032  -13.5465  -51.1703 H         1 UNK         0.0600 
    189 H189        2.4207  -12.6804  -50.0173 H         1 UNK         0.3000 
    190 H190       -1.1735  -20.6643  -46.7101 H         1 UNK         0.3000 
    191 H191       -2.0885  -21.5508  -49.2361 H         1 UNK         0.0600 
    192 H192       -3.6849  -20.7234  -46.7550 H         1 UNK         0.0600 
    193 H193       -4.3264  -20.8436  -48.3912 H         1 UNK         0.0600 
    194 H194       -3.0950  -19.6471  -48.0185 H         1 UNK         0.0600 
    195 H195       -2.5068  -23.0002  -45.9767 H         1 UNK         0.3000 
    196 H196       -4.0789  -25.2331  -46.7603 H         1 UNK         0.0600 
    197 H197       -3.3789  -26.1714  -44.5610 H         1 UNK         0.0600 
    198 H198       -3.8916  -24.4972  -44.4146 H         1 UNK         0.0600 
    199 H199       -2.1774  -24.8990  -44.3857 H         1 UNK         0.0600 
    200 H200       -0.5117  -24.9133  -46.3413 H         1 UNK         0.3000 
    201 H201        0.2007  -27.5380  -47.0727 H         1 UNK         0.0600 
    202 H202        1.7251  -25.9823  -45.8947 H         1 UNK         0.0600 
    203 H203        1.7968  -24.9340  -47.3110 H         1 UNK         0.0600 
    204 H204        2.4801  -26.5538  -47.3740 H         1 UNK         0.0600 
    205 H205       -0.5255  -24.7505  -49.1059 H         1 UNK         0.3000 
    206 H206        0.2376  -25.9852  -51.6208 H         1 UNK         0.0600 
    207 H207        0.3081  -23.5298  -51.2758 H         1 UNK         0.0600 
    208 H208       -0.7975  -23.9330  -52.5766 H         1 UNK         0.0600 
    209 H209       -1.4266  -23.4978  -50.9898 H         1 UNK         0.0600 
    210 H210       -1.8086  -27.3179  -49.7482 H         1 UNK         0.3000 
    211 H211       -3.4575  -28.7502  -49.8767 H         1 UNK         0.0600 
    212 H212       -3.4550  -28.4296  -52.9228 H         1 UNK         0.0600 
    213 H213       -4.1711  -29.7438  -52.0040 H         1 UNK         0.0600 
    214 H214       -2.4272  -29.5382  -52.0149 H         1 UNK         0.0600 
    215 H215       -4.0679  -26.3352  -49.0577 H         1 UNK         0.3000 
    216 H216       -5.6815  -24.8984  -48.5183 H         1 UNK         0.0600 
    217 H217       -8.0318  -25.6537  -48.5518 H         1 UNK         0.0600 
    218 H218       -6.9859  -26.9582  -48.0141 H         1 UNK         0.0600 
    219 H219       -7.6375  -26.9663  -49.6521 H         1 UNK         0.0600 
    220 H220       -4.3882  -23.9392  -50.4536 H         1 UNK         0.3000 
    221 H221       -5.7285  -23.4606  -52.9487 H         1 UNK         0.0600 
    222 H222       -3.3617  -22.0738  -51.5915 H         1 UNK         0.0600 
    223 H223       -3.2735  -23.3980  -52.7563 H         1 UNK         0.0600 
    224 H224       -3.8460  -21.8195  -53.2682 H         1 UNK         0.0600 
    225 H225       -6.7776  -21.6494  -53.7083 H         1 UNK         0.3000 
    226 H226       -8.0963  -19.9027  -51.7369 H         1 UNK         0.0600 
    227 H227       -9.4423  -21.0317  -53.5153 H         1 UNK         0.0600 
    228 H228       -9.4954  -19.2873  -53.7071 H         1 UNK         0.0600 
    229 H229       -8.4729  -20.2511  -54.7650 H         1 UNK         0.0600 
    230 H230       -8.1647  -17.6475  -52.0117 H         1 UNK         0.3000 
    231 H231       -7.4439  -15.5845  -52.2444 H         1 UNK         0.0600 
    232 H232       -6.9427  -14.8140  -54.5204 H         1 UNK         0.0600 
    233 H233       -8.1350  -16.0894  -54.6237 H         1 UNK         0.0600 
    234 H234       -6.4561  -16.4336  -55.0222 H         1 UNK         0.0600 
    235 H235       -5.0831  -14.7643  -53.9532 H         1 UNK         0.3000 
    236 H236       -2.7372  -15.6241  -52.3715 H         1 UNK         0.0600 
    237 H237       -3.7229  -12.7182  -52.5662 H         1 UNK         0.0600 
    238 H238       -3.6834  -13.6936  -51.1037 H         1 UNK         0.0600 
    239 H239       -2.1828  -13.2399  -51.8940 H         1 UNK         0.0600 
    240 H240       -1.9393  -15.5999  -55.9587 H         1 UNK         0.3000 
    241 H241       -3.1326  -17.3284  -53.9026 H         1 UNK         0.0600 
    242 H242       -4.2323  -19.1544  -56.7047 H         1 UNK         0.3800 
    243 H243       -4.5186  -18.7104  -55.0427 H         1 UNK         0.3800 
    244 H244       -0.1955  -17.2224  -54.6659 H         1 UNK         0.0800 
    245 H245       -0.8724  -17.2462  -53.0761 H         1 UNK         0.0800 
    246 H246       -1.3147  -21.0668  -52.3975 H         1 UNK         0.0800 
    247 H247       -2.5230  -19.8085  -52.5423 H         1 UNK         0.0800 
@<TRIPOS>BOND
     1    1    2 1    
     2    1  127 1    
     3    1  128 1    
     4    1  129 1    
     5    2    3 2    
     6    2    4 am   BACKBONE|DICT|INTERRES
     7    4    5 1    
     8    4  130 1    
     9    5    6 1    
    10    5   65 1    
    11    5  131 1    
    12    6    7 1    
    13    6  132 1    
    14    6  133 1    
    15    7    8 1    
    16    8    9 1    
    17    8  134 1    
    18    8  135 1    
    19    9   10 ar   
    20    9   14 ar   
    21   10   11 ar   
    22   10  136 1    
    23   11   12 ar   
    24   11  126 1    
    25   12   13 ar   
    26   12  137 1    
    27   13   14 ar   
    28   13   15 1    
    29   14  138 1    
    30   15   16 1    
    31   15  139 1    
    32   15  140 1    
    33   16   17 1    
    34   17   18 1    
    35   17  141 1    
    36   17  142 1    
    37   18   19 1    
    38   18   67 1    
    39   18  143 1    
    40   19   20 am   BACKBONE|DICT|INTERRES
    41   19  144 1    
    42   20   21 2    
    43   20   22 1    
    44   22   23 1    
    45   22   24 1    
    46   22  145 1    
    47   23  146 1    
    48   23  147 1    
    49   23  148 1    
    50   24   25 am   BACKBONE|DICT|INTERRES
    51   24  149 1    
    52   25   26 2    
    53   25   27 1    
    54   27   28 1    
    55   27   29 1    
    56   27  150 1    
    57   28  151 1    
    58   28  152 1    
    59   28  153 1    
    60   29   30 am   BACKBONE|DICT|INTERRES
    61   29  154 1    
    62   30   31 2    
    63   30   32 1    
    64   32   33 1    
    65   32   34 1    
    66   32  155 1    
    67   33  156 1    
    68   33  157 1    
    69   33  158 1    
    70   34   35 am   BACKBONE|DICT|INTERRES
    71   34  159 1    
    72   35   36 2    
    73   35   37 1    
    74   37   38 1    
    75   37   39 1    
    76   37  160 1    
    77   38  161 1    
    78   38  162 1    
    79   38  163 1    
    80   39   40 am   BACKBONE|DICT|INTERRES
    81   39  164 1    
    82   40   41 2    
    83   40   42 1    
    84   42   43 1    
    85   42   44 1    
    86   42  165 1    
    87   43  166 1    
    88   43  167 1    
    89   43  168 1    
    90   44   45 am   BACKBONE|DICT|INTERRES
    91   44  169 1    
    92   45   46 2    
    93   45   47 1    
    94   47   48 1    
    95   47   49 1    
    96   47  170 1    
    97   48  171 1    
    98   48  172 1    
    99   48  173 1    
   100   49   50 am   BACKBONE|DICT|INTERRES
   101   49  174 1    
   102   50   51 2    
   103   50   52 1    
   104   52   53 1    
   105   52   54 1    
   106   52  175 1    
   107   53  176 1    
   108   53  177 1    
   109   53  178 1    
   110   54   55 am   BACKBONE|DICT|INTERRES
   111   54  179 1    
   112   55   56 2    
   113   55   57 1    
   114   57   58 1    
   115   57   59 1    
   116   57  180 1    
   117   58  181 1    
   118   58  182 1    
   119   58  183 1    
   120   59   60 am   BACKBONE|DICT|INTERRES
   121   59  184 1    
   122   60   61 2    
   123   60   62 1    
   124   62   63 1    
   125   62   64 1    
   126   62  185 1    
   127   63  186 1    
   128   63  187 1    
   129   63  188 1    
   130   64   65 am   BACKBONE|DICT|INTERRES
   131   64  189 1    
   132   65   66 2    
   133   67   68 2    
   134   67   69 am   BACKBONE|DICT|INTERRES
   135   69   70 1    
   136   69  190 1    
   137   70   71 1    
   138   70   72 1    
   139   70  191 1    
   140   71  192 1    
   141   71  193 1    
   142   71  194 1    
   143   72   73 2    
   144   72   74 am   BACKBONE|DICT|INTERRES
   145   74   75 1    
   146   74  195 1    
   147   75   76 1    
   148   75   77 1    
   149   75  196 1    
   150   76  197 1    
   151   76  198 1    
   152   76  199 1    
   153   77   78 2    
   154   77   79 am   BACKBONE|DICT|INTERRES
   155   79   80 1    
   156   79  200 1    
   157   80   81 1    
   158   80   82 1    
   159   80  201 1    
   160   81  202 1    
   161   81  203 1    
   162   81  204 1    
   163   82   83 2    
   164   82   84 am   BACKBONE|DICT|INTERRES
   165   84   85 1    
   166   84  205 1    
   167   85   86 1    
   168   85   87 1    
   169   85  206 1    
   170   86  207 1    
   171   86  208 1    
   172   86  209 1    
   173   87   88 2    
   174   87   89 am   BACKBONE|DICT|INTERRES
   175   89   90 1    
   176   89  210 1    
   177   90   91 1    
   178   90   92 1    
   179   90  211 1    
   180   91  212 1    
   181   91  213 1    
   182   91  214 1    
   183   92   93 2    
   184   92   94 am   BACKBONE|DICT|INTERRES
   185   94   95 1    
   186   94  215 1    
   187   95   96 1    
   188   95   97 1    
   189   95  216 1    
   190   96  217 1    
   191   96  218 1    
   192   96  219 1    
   193   97   98 2    
   194   97   99 am   BACKBONE|DICT|INTERRES
   195   99  100 1    
   196   99  220 1    
   197  100  101 1    
   198  100  102 1    
   199  100  221 1    
   200  101  222 1    
   201  101  223 1    
   202  101  224 1    
   203  102  103 2    
   204  102  104 am   BACKBONE|DICT|INTERRES
   205  104  105 1    
   206  104  225 1    
   207  105  106 1    
   208  105  107 1    
   209  105  226 1    
   210  106  227 1    
   211  106  228 1    
   212  106  229 1    
   213  107  108 2    
   214  107  109 am   BACKBONE|DICT|INTERRES
   215  109  110 1    
   216  109  230 1    
   217  110  111 1    
   218  110  112 1    
   219  110  231 1    
   220  111  232 1    
   221  111  233 1    
   222  111  234 1    
   223  112  113 2    
   224  112  114 am   BACKBONE|DICT|INTERRES
   225  114  115 1    
   226  114  235 1    
   227  115  116 1    
   228  115  117 1    
   229  115  236 1    
   230  116  237 1    
   231  116  238 1    
   232  116  239 1    
   233  117  118 2    
   234  117  119 am   BACKBONE|DICT|INTERRES
   235  119  120 1    
   236  119  240 1    
   237  120  121 1    
   238  120  124 1    
   239  120  241 1    
   240  121  122 am   BACKBONE|DICT|INTERRES
   241  121  123 2    
   242  122  242 1    
   243  122  243 1    
   244  124  125 1    
   245  124  244 1    
   246  124  245 1    
   247  125  126 1    
   248  126  246 1    
   249  126  247 1    
@<TRIPOS>SUBSTRUCTURE
     1 UNK         1 GROUP             0       ****    0 ROOT    
