@<TRIPOS>MOLECULE
3R540
247   249    1
SMALL
USER_CHARGES


@<TRIPOS>ATOM
      1 CA          2.6247  -12.6273  -43.1270 C.3       0 UNK        -0.1800 
      2 C           2.5489  -12.3126  -44.6151 C.2       0 UNK         0.5000 
      3 O           1.6514  -11.5924  -45.0497 O.2       0 UNK        -0.5000 
      4 N           3.4928  -12.8561  -45.3910 N.am      1 UNK        -0.5000 
      5 CA          3.6303  -12.6616  -46.8380 C.3       1 UNK         0.1400 
      6 C6          4.7159  -13.6093  -47.4059 C.3       23 UNK        -0.0398 
      7 S7          4.0654  -15.3015  -47.6092 S.3       23 UNK        -0.2404 
      8 C8          4.4892  -15.6023  -49.3504 C.3       23 UNK        -0.0205 
      9 C9          3.8516  -16.8733  -49.8846 C.ar      23 UNK        -0.0193 
     10 C10         2.7756  -16.7951  -50.7722 C.ar      23 UNK        -0.1150 
     11 C11         2.2320  -17.9536  -51.3316 C.ar      23 UNK        -0.0193 
     12 C12         2.7609  -19.2001  -50.9843 C.ar      23 UNK        -0.1150 
     13 C13         3.8262  -19.2924  -50.0834 C.ar      23 UNK        -0.0193 
     14 C14         4.3681  -18.1249  -49.5373 C.ar      23 UNK        -0.1150 
     15 C15         4.4192  -20.6481  -49.7292 C.3       23 UNK        -0.0205 
     16 S16         3.6723  -21.3474  -48.2253 S.3       23 UNK        -0.2404 
     17 C17         2.0187  -21.8116  -48.8353 C.3       23 UNK        -0.0398 
     18 CA          1.3307  -22.8533  -47.9236 C.3       11 UNK         0.1400 
     19 N           1.1028  -22.3476  -46.5663 N.am      11 UNK        -0.5000 
     20 C           0.7664  -23.1101  -45.5173 C.2       10 UNK         0.5000 
     21 O           0.6701  -24.3371  -45.5672 O.2       10 UNK        -0.5000 
     22 CA          0.4383  -22.3716  -44.2049 C.3       10 UNK         0.1400 
     23 CB          1.7234  -22.0167  -43.4426 C.3       10 UNK        -0.1800 
     24 N          -0.3533  -21.1580  -44.4201 N.am      10 UNK        -0.5000 
     25 C          -1.5934  -21.1451  -44.9288 C.2       9 UNK         0.5000 
     26 O          -2.2211  -22.1629  -45.2091 O.2       9 UNK        -0.5000 
     27 CA         -2.2299  -19.7752  -45.2208 C.3       9 UNK         0.1400 
     28 CB         -2.9597  -19.2440  -43.9801 C.3       9 UNK        -0.1800 
     29 N          -1.2690  -18.7823  -45.6995 N.am      9 UNK        -0.5000 
     30 C          -0.5395  -18.8918  -46.8195 C.2       8 UNK         0.5000 
     31 O          -0.6107  -19.8510  -47.5873 O.2       8 UNK        -0.5000 
     32 CA          0.4710  -17.7669  -47.0989 C.3       8 UNK         0.1400 
     33 CB         -0.2117  -16.5728  -47.7782 C.3       8 UNK        -0.1800 
     34 N           1.1179  -17.3164  -45.8680 N.am      8 UNK        -0.5000 
     35 C           2.0636  -18.0072  -45.2183 C.2       7 UNK         0.5000 
     36 O           2.5272  -19.0754  -45.6158 O.2       7 UNK        -0.5000 
     37 CA          2.5364  -17.4261  -43.8720 C.3       7 UNK         0.1400 
     38 CB          3.5681  -16.3114  -44.0898 C.3       7 UNK        -0.1800 
     39 N           1.4346  -16.9103  -43.0561 N.am      7 UNK        -0.5000 
     40 C           0.4783  -17.6762  -42.5144 C.2       6 UNK         0.5000 
     41 O           0.4288  -18.8991  -42.6454 O.2       6 UNK        -0.5000 
     42 CA         -0.6230  -16.9573  -41.7095 C.3       6 UNK         0.1400 
     43 CB         -0.1659  -16.7472  -40.2580 C.3       6 UNK        -0.1800 
     44 N          -1.0797  -15.6734  -42.2566 N.am      6 UNK        -0.5000 
     45 C          -1.4778  -15.4353  -43.5147 C.2       5 UNK         0.5000 
     46 O          -1.3876  -16.2624  -44.4241 O.2       5 UNK        -0.5000 
     47 CA         -2.0830  -14.0451  -43.7934 C.3       5 UNK         0.1400 
     48 CB         -1.2281  -12.9067  -43.2123 C.3       5 UNK        -0.1800 
     49 N          -2.2139  -13.8247  -45.2301 N.am      5 UNK        -0.5000 
     50 C          -3.3117  -14.0206  -45.9656 C.2       4 UNK         0.5000 
     51 O          -4.3959  -14.3589  -45.4875 O.2       4 UNK        -0.5000 
     52 CA         -3.1736  -13.7687  -47.4875 C.3       4 UNK         0.1400 
     53 CB         -4.5360  -13.7429  -48.2050 C.3       4 UNK        -0.1800 
     54 N          -2.4587  -12.5262  -47.8066 N.am      4 UNK        -0.5000 
     55 C          -1.1389  -12.3215  -47.7024 C.2       3 UNK         0.5000 
     56 O          -0.3484  -13.1774  -47.2974 O.2       3 UNK        -0.5000 
     57 CA         -0.6420  -10.9053  -48.0571 C.3       3 UNK         0.1400 
     58 CB         -0.9509   -9.9231  -46.9155 C.3       3 UNK        -0.1800 
     59 N           0.7954  -10.8702  -48.3321 N.am      3 UNK        -0.5000 
     60 C           1.3762  -11.4260  -49.4038 C.2       2 UNK         0.5000 
     61 O           0.7418  -11.9587  -50.3153 O.2       2 UNK        -0.5000 
     62 CA          2.9163  -11.3797  -49.4935 C.3       2 UNK         0.1400 
     63 CB          3.3630  -10.7011  -50.7991 C.3       2 UNK        -0.1800 
     64 N           3.5656  -10.6836  -48.3744 N.am      2 UNK        -0.5000 
     65 C           3.9424  -11.1839  -47.1877 C.2       1 UNK         0.5000 
     66 O           4.5575  -10.4888  -46.3774 O.2       1 UNK        -0.5000 
     67 C           0.0135  -23.3433  -48.5555 C.2       11 UNK         0.5000 
     68 O          -0.0158  -24.4177  -49.1568 O.2       11 UNK        -0.5000 
     69 N          -1.0635  -22.5686  -48.3697 N.am      12 UNK        -0.5000 
     70 CA         -2.4073  -22.8983  -48.8349 C.3       12 UNK         0.1400 
     71 CB         -3.3385  -21.7099  -48.6012 C.3       12 UNK        -0.1800 
     72 C          -2.9828  -24.1637  -48.1800 C.2       12 UNK         0.5000 
     73 O          -3.6165  -24.9548  -48.8723 O.2       12 UNK        -0.5000 
     74 N          -2.7233  -24.3646  -46.8814 N.am      13 UNK        -0.5000 
     75 CA         -3.1227  -25.5537  -46.1273 C.3       13 UNK         0.1400 
     76 CB         -2.7935  -25.3596  -44.6398 C.3       13 UNK        -0.1800 
     77 C          -2.4804  -26.8456  -46.6634 C.2       13 UNK         0.5000 
     78 O          -3.1538  -27.8744  -46.7222 O.2       13 UNK        -0.5000 
     79 N          -1.2128  -26.7597  -47.0925 N.am      14 UNK        -0.5000 
     80 CA         -0.4913  -27.8496  -47.7532 C.3       14 UNK         0.1400 
     81 CB          1.0088  -27.5206  -47.7930 C.3       14 UNK        -0.1800 
     82 C          -1.0317  -28.1442  -49.1672 C.2       14 UNK         0.5000 
     83 O          -1.0561  -29.3045  -49.5786 O.2       14 UNK        -0.5000 
     84 N          -1.4819  -27.0964  -49.8711 N.am      15 UNK        -0.5000 
     85 CA         -2.1281  -27.1781  -51.1841 C.3       15 UNK         0.1400 
     86 CB         -1.9958  -25.8140  -51.8819 C.3       15 UNK        -0.1800 
     87 C          -3.6110  -27.6078  -51.1184 C.2       15 UNK         0.5000 
     88 O          -4.1873  -27.9205  -52.1610 O.2       15 UNK        -0.5000 
     89 N          -4.1983  -27.5984  -49.9120 N.am      16 UNK        -0.5000 
     90 CA         -5.6135  -27.8122  -49.5903 C.3       16 UNK         0.1400 
     91 CB         -6.0502  -29.2530  -49.9286 C.3       16 UNK        -0.1800 
     92 C          -6.5262  -26.7290  -50.2082 C.2       16 UNK         0.5000 
     93 O          -7.5768  -27.0443  -50.7710 O.2       16 UNK        -0.5000 
     94 N          -6.0930  -25.4687  -50.0974 N.am      17 UNK        -0.5000 
     95 CA         -6.7439  -24.2776  -50.6360 C.3       17 UNK         0.1400 
     96 CB         -5.8508  -23.7258  -51.7601 C.3       17 UNK        -0.1800 
     97 C          -6.9459  -23.2192  -49.5352 C.2       17 UNK         0.5000 
     98 O          -6.4470  -23.3749  -48.4178 O.2       17 UNK        -0.5000 
     99 N          -7.6664  -22.1439  -49.8798 N.am      18 UNK        -0.5000 
    100 CA        -7.7940  -20.9302  -49.0684 C.3       18 UNK         0.1400 
    101 CB        -9.0142  -20.1355  -49.5582 C.3       18 UNK        -0.1800 
    102 C         -6.5224  -20.0675  -49.1741 C.2       18 UNK         0.5000 
    103 O         -5.8274  -20.1397  -50.1880 O.2       18 UNK        -0.5000 
    104 N         -6.2546  -19.2404  -48.1530 N.am      19 UNK        -0.5000 
    105 CA        -5.0332  -18.4322  -48.0048 C.3       19 UNK         0.1400 
    106 CB        -5.0937  -17.6651  -46.6759 C.3       19 UNK        -0.1800 
    107 C         -4.7254  -17.4653  -49.1662 C.2       19 UNK         0.5000 
    108 O         -3.5581  -17.1575  -49.4008 O.2       19 UNK        -0.5000 
    109 N         -5.7680  -17.0178  -49.8778 N.am      20 UNK        -0.5000 
    110 CA        -5.6618  -16.1791  -51.0736 C.3       20 UNK         0.1400 
    111 CB        -7.0009  -15.4552  -51.2825 C.3       20 UNK        -0.1800 
    112 C         -5.2640  -16.9627  -52.3436 C.2       20 UNK         0.5000 
    113 O         -4.8889  -16.3407  -53.3378 O.2       20 UNK        -0.5000 
    114 N         -5.3537  -18.2975  -52.2989 N.am      21 UNK        -0.5000 
    115 CA        -5.0298  -19.2267  -53.3791 C.3       21 UNK         0.1400 
    116 CB        -6.3023  -20.0080  -53.7540 C.3       21 UNK        -0.1800 
    117 C         -3.8712  -20.1429  -52.9408 C.2       21 UNK         0.5000 
    118 O         -3.9129  -21.3542  -53.1564 O.2       21 UNK        -0.5000 
    119 N         -2.8552  -19.5349  -52.3185 N.am      22 UNK        -0.5000 
    120 CA        -1.6560  -20.1794  -51.7610 C.3       22 UNK         0.1400 
    121 C         -0.7052  -20.8893  -52.7695 C.2       22 UNK         0.5000 
    122 N         -0.8560  -20.7088  -54.0756 N.am      22 UNK        -0.7600 
    123 O          0.1903  -21.6186  -52.3533 O.2       22 UNK        -0.5000 
    124 C124       -0.8832  -19.2046  -50.8333 C.3       23 UNK        -0.0398 
    125 S125       -0.5155  -17.5789  -51.5888 S.3       23 UNK        -0.2404 
    126 C126        1.1132  -17.8469  -52.3549 C.3       23 UNK        -0.0205 
    127 H127        1.9829  -13.4737  -42.8849 H         1 UNK         0.0600 
    128 H128        2.2973  -11.7689  -42.5402 H         1 UNK         0.0600 
    129 H129        3.6425  -12.8738  -42.8237 H         1 UNK         0.0600 
    130 H130        4.2147  -13.4154  -44.9621 H         1 UNK         0.3000 
    131 H131        2.6634  -12.9168  -47.2747 H         1 UNK         0.0600 
    132 H132        5.5893  -13.6408  -46.7523 H         1 UNK         0.0800 
    133 H133        5.0925  -13.2564  -48.3672 H         1 UNK         0.0800 
    134 H134        4.1763  -14.7493  -49.9543 H         1 UNK         0.0800 
    135 H135        5.5736  -15.6692  -49.4503 H         1 UNK         0.0800 
    136 H136        2.3742  -15.8305  -51.0504 H         1 UNK         0.1150 
    137 H137        2.3511  -20.0983  -51.4249 H         1 UNK         0.1150 
    138 H138        5.2009  -18.1882  -48.8509 H         1 UNK         0.1150 
    139 H139        4.3041  -21.3461  -50.5599 H         1 UNK         0.0800 
    140 H140        5.4936  -20.5459  -49.5695 H         1 UNK         0.0800 
    141 H141        2.1211  -22.2069  -49.8479 H         1 UNK         0.0800 
    142 H142        1.4169  -20.9062  -48.9161 H         1 UNK         0.0800 
    143 H143        1.9908  -23.7205  -47.8488 H         1 UNK         0.0600 
    144 H144        1.1594  -21.3457  -46.4439 H         1 UNK         0.3000 
    145 H145       -0.1508  -23.0484  -43.5825 H         1 UNK         0.0600 
    146 H146        1.4962  -21.5657  -42.4765 H         1 UNK         0.0600 
    147 H147        2.3242  -22.9072  -43.2533 H         1 UNK         0.0600 
    148 H148        2.3426  -21.3144  -44.0016 H         1 UNK         0.0600 
    149 H149        0.0697  -20.2786  -44.1431 H         1 UNK         0.3000 
    150 H150       -2.9689  -19.9119  -46.0102 H         1 UNK         0.0600 
    151 H151       -3.7889  -19.8989  -43.7102 H         1 UNK         0.0600 
    152 H152       -3.3708  -18.2490  -44.1503 H         1 UNK         0.0600 
    153 H153       -2.2951  -19.1923  -43.1196 H         1 UNK         0.0600 
    154 H154       -1.1828  -17.9300  -45.1497 H         1 UNK         0.3000 
    155 H155        1.2326  -18.1566  -47.7789 H         1 UNK         0.0600 
    156 H156        0.5186  -15.8205  -48.0778 H         1 UNK         0.0600 
    157 H157       -0.7471  -16.8828  -48.6755 H         1 UNK         0.0600 
    158 H158       -0.9336  -16.0951  -47.1165 H         1 UNK         0.0600 
    159 H159        0.7353  -16.4875  -45.4359 H         1 UNK         0.3000 
    160 H160        3.0202  -18.2317  -43.3152 H         1 UNK         0.0600 
    161 H161        3.1318  -15.4729  -44.6307 H         1 UNK         0.0600 
    162 H162        4.4162  -16.6728  -44.6730 H         1 UNK         0.0600 
    163 H163        3.9578  -15.9385  -43.1425 H         1 UNK         0.0600 
    164 H164        1.3962  -15.9140  -42.9059 H         1 UNK         0.3000 
    165 H165       -1.4914  -17.6161  -41.6882 H         1 UNK         0.0600 
    166 H166       -0.9767  -16.3616  -39.6396 H         1 UNK         0.0600 
    167 H167        0.1615  -17.6868  -39.8105 H         1 UNK         0.0600 
    168 H168        0.6673  -16.0461  -40.1960 H         1 UNK         0.0600 
    169 H169       -1.1809  -14.9285  -41.5829 H         1 UNK         0.3000 
    170 H170       -3.0663  -14.0140  -43.3202 H         1 UNK         0.0600 
    171 H171       -1.1588  -12.9606  -42.1257 H         1 UNK         0.0600 
    172 H172       -0.2174  -12.9303  -43.6142 H         1 UNK         0.0600 
    173 H173       -1.6551  -11.9335  -43.4557 H         1 UNK         0.0600 
    174 H174       -1.3584  -13.6050  -45.7325 H         1 UNK         0.3000 
    175 H175       -2.6057  -14.6058  -47.8976 H         1 UNK         0.0600 
    176 H176       -5.0836  -14.6721  -48.0463 H         1 UNK         0.0600 
    177 H177       -5.1642  -12.9271  -47.8456 H         1 UNK         0.0600 
    178 H178       -4.4122  -13.6226  -49.2811 H         1 UNK         0.0600 
    179 H179       -3.0397  -11.7559  -48.1042 H         1 UNK         0.3000 
    180 H180       -1.1684  -10.5727  -48.9542 H         1 UNK         0.0600 
    181 H181       -0.4646  -10.2205  -45.9859 H         1 UNK         0.0600 
    182 H182       -2.0224   -9.8702  -46.7194 H         1 UNK         0.0600 
    183 H183       -0.6178   -8.9145  -47.1606 H         1 UNK         0.0600 
    184 H184        1.3815  -10.4875  -47.6045 H         1 UNK         0.3000 
    185 H185        3.2582  -12.4137  -49.5359 H         1 UNK         0.0600 
    186 H186        4.4488  -10.7120  -50.8979 H         1 UNK         0.0600 
    187 H187        2.9573  -11.2153  -51.6715 H         1 UNK         0.0600 
    188 H188        3.0317   -9.6630  -50.8467 H         1 UNK         0.0600 
    189 H189        3.7725   -9.7113  -48.5514 H         1 UNK         0.3000 
    190 H190       -0.9477  -21.6757  -47.8965 H         1 UNK         0.3000 
    191 H191       -2.3469  -23.0759  -49.9102 H         1 UNK         0.0600 
    192 H192       -3.5560  -21.5643  -47.5440 H         1 UNK         0.0600 
    193 H193       -4.2843  -21.8870  -49.1070 H         1 UNK         0.0600 
    194 H194       -2.9238  -20.7840  -48.9959 H         1 UNK         0.0600 
    195 H195       -2.2765  -23.6202  -46.3514 H         1 UNK         0.3000 
    196 H196       -4.2053  -25.6579  -46.2254 H         1 UNK         0.0600 
    197 H197       -3.0812  -26.2356  -44.0573 H         1 UNK         0.0600 
    198 H198       -3.3298  -24.5053  -44.2266 H         1 UNK         0.0600 
    199 H199       -1.7275  -25.1939  -44.4814 H         1 UNK         0.0600 
    200 H200       -0.7288  -25.8754  -47.0054 H         1 UNK         0.3000 
    201 H201       -0.6215  -28.7534  -47.1541 H         1 UNK         0.0600 
    202 H202        1.4016  -27.3489  -46.7906 H         1 UNK         0.0600 
    203 H203        1.2140  -26.6314  -48.3887 H         1 UNK         0.0600 
    204 H204        1.5758  -28.3440  -48.2288 H         1 UNK         0.0600 
    205 H205       -1.3830  -26.1702  -49.4732 H         1 UNK         0.3000 
    206 H206       -1.5987  -27.9190  -51.7866 H         1 UNK         0.0600 
    207 H207       -2.5540  -25.0377  -51.3590 H         1 UNK         0.0600 
    208 H208       -2.3796  -25.8580  -52.9017 H         1 UNK         0.0600 
    209 H209       -0.9544  -25.4962  -51.9395 H         1 UNK         0.0600 
    210 H210       -3.6327  -27.2673  -49.1419 H         1 UNK         0.3000 
    211 H211       -5.6950  -27.6931  -48.5089 H         1 UNK         0.0600 
    212 H212       -6.0530  -29.4372  -51.0031 H         1 UNK         0.0600 
    213 H213       -7.0582  -29.4498  -49.5620 H         1 UNK         0.0600 
    214 H214       -5.3881  -29.9837  -49.4641 H         1 UNK         0.0600 
    215 H215       -5.2311  -25.2906  -49.5821 H         1 UNK         0.3000 
    216 H216       -7.7248  -24.5268  -51.0452 H         1 UNK         0.0600 
    217 H217       -4.8787  -23.4080  -51.3795 H         1 UNK         0.0600 
    218 H218       -6.3077  -22.8649  -52.2475 H         1 UNK         0.0600 
    219 H219       -5.6759  -24.4768  -52.5307 H         1 UNK         0.0600 
    220 H220       -8.0119  -22.0775  -50.8256 H         1 UNK         0.3000 
    221 H221       -7.9473  -21.2111  -48.0243 H         1 UNK         0.0600 
    222 H222       -9.9257  -20.7293  -49.4865 H         1 UNK         0.0600 
    223 H223       -8.9001  -19.8203  -50.5965 H         1 UNK         0.0600 
    224 H224       -9.1657  -19.2377  -48.9576 H         1 UNK         0.0600 
    225 H225       -6.8952  -19.2163  -47.3726 H         1 UNK         0.3000 
    226 H226       -4.1940  -19.1242  -47.9473 H         1 UNK         0.0600 
    227 H227       -5.2441  -18.3409  -45.8344 H         1 UNK         0.0600 
    228 H228       -4.1626  -17.1257  -46.4942 H         1 UNK         0.0600 
    229 H229       -5.9030  -16.9339  -46.6687 H         1 UNK         0.0600 
    230 H230       -6.6938  -17.3228  -49.6164 H         1 UNK         0.3000 
    231 H231       -4.8904  -15.4251  -50.9056 H         1 UNK         0.0600 
    232 H232       -7.8166  -16.1592  -51.4515 H         1 UNK         0.0600 
    233 H233       -6.9565  -14.7903  -52.1461 H         1 UNK         0.0600 
    234 H234       -7.2569  -14.8435  -50.4171 H         1 UNK         0.0600 
    235 H235       -5.6021  -18.7489  -51.4215 H         1 UNK         0.3000 
    236 H236       -4.6881  -18.6879  -54.2648 H         1 UNK         0.0600 
    237 H237       -7.0893  -19.3347  -54.0936 H         1 UNK         0.0600 
    238 H238       -6.1093  -20.7151  -54.5616 H         1 UNK         0.0600 
    239 H239       -6.6896  -20.5707  -52.9042 H         1 UNK         0.0600 
    240 H240       -2.9040  -18.5345  -52.1875 H         1 UNK         0.3000 
    241 H241       -2.0233  -20.9902  -51.1327 H         1 UNK         0.0600 
    242 H242       -0.2371  -21.1807  -54.7154 H         1 UNK         0.3800 
    243 H243       -1.5934  -20.1227  -54.4306 H         1 UNK         0.3800 
    244 H244        0.0273  -19.6569  -50.4410 H         1 UNK         0.0800 
    245 H245       -1.4989  -19.0025  -49.9567 H         1 UNK         0.0800 
    246 H246        1.0910  -18.7289  -52.9942 H         1 UNK         0.0800 
    247 H247        1.3200  -17.0078  -53.0206 H         1 UNK         0.0800 
@<TRIPOS>BOND
     1    1    2 1    
     2    1  127 1    
     3    1  128 1    
     4    1  129 1    
     5    2    3 2    
     6    2    4 am   BACKBONE|DICT|INTERRES
     7    4    5 1    
     8    4  130 1    
     9    5    6 1    
    10    5   65 1    
    11    5  131 1    
    12    6    7 1    
    13    6  132 1    
    14    6  133 1    
    15    7    8 1    
    16    8    9 1    
    17    8  134 1    
    18    8  135 1    
    19    9   10 ar   
    20    9   14 ar   
    21   10   11 ar   
    22   10  136 1    
    23   11   12 ar   
    24   11  126 1    
    25   12   13 ar   
    26   12  137 1    
    27   13   14 ar   
    28   13   15 1    
    29   14  138 1    
    30   15   16 1    
    31   15  139 1    
    32   15  140 1    
    33   16   17 1    
    34   17   18 1    
    35   17  141 1    
    36   17  142 1    
    37   18   19 1    
    38   18   67 1    
    39   18  143 1    
    40   19   20 am   BACKBONE|DICT|INTERRES
    41   19  144 1    
    42   20   21 2    
    43   20   22 1    
    44   22   23 1    
    45   22   24 1    
    46   22  145 1    
    47   23  146 1    
    48   23  147 1    
    49   23  148 1    
    50   24   25 am   BACKBONE|DICT|INTERRES
    51   24  149 1    
    52   25   26 2    
    53   25   27 1    
    54   27   28 1    
    55   27   29 1    
    56   27  150 1    
    57   28  151 1    
    58   28  152 1    
    59   28  153 1    
    60   29   30 am   BACKBONE|DICT|INTERRES
    61   29  154 1    
    62   30   31 2    
    63   30   32 1    
    64   32   33 1    
    65   32   34 1    
    66   32  155 1    
    67   33  156 1    
    68   33  157 1    
    69   33  158 1    
    70   34   35 am   BACKBONE|DICT|INTERRES
    71   34  159 1    
    72   35   36 2    
    73   35   37 1    
    74   37   38 1    
    75   37   39 1    
    76   37  160 1    
    77   38  161 1    
    78   38  162 1    
    79   38  163 1    
    80   39   40 am   BACKBONE|DICT|INTERRES
    81   39  164 1    
    82   40   41 2    
    83   40   42 1    
    84   42   43 1    
    85   42   44 1    
    86   42  165 1    
    87   43  166 1    
    88   43  167 1    
    89   43  168 1    
    90   44   45 am   BACKBONE|DICT|INTERRES
    91   44  169 1    
    92   45   46 2    
    93   45   47 1    
    94   47   48 1    
    95   47   49 1    
    96   47  170 1    
    97   48  171 1    
    98   48  172 1    
    99   48  173 1    
   100   49   50 am   BACKBONE|DICT|INTERRES
   101   49  174 1    
   102   50   51 2    
   103   50   52 1    
   104   52   53 1    
   105   52   54 1    
   106   52  175 1    
   107   53  176 1    
   108   53  177 1    
   109   53  178 1    
   110   54   55 am   BACKBONE|DICT|INTERRES
   111   54  179 1    
   112   55   56 2    
   113   55   57 1    
   114   57   58 1    
   115   57   59 1    
   116   57  180 1    
   117   58  181 1    
   118   58  182 1    
   119   58  183 1    
   120   59   60 am   BACKBONE|DICT|INTERRES
   121   59  184 1    
   122   60   61 2    
   123   60   62 1    
   124   62   63 1    
   125   62   64 1    
   126   62  185 1    
   127   63  186 1    
   128   63  187 1    
   129   63  188 1    
   130   64   65 am   BACKBONE|DICT|INTERRES
   131   64  189 1    
   132   65   66 2    
   133   67   68 2    
   134   67   69 am   BACKBONE|DICT|INTERRES
   135   69   70 1    
   136   69  190 1    
   137   70   71 1    
   138   70   72 1    
   139   70  191 1    
   140   71  192 1    
   141   71  193 1    
   142   71  194 1    
   143   72   73 2    
   144   72   74 am   BACKBONE|DICT|INTERRES
   145   74   75 1    
   146   74  195 1    
   147   75   76 1    
   148   75   77 1    
   149   75  196 1    
   150   76  197 1    
   151   76  198 1    
   152   76  199 1    
   153   77   78 2    
   154   77   79 am   BACKBONE|DICT|INTERRES
   155   79   80 1    
   156   79  200 1    
   157   80   81 1    
   158   80   82 1    
   159   80  201 1    
   160   81  202 1    
   161   81  203 1    
   162   81  204 1    
   163   82   83 2    
   164   82   84 am   BACKBONE|DICT|INTERRES
   165   84   85 1    
   166   84  205 1    
   167   85   86 1    
   168   85   87 1    
   169   85  206 1    
   170   86  207 1    
   171   86  208 1    
   172   86  209 1    
   173   87   88 2    
   174   87   89 am   BACKBONE|DICT|INTERRES
   175   89   90 1    
   176   89  210 1    
   177   90   91 1    
   178   90   92 1    
   179   90  211 1    
   180   91  212 1    
   181   91  213 1    
   182   91  214 1    
   183   92   93 2    
   184   92   94 am   BACKBONE|DICT|INTERRES
   185   94   95 1    
   186   94  215 1    
   187   95   96 1    
   188   95   97 1    
   189   95  216 1    
   190   96  217 1    
   191   96  218 1    
   192   96  219 1    
   193   97   98 2    
   194   97   99 am   BACKBONE|DICT|INTERRES
   195   99  100 1    
   196   99  220 1    
   197  100  101 1    
   198  100  102 1    
   199  100  221 1    
   200  101  222 1    
   201  101  223 1    
   202  101  224 1    
   203  102  103 2    
   204  102  104 am   BACKBONE|DICT|INTERRES
   205  104  105 1    
   206  104  225 1    
   207  105  106 1    
   208  105  107 1    
   209  105  226 1    
   210  106  227 1    
   211  106  228 1    
   212  106  229 1    
   213  107  108 2    
   214  107  109 am   BACKBONE|DICT|INTERRES
   215  109  110 1    
   216  109  230 1    
   217  110  111 1    
   218  110  112 1    
   219  110  231 1    
   220  111  232 1    
   221  111  233 1    
   222  111  234 1    
   223  112  113 2    
   224  112  114 am   BACKBONE|DICT|INTERRES
   225  114  115 1    
   226  114  235 1    
   227  115  116 1    
   228  115  117 1    
   229  115  236 1    
   230  116  237 1    
   231  116  238 1    
   232  116  239 1    
   233  117  118 2    
   234  117  119 am   BACKBONE|DICT|INTERRES
   235  119  120 1    
   236  119  240 1    
   237  120  121 1    
   238  120  124 1    
   239  120  241 1    
   240  121  122 am   BACKBONE|DICT|INTERRES
   241  121  123 2    
   242  122  242 1    
   243  122  243 1    
   244  124  125 1    
   245  124  244 1    
   246  124  245 1    
   247  125  126 1    
   248  126  246 1    
   249  126  247 1    
@<TRIPOS>SUBSTRUCTURE
     1 UNK         1 GROUP             0       ****    0 ROOT    
