@<TRIPOS>MOLECULE
3R540
247   249    1
SMALL
USER_CHARGES


@<TRIPOS>ATOM
      1 CA         -0.9630   -9.2975  -50.8964 C.3       0 UNK        -0.1800 
      2 C          -0.2429  -10.1564  -49.8669 C.2       0 UNK         0.5000 
      3 O          -0.4973  -10.0232  -48.6699 O.2       0 UNK        -0.5000 
      4 N           0.6497  -11.0428  -50.3263 N.am      1 UNK        -0.5000 
      5 CA          1.4339  -11.9616  -49.4899 C.3       1 UNK         0.1400 
      6 C6          2.6959  -12.4875  -50.2256 C.3       23 UNK        -0.0398 
      7 S7          2.3788  -13.2686  -51.8528 S.3       23 UNK        -0.2404 
      8 C8          3.1722  -14.9030  -51.6807 C.3       23 UNK        -0.0205 
      9 C9          2.2239  -15.9301  -51.0818 C.ar      23 UNK        -0.0193 
     10 C10         1.3956  -16.6915  -51.9129 C.ar      23 UNK        -0.1150 
     11 C11         0.4884  -17.6066  -51.3697 C.ar      23 UNK        -0.0193 
     12 C12         0.4034  -17.7412  -49.9812 C.ar      23 UNK        -0.1150 
     13 C13         1.2337  -16.9951  -49.1427 C.ar      23 UNK        -0.0193 
     14 C14         2.1593  -16.1093  -49.6982 C.ar      23 UNK        -0.1150 
     15 C15         1.0743  -17.1049  -47.6388 C.3       23 UNK        -0.0205 
     16 S16         1.8217  -18.6314  -47.0075 S.3       23 UNK        -0.2404 
     17 C17         0.7326  -18.9480  -45.5818 C.3       23 UNK        -0.0398 
     18 CA         -0.4532  -19.8596  -45.9749 C.3       11 UNK         0.1400 
     19 N          -0.0142  -21.1398  -46.5315 N.am      11 UNK        -0.5000 
     20 C          -0.7832  -21.9845  -47.2276 C.2       10 UNK         0.5000 
     21 O          -1.9685  -21.7789  -47.4862 O.2       10 UNK        -0.5000 
     22 CA         -0.1191  -23.2922  -47.6922 C.3       10 UNK         0.1400 
     23 CB          0.5437  -23.0935  -49.0624 C.3       10 UNK        -0.1800 
     24 N           0.8687  -23.7942  -46.7327 N.am      10 UNK        -0.5000 
     25 C           0.5529  -24.2825  -45.5245 C.2       9 UNK         0.5000 
     26 O          -0.6013  -24.3783  -45.1084 O.2       9 UNK        -0.5000 
     27 CA          1.7242  -24.6839  -44.6080 C.3       9 UNK         0.1400 
     28 CB          2.2661  -26.0681  -44.9954 C.3       9 UNK        -0.1800 
     29 N           2.8279  -23.7166  -44.5802 N.am      9 UNK        -0.5000 
     30 C           2.7072  -22.4290  -44.2312 C.2       8 UNK         0.5000 
     31 O           1.6248  -21.8857  -44.0012 O.2       8 UNK        -0.5000 
     32 CA          4.0053  -21.6033  -44.1507 C.3       8 UNK         0.1400 
     33 CB          4.4562  -21.1594  -45.5494 C.3       8 UNK        -0.1800 
     34 N           3.8184  -20.4193  -43.3089 N.am      8 UNK        -0.5000 
     35 C           3.7313  -20.4532  -41.9726 C.2       7 UNK         0.5000 
     36 O           3.9388  -21.4747  -41.3146 O.2       7 UNK        -0.5000 
     37 CA          3.3078  -19.1637  -41.2353 C.3       7 UNK         0.1400 
     38 CB          4.2040  -18.8765  -40.0128 C.3       7 UNK        -0.1800 
     39 N           3.1625  -17.9590  -42.0635 N.am      7 UNK        -0.5000 
     40 C           4.1236  -17.2654  -42.6955 C.2       6 UNK         0.5000 
     41 O           5.2909  -17.6438  -42.7916 O.2       6 UNK        -0.5000 
     42 CA          3.7211  -15.9084  -43.3164 C.3       6 UNK         0.1400 
     43 CB          3.4951  -16.0523  -44.8264 C.3       6 UNK        -0.1800 
     44 N           2.5179  -15.3233  -42.7200 N.am      6 UNK        -0.5000 
     45 C           2.4201  -14.8832  -41.4567 C.2       5 UNK         0.5000 
     46 O           3.3782  -14.8094  -40.6866 O.2       5 UNK        -0.5000 
     47 CA          1.0165  -14.4848  -40.9516 C.3       5 UNK         0.1400 
     48 CB          0.8746  -12.9552  -40.9177 C.3       5 UNK        -0.1800 
     49 N          -0.0989  -15.0396  -41.7260 N.am      5 UNK        -0.5000 
     50 C          -0.3572  -16.3380  -41.9419 C.2       4 UNK         0.5000 
     51 O           0.3370  -17.2554  -41.5032 O.2       4 UNK        -0.5000 
     52 CA         -1.5686  -16.6720  -42.8345 C.3       4 UNK         0.1400 
     53 CB         -2.7368  -17.2050  -41.9922 C.3       4 UNK        -0.1800 
     54 N          -2.0385  -15.5546  -43.6612 N.am      4 UNK        -0.5000 
     55 C          -1.3508  -15.0084  -44.6732 C.2       3 UNK         0.5000 
     56 O          -0.2103  -15.3566  -44.9872 O.2       3 UNK        -0.5000 
     57 CA         -2.0389  -13.8371  -45.4037 C.3       3 UNK         0.1400 
     58 CB         -1.6506  -12.5040  -44.7453 C.3       3 UNK        -0.1800 
     59 N          -1.7036  -13.7709  -46.8258 N.am      3 UNK        -0.5000 
     60 C          -1.9813  -14.7146  -47.7338 C.2       2 UNK         0.5000 
     61 O          -2.6258  -15.7317  -47.4726 O.2       2 UNK        -0.5000 
     62 CA         -1.4902  -14.4988  -49.1840 C.3       2 UNK         0.1400 
     63 CB         -2.6834  -14.3922  -50.1479 C.3       2 UNK        -0.1800 
     64 N          -0.6001  -13.3585  -49.4348 N.am      2 UNK        -0.5000 
     65 C           0.6008  -13.1148  -48.8880 C.2       1 UNK         0.5000 
     66 O           1.0661  -13.7461  -47.9419 O.2       1 UNK        -0.5000 
     67 C          -1.4070  -20.0811  -44.7898 C.2       11 UNK         0.5000 
     68 O          -2.4771  -19.4751  -44.7497 O.2       11 UNK        -0.5000 
     69 N          -1.0338  -20.9950  -43.8833 N.am      12 UNK        -0.5000 
     70 CA         -1.8463  -21.4493  -42.7528 C.3       12 UNK         0.1400 
     71 CB         -1.0049  -22.3917  -41.8798 C.3       12 UNK        -0.1800 
     72 C          -3.1569  -22.1329  -43.1916 C.2       12 UNK         0.5000 
     73 O          -4.1672  -22.0158  -42.4984 O.2       12 UNK        -0.5000 
     74 N          -3.1277  -22.7836  -44.3622 N.am      13 UNK        -0.5000 
     75 CA         -4.2836  -23.3559  -45.0517 C.3       13 UNK         0.1400 
     76 CB         -3.8022  -24.4980  -45.9633 C.3       13 UNK        -0.1800 
     77 C          -5.1092  -22.3191  -45.8466 C.2       13 UNK         0.5000 
     78 O          -5.9897  -22.7278  -46.6019 O.2       13 UNK        -0.5000 
     79 N          -4.8259  -21.0167  -45.6864 N.am      14 UNK        -0.5000 
     80 CA         -5.4967  -19.8753  -46.3176 C.3       14 UNK         0.1400 
     81 CB         -6.9675  -19.7752  -45.8603 C.3       14 UNK        -0.1800 
     82 C          -5.3378  -19.8890  -47.8491 C.2       14 UNK         0.5000 
     83 O          -6.3256  -19.9742  -48.5805 O.2       14 UNK        -0.5000 
     84 N          -4.0751  -19.8428  -48.2942 N.am      15 UNK        -0.5000 
     85 CA         -3.6257  -19.9080  -49.6887 C.3       15 UNK         0.1400 
     86 CB         -4.0671  -18.6570  -50.4764 C.3       15 UNK        -0.1800 
     87 C          -4.0390  -21.2313  -50.3614 C.2       15 UNK         0.5000 
     88 O          -4.5966  -21.2275  -51.4613 O.2       15 UNK        -0.5000 
     89 N          -3.7750  -22.3379  -49.6512 N.am      16 UNK        -0.5000 
     90 CA         -4.0976  -23.7211  -50.0102 C.3       16 UNK         0.1400 
     91 CB         -3.2265  -24.1765  -51.2009 C.3       16 UNK        -0.1800 
     92 C          -5.6084  -23.9196  -50.2549 C.2       16 UNK         0.5000 
     93 O          -6.0069  -24.3565  -51.3341 O.2       16 UNK        -0.5000 
     94 N          -6.4260  -23.5451  -49.2596 N.am      17 UNK        -0.5000 
     95 CA         -7.8939  -23.5407  -49.2766 C.3       17 UNK         0.1400 
     96 CB         -8.4458  -24.9811  -49.3158 C.3       17 UNK        -0.1800 
     97 C          -8.4666  -22.6368  -50.3887 C.2       17 UNK         0.5000 
     98 O          -9.4196  -23.0148  -51.0724 O.2       17 UNK        -0.5000 
     99 N          -7.8399  -21.4638  -50.5577 N.am      18 UNK        -0.5000 
    100 CA        -8.1014  -20.4321  -51.5640 C.3       18 UNK         0.1400 
    101 CB        -9.4990  -19.8115  -51.3596 C.3       18 UNK        -0.1800 
    102 C         -7.8569  -20.8731  -53.0249 C.2       18 UNK         0.5000 
    103 O         -8.2883  -20.1716  -53.9419 O.2       18 UNK        -0.5000 
    104 N         -7.1571  -21.9982  -53.2375 N.am      19 UNK        -0.5000 
    105 CA        -6.7758  -22.4857  -54.5654 C.3       19 UNK         0.1400 
    106 CB        -6.4181  -23.9771  -54.4854 C.3       19 UNK        -0.1800 
    107 C         -5.6034  -21.6934  -55.1719 C.2       19 UNK         0.5000 
    108 O         -5.4680  -21.6670  -56.3956 O.2       19 UNK        -0.5000 
    109 N         -4.7785  -21.0786  -54.3092 N.am      20 UNK        -0.5000 
    110 CA        -3.5865  -20.2889  -54.6279 C.3       20 UNK         0.1400 
    111 CB        -3.9603  -18.9985  -55.3849 C.3       20 UNK        -0.1800 
    112 C         -2.4843  -21.1093  -55.3293 C.2       20 UNK         0.5000 
    113 O         -1.7261  -20.5661  -56.1347 O.2       20 UNK        -0.5000 
    114 N         -2.3811  -22.4007  -54.9756 N.am      21 UNK        -0.5000 
    115 CA        -1.3586  -23.3411  -55.4578 C.3       21 UNK         0.1400 
    116 CB        -1.6698  -24.7388  -54.9011 C.3       21 UNK        -0.1800 
    117 C          0.0822  -22.9200  -55.0952 C.2       21 UNK         0.5000 
    118 O          1.0296  -23.2840  -55.7922 O.2       21 UNK        -0.5000 
    119 N          0.1959  -22.1254  -54.0275 N.am      22 UNK        -0.5000 
    120 CA         1.3659  -21.3463  -53.6073 C.3       22 UNK         0.1400 
    121 C          1.8194  -20.2300  -54.5970 C.2       22 UNK         0.5000 
    122 N          1.0242  -19.8291  -55.5825 N.am      22 UNK        -0.7600 
    123 O          2.9296  -19.7213  -54.4715 O.2       22 UNK        -0.5000 
    124 C124        1.1600  -20.7792  -52.1737 C.3       23 UNK        -0.0398 
    125 S125       -0.5382  -20.1723  -51.8357 S.3       23 UNK        -0.2404 
    126 C126       -0.4266  -18.4089  -52.2857 C.3       23 UNK        -0.0205 
    127 H127       -0.6387   -9.5248  -51.9123 H         1 UNK         0.0600 
    128 H128       -0.7691   -8.2419  -50.7059 H         1 UNK         0.0600 
    129 H129       -2.0387   -9.4638  -50.8374 H         1 UNK         0.0600 
    130 H130        0.8185  -11.1155  -51.3204 H         1 UNK         0.3000 
    131 H131        1.7925  -11.3852  -48.6341 H         1 UNK         0.0600 
    132 H132        3.3733  -11.6509  -50.4012 H         1 UNK         0.0800 
    133 H133        3.2534  -13.1709  -49.5834 H         1 UNK         0.0800 
    134 H134        4.0819  -14.8234  -51.0837 H         1 UNK         0.0800 
    135 H135        3.4926  -15.2380  -52.6684 H         1 UNK         0.0800 
    136 H136        1.4485  -16.5588  -52.9845 H         1 UNK         0.1150 
    137 H137       -0.3163  -18.4212  -49.5477 H         1 UNK         0.1150 
    138 H138        2.7947  -15.5242  -49.0489 H         1 UNK         0.1150 
    139 H139        1.5207  -16.2472  -47.1347 H         1 UNK         0.0800 
    140 H140        0.0109  -17.0771  -47.3974 H         1 UNK         0.0800 
    141 H141        0.3783  -17.9959  -45.1850 H         1 UNK         0.0800 
    142 H142        1.3301  -19.3994  -44.7894 H         1 UNK         0.0800 
    143 H143       -1.0234  -19.3429  -46.7504 H         1 UNK         0.0600 
    144 H144        0.9376  -21.4077  -46.3313 H         1 UNK         0.3000 
    145 H145       -0.9039  -24.0435  -47.8016 H         1 UNK         0.0600 
    146 H146        1.3493  -22.3594  -49.0178 H         1 UNK         0.0600 
    147 H147        0.9589  -24.0278  -49.4403 H         1 UNK         0.0600 
    148 H148       -0.1823  -22.7411  -49.7967 H         1 UNK         0.0600 
    149 H149        1.8411  -23.7436  -46.9989 H         1 UNK         0.3000 
    150 H150        1.3286  -24.7501  -43.5922 H         1 UNK         0.0600 
    151 H151        1.4670  -26.8106  -45.0100 H         1 UNK         0.0600 
    152 H152        3.0140  -26.4130  -44.2812 H         1 UNK         0.0600 
    153 H153        2.7249  -26.0599  -45.9849 H         1 UNK         0.0600 
    154 H154        3.7484  -24.0850  -44.7720 H         1 UNK         0.3000 
    155 H155        4.7886  -22.2259  -43.7132 H         1 UNK         0.0600 
    156 H156        4.6732  -22.0195  -46.1839 H         1 UNK         0.0600 
    157 H157        5.3636  -20.5573  -45.4991 H         1 UNK         0.0600 
    158 H158        3.6912  -20.5697  -46.0510 H         1 UNK         0.0600 
    159 H159        3.6281  -19.5474  -43.7777 H         1 UNK         0.3000 
    160 H160        2.3053  -19.3684  -40.8563 H         1 UNK         0.0600 
    161 H161        3.8675  -17.9880  -39.4781 H         1 UNK         0.0600 
    162 H162        5.2443  -18.7217  -40.3003 H         1 UNK         0.0600 
    163 H163        4.1823  -19.7059  -39.3050 H         1 UNK         0.0600 
    164 H164        2.2282  -17.5611  -42.0467 H         1 UNK         0.3000 
    165 H165        4.5511  -15.2170  -43.1573 H         1 UNK         0.0600 
    166 H166        2.6291  -16.6794  -45.0289 H         1 UNK         0.0600 
    167 H167        3.3217  -15.0840  -45.2965 H         1 UNK         0.0600 
    168 H168        4.3568  -16.5057  -45.3180 H         1 UNK         0.0600 
    169 H169        1.6836  -15.3267  -43.2918 H         1 UNK         0.3000 
    170 H170        0.9246  -14.8619  -39.9311 H         1 UNK         0.0600 
    171 H171        0.9242  -12.5255  -41.9191 H         1 UNK         0.0600 
    172 H172       -0.0729  -12.6556  -40.4693 H         1 UNK         0.0600 
    173 H173        1.6697  -12.5003  -40.3253 H         1 UNK         0.0600 
    174 H174       -0.7269  -14.3677  -42.1405 H         1 UNK         0.3000 
    175 H175       -1.2476  -17.4666  -43.5064 H         1 UNK         0.0600 
    176 H176       -3.1320  -16.4413  -41.3215 H         1 UNK         0.0600 
    177 H177       -3.5516  -17.5536  -42.6274 H         1 UNK         0.0600 
    178 H178       -2.4234  -18.0515  -41.3796 H         1 UNK         0.0600 
    179 H179       -2.9621  -15.2037  -43.4514 H         1 UNK         0.3000 
    180 H180       -3.1205  -13.9644  -45.3255 H         1 UNK         0.0600 
    181 H181       -0.5769  -12.3220  -44.8123 H         1 UNK         0.0600 
    182 H182       -1.9206  -12.4926  -43.6886 H         1 UNK         0.0600 
    183 H183       -2.1626  -11.6657  -45.2185 H         1 UNK         0.0600 
    184 H184       -1.1137  -13.0050  -47.1156 H         1 UNK         0.3000 
    185 H185       -0.9356  -15.3948  -49.4536 H         1 UNK         0.0600 
    186 H186       -2.3518  -14.3789  -51.1865 H         1 UNK         0.0600 
    187 H187       -3.3584  -15.2419  -50.0396 H         1 UNK         0.0600 
    188 H188       -3.2640  -13.4869  -49.9668 H         1 UNK         0.0600 
    189 H189       -0.8825  -12.7465  -50.1856 H         1 UNK         0.3000 
    190 H190       -0.1165  -21.4290  -43.9804 H         1 UNK         0.3000 
    191 H191       -2.1115  -20.5724  -42.1587 H         1 UNK         0.0600 
    192 H192       -0.6911  -23.2774  -42.4338 H         1 UNK         0.0600 
    193 H193       -0.1072  -21.8927  -41.5136 H         1 UNK         0.0600 
    194 H194       -1.5695  -22.7289  -41.0097 H         1 UNK         0.0600 
    195 H195       -2.2365  -22.8793  -44.8331 H         1 UNK         0.3000 
    196 H196       -4.9547  -23.7867  -44.3062 H         1 UNK         0.0600 
    197 H197       -3.2620  -25.2542  -45.3936 H         1 UNK         0.0600 
    198 H198       -3.1385  -24.1333  -46.7461 H         1 UNK         0.0600 
    199 H199       -4.6398  -25.0003  -46.4488 H         1 UNK         0.0600 
    200 H200       -4.0444  -20.7688  -45.0907 H         1 UNK         0.3000 
    201 H201       -4.9847  -18.9803  -45.9607 H         1 UNK         0.0600 
    202 H202       -7.4335  -18.8702  -46.2514 H         1 UNK         0.0600 
    203 H203       -7.0394  -19.7345  -44.7735 H         1 UNK         0.0600 
    204 H204       -7.5636  -20.6209  -46.2044 H         1 UNK         0.0600 
    205 H205       -3.3369  -19.8827  -47.6045 H         1 UNK         0.3000 
    206 H206       -2.5360  -19.9084  -49.6555 H         1 UNK         0.0600 
    207 H207       -5.1516  -18.5894  -50.5620 H         1 UNK         0.0600 
    208 H208       -3.6624  -18.6709  -51.4885 H         1 UNK         0.0600 
    209 H209       -3.7097  -17.7465  -49.9957 H         1 UNK         0.0600 
    210 H210       -3.2967  -22.2078  -48.7631 H         1 UNK         0.3000 
    211 H211       -3.8360  -24.3398  -49.1512 H         1 UNK         0.0600 
    212 H212       -2.1657  -24.0512  -50.9839 H         1 UNK         0.0600 
    213 H213       -3.3906  -25.2315  -51.4232 H         1 UNK         0.0600 
    214 H214       -3.4507  -23.6139  -52.1073 H         1 UNK         0.0600 
    215 H215       -6.0243  -23.1831  -48.3973 H         1 UNK         0.3000 
    216 H216       -8.2077  -23.0939  -48.3322 H         1 UNK         0.0600 
    217 H217       -9.5301  -24.9864  -49.1997 H         1 UNK         0.0600 
    218 H218       -8.2159  -25.4793  -50.2581 H         1 UNK         0.0600 
    219 H219       -8.0307  -25.5831  -48.5075 H         1 UNK         0.0600 
    220 H220       -7.0933  -21.2285  -49.9096 H         1 UNK         0.3000 
    221 H221       -7.3668  -19.6494  -51.3702 H         1 UNK         0.0600 
    222 H222      -10.2949  -20.5159  -51.6022 H         1 UNK         0.0600 
    223 H223       -9.6384  -19.4878  -50.3281 H         1 UNK         0.0600 
    224 H224       -9.6359  -18.9344  -51.9931 H         1 UNK         0.0600 
    225 H225       -6.8212  -22.5275  -52.4417 H         1 UNK         0.3000 
    226 H226       -7.6334  -22.3802  -55.2332 H         1 UNK         0.0600 
    227 H227       -7.2203  -24.5539  -54.0246 H         1 UNK         0.0600 
    228 H228       -6.2492  -24.3898  -55.4807 H         1 UNK         0.0600 
    229 H229       -5.5086  -24.1427  -53.9072 H         1 UNK         0.0600 
    230 H230       -4.9607  -21.1859  -53.3129 H         1 UNK         0.3000 
    231 H231       -3.1646  -19.9888  -53.6679 H         1 UNK         0.0600 
    232 H232       -3.0966  -18.3401  -55.4848 H         1 UNK         0.0600 
    233 H233       -4.7319  -18.4409  -54.8539 H         1 UNK         0.0600 
    234 H234       -4.3284  -19.2090  -56.3893 H         1 UNK         0.0600 
    235 H235       -3.0517  -22.7628  -54.3142 H         1 UNK         0.3000 
    236 H236       -1.4264  -23.3779  -56.5468 H         1 UNK         0.0600 
    237 H237       -2.6625  -25.0731  -55.2036 H         1 UNK         0.0600 
    238 H238       -0.9536  -25.4741  -55.2700 H         1 UNK         0.0600 
    239 H239       -1.6264  -24.7567  -53.8114 H         1 UNK         0.0600 
    240 H240       -0.6504  -21.8992  -53.5261 H         1 UNK         0.3000 
    241 H241        2.2037  -22.0446  -53.5645 H         1 UNK         0.0600 
    242 H242        1.3507  -19.1139  -56.2120 H         1 UNK         0.3800 
    243 H243        0.0959  -20.2193  -55.7166 H         1 UNK         0.3800 
    244 H244        1.3509  -21.5794  -51.4590 H         1 UNK         0.0800 
    245 H245        1.8910  -20.0062  -51.9292 H         1 UNK         0.0800 
    246 H246       -1.4245  -17.9725  -52.2394 H         1 UNK         0.0800 
    247 H247       -0.1060  -18.3269  -53.3248 H         1 UNK         0.0800 
@<TRIPOS>BOND
     1    1    2 1    
     2    1  127 1    
     3    1  128 1    
     4    1  129 1    
     5    2    3 2    
     6    2    4 am   BACKBONE|DICT|INTERRES
     7    4    5 1    
     8    4  130 1    
     9    5    6 1    
    10    5   65 1    
    11    5  131 1    
    12    6    7 1    
    13    6  132 1    
    14    6  133 1    
    15    7    8 1    
    16    8    9 1    
    17    8  134 1    
    18    8  135 1    
    19    9   10 ar   
    20    9   14 ar   
    21   10   11 ar   
    22   10  136 1    
    23   11   12 ar   
    24   11  126 1    
    25   12   13 ar   
    26   12  137 1    
    27   13   14 ar   
    28   13   15 1    
    29   14  138 1    
    30   15   16 1    
    31   15  139 1    
    32   15  140 1    
    33   16   17 1    
    34   17   18 1    
    35   17  141 1    
    36   17  142 1    
    37   18   19 1    
    38   18   67 1    
    39   18  143 1    
    40   19   20 am   BACKBONE|DICT|INTERRES
    41   19  144 1    
    42   20   21 2    
    43   20   22 1    
    44   22   23 1    
    45   22   24 1    
    46   22  145 1    
    47   23  146 1    
    48   23  147 1    
    49   23  148 1    
    50   24   25 am   BACKBONE|DICT|INTERRES
    51   24  149 1    
    52   25   26 2    
    53   25   27 1    
    54   27   28 1    
    55   27   29 1    
    56   27  150 1    
    57   28  151 1    
    58   28  152 1    
    59   28  153 1    
    60   29   30 am   BACKBONE|DICT|INTERRES
    61   29  154 1    
    62   30   31 2    
    63   30   32 1    
    64   32   33 1    
    65   32   34 1    
    66   32  155 1    
    67   33  156 1    
    68   33  157 1    
    69   33  158 1    
    70   34   35 am   BACKBONE|DICT|INTERRES
    71   34  159 1    
    72   35   36 2    
    73   35   37 1    
    74   37   38 1    
    75   37   39 1    
    76   37  160 1    
    77   38  161 1    
    78   38  162 1    
    79   38  163 1    
    80   39   40 am   BACKBONE|DICT|INTERRES
    81   39  164 1    
    82   40   41 2    
    83   40   42 1    
    84   42   43 1    
    85   42   44 1    
    86   42  165 1    
    87   43  166 1    
    88   43  167 1    
    89   43  168 1    
    90   44   45 am   BACKBONE|DICT|INTERRES
    91   44  169 1    
    92   45   46 2    
    93   45   47 1    
    94   47   48 1    
    95   47   49 1    
    96   47  170 1    
    97   48  171 1    
    98   48  172 1    
    99   48  173 1    
   100   49   50 am   BACKBONE|DICT|INTERRES
   101   49  174 1    
   102   50   51 2    
   103   50   52 1    
   104   52   53 1    
   105   52   54 1    
   106   52  175 1    
   107   53  176 1    
   108   53  177 1    
   109   53  178 1    
   110   54   55 am   BACKBONE|DICT|INTERRES
   111   54  179 1    
   112   55   56 2    
   113   55   57 1    
   114   57   58 1    
   115   57   59 1    
   116   57  180 1    
   117   58  181 1    
   118   58  182 1    
   119   58  183 1    
   120   59   60 am   BACKBONE|DICT|INTERRES
   121   59  184 1    
   122   60   61 2    
   123   60   62 1    
   124   62   63 1    
   125   62   64 1    
   126   62  185 1    
   127   63  186 1    
   128   63  187 1    
   129   63  188 1    
   130   64   65 am   BACKBONE|DICT|INTERRES
   131   64  189 1    
   132   65   66 2    
   133   67   68 2    
   134   67   69 am   BACKBONE|DICT|INTERRES
   135   69   70 1    
   136   69  190 1    
   137   70   71 1    
   138   70   72 1    
   139   70  191 1    
   140   71  192 1    
   141   71  193 1    
   142   71  194 1    
   143   72   73 2    
   144   72   74 am   BACKBONE|DICT|INTERRES
   145   74   75 1    
   146   74  195 1    
   147   75   76 1    
   148   75   77 1    
   149   75  196 1    
   150   76  197 1    
   151   76  198 1    
   152   76  199 1    
   153   77   78 2    
   154   77   79 am   BACKBONE|DICT|INTERRES
   155   79   80 1    
   156   79  200 1    
   157   80   81 1    
   158   80   82 1    
   159   80  201 1    
   160   81  202 1    
   161   81  203 1    
   162   81  204 1    
   163   82   83 2    
   164   82   84 am   BACKBONE|DICT|INTERRES
   165   84   85 1    
   166   84  205 1    
   167   85   86 1    
   168   85   87 1    
   169   85  206 1    
   170   86  207 1    
   171   86  208 1    
   172   86  209 1    
   173   87   88 2    
   174   87   89 am   BACKBONE|DICT|INTERRES
   175   89   90 1    
   176   89  210 1    
   177   90   91 1    
   178   90   92 1    
   179   90  211 1    
   180   91  212 1    
   181   91  213 1    
   182   91  214 1    
   183   92   93 2    
   184   92   94 am   BACKBONE|DICT|INTERRES
   185   94   95 1    
   186   94  215 1    
   187   95   96 1    
   188   95   97 1    
   189   95  216 1    
   190   96  217 1    
   191   96  218 1    
   192   96  219 1    
   193   97   98 2    
   194   97   99 am   BACKBONE|DICT|INTERRES
   195   99  100 1    
   196   99  220 1    
   197  100  101 1    
   198  100  102 1    
   199  100  221 1    
   200  101  222 1    
   201  101  223 1    
   202  101  224 1    
   203  102  103 2    
   204  102  104 am   BACKBONE|DICT|INTERRES
   205  104  105 1    
   206  104  225 1    
   207  105  106 1    
   208  105  107 1    
   209  105  226 1    
   210  106  227 1    
   211  106  228 1    
   212  106  229 1    
   213  107  108 2    
   214  107  109 am   BACKBONE|DICT|INTERRES
   215  109  110 1    
   216  109  230 1    
   217  110  111 1    
   218  110  112 1    
   219  110  231 1    
   220  111  232 1    
   221  111  233 1    
   222  111  234 1    
   223  112  113 2    
   224  112  114 am   BACKBONE|DICT|INTERRES
   225  114  115 1    
   226  114  235 1    
   227  115  116 1    
   228  115  117 1    
   229  115  236 1    
   230  116  237 1    
   231  116  238 1    
   232  116  239 1    
   233  117  118 2    
   234  117  119 am   BACKBONE|DICT|INTERRES
   235  119  120 1    
   236  119  240 1    
   237  120  121 1    
   238  120  124 1    
   239  120  241 1    
   240  121  122 am   BACKBONE|DICT|INTERRES
   241  121  123 2    
   242  122  242 1    
   243  122  243 1    
   244  124  125 1    
   245  124  244 1    
   246  124  245 1    
   247  125  126 1    
   248  126  246 1    
   249  126  247 1    
@<TRIPOS>SUBSTRUCTURE
     1 UNK         1 GROUP             0       ****    0 ROOT    
