@<TRIPOS>MOLECULE
3R540
247   249    1
SMALL
USER_CHARGES


@<TRIPOS>ATOM
      1 CA          7.0720  -13.2425  -48.3102 C.3       0 UNK        -0.1800 
      2 C           5.7040  -13.8060  -48.6667 C.2       0 UNK         0.5000 
      3 O           5.0738  -13.3115  -49.6005 O.2       0 UNK        -0.5000 
      4 N           5.2533  -14.8162  -47.9074 N.am      1 UNK        -0.5000 
      5 CA          4.0054  -15.6017  -47.9778 C.3       1 UNK         0.1400 
      6 C6          3.9775  -16.7303  -49.0451 C.3       23 UNK        -0.0398 
      7 S7          4.3916  -16.2972  -50.7764 S.3       23 UNK        -0.2404 
      8 C8          2.8141  -15.7410  -51.5144 C.3       23 UNK        -0.0205 
      9 C9          1.6180  -16.6131  -51.1569 C.ar      23 UNK        -0.0193 
     10 C10         0.4695  -16.0298  -50.6181 C.ar      23 UNK        -0.1150 
     11 C11        -0.6160  -16.8185  -50.2325 C.ar      23 UNK        -0.0193 
     12 C12        -0.5463  -18.2071  -50.3758 C.ar      23 UNK        -0.1150 
     13 C13         0.6010  -18.8032  -50.9093 C.ar      23 UNK        -0.0193 
     14 C14         1.6640  -17.9991  -51.3294 C.ar      23 UNK        -0.1150 
     15 C15         0.7234  -20.3169  -50.9867 C.3       23 UNK        -0.0205 
     16 S16         2.0194  -20.9389  -49.8654 S.3       23 UNK        -0.2404 
     17 C17         1.3017  -20.5650  -48.2270 C.3       23 UNK        -0.0398 
     18 CA          0.8179  -21.8303  -47.4837 C.3       11 UNK         0.1400 
     19 N           0.5986  -21.5758  -46.0596 N.am      11 UNK        -0.5000 
     20 C           0.3680  -22.5287  -45.1459 C.2       10 UNK         0.5000 
     21 O           0.3597  -23.7329  -45.3991 O.2       10 UNK        -0.5000 
     22 CA          0.0427  -22.0574  -43.7189 C.3       10 UNK         0.1400 
     23 CB          1.3267  -21.6888  -42.9616 C.3       10 UNK        -0.1800 
     24 N          -0.8939  -20.9324  -43.6974 N.am      10 UNK        -0.5000 
     25 C          -2.1509  -20.9884  -44.1625 C.2       9 UNK         0.5000 
     26 O          -2.6606  -22.0055  -44.6313 O.2       9 UNK        -0.5000 
     27 CA         -2.9685  -19.6866  -44.1360 C.3       9 UNK         0.1400 
     28 CB         -3.5181  -19.4193  -42.7271 C.3       9 UNK        -0.1800 
     29 N          -2.2070  -18.5271  -44.5965 N.am      9 UNK        -0.5000 
     30 C          -1.7063  -18.3795  -45.8321 C.2       8 UNK         0.5000 
     31 O          -1.8399  -19.2064  -46.7355 O.2       8 UNK        -0.5000 
     32 CA         -0.8612  -17.1171  -46.0758 C.3       8 UNK         0.1400 
     33 CB         -1.7466  -15.8634  -46.1452 C.3       8 UNK        -0.1800 
     34 N           0.1546  -16.9248  -45.0439 N.am      8 UNK        -0.5000 
     35 C           1.1380  -17.7876  -44.7557 C.2       7 UNK         0.5000 
     36 O           1.3289  -18.8458  -45.3557 O.2       7 UNK        -0.5000 
     37 CA          2.0201  -17.4317  -43.5474 C.3       7 UNK         0.1400 
     38 CB          3.0983  -16.4062  -43.9308 C.3       7 UNK        -0.1800 
     39 N           1.2281  -16.9227  -42.4266 N.am      7 UNK        -0.5000 
     40 C           0.3603  -17.6596  -41.7173 C.2       6 UNK         0.5000 
     41 O           0.1554  -18.8565  -41.9139 O.2       6 UNK        -0.5000 
     42 CA         -0.4457  -16.9227  -40.6335 C.3       6 UNK         0.1400 
     43 CB          0.3881  -16.7538  -39.3546 C.3       6 UNK        -0.1800 
     44 N          -0.9155  -15.6135  -41.0855 N.am      6 UNK        -0.5000 
     45 C          -1.8168  -15.4284  -42.0606 C.2       5 UNK         0.5000 
     46 O          -2.3827  -16.3468  -42.6519 O.2       5 UNK        -0.5000 
     47 CA         -2.0990  -13.9717  -42.4712 C.3       5 UNK         0.1400 
     48 CB         -3.2172  -13.3740  -41.6044 C.3       5 UNK        -0.1800 
     49 N          -0.9124  -13.1153  -42.3936 N.am      5 UNK        -0.5000 
     50 C           0.1852  -13.2677  -43.1454 C.2       4 UNK         0.5000 
     51 O           0.3277  -14.1587  -43.9859 O.2       4 UNK        -0.5000 
     52 CA          1.3358  -12.2960  -42.8699 C.3       4 UNK         0.1400 
     53 CB          2.3027  -12.8807  -41.8255 C.3       4 UNK        -0.1800 
     54 N           2.0518  -12.0349  -44.1133 N.am      4 UNK        -0.5000 
     55 C           2.6784  -10.8887  -44.4033 C.2       3 UNK         0.5000 
     56 O           2.7401   -9.9346  -43.6261 O.2       3 UNK        -0.5000 
     57 CA          3.3649  -10.7706  -45.7786 C.3       3 UNK         0.1400 
     58 CB          4.8855  -10.9432  -45.6336 C.3       3 UNK        -0.1800 
     59 N           2.8903  -11.7159  -46.7889 N.am      3 UNK        -0.5000 
     60 C           1.6811  -11.7199  -47.3682 C.2       2 UNK         0.5000 
     61 O           0.7731  -10.9499  -47.0550 O.2       2 UNK        -0.5000 
     62 CA          1.4608  -12.7351  -48.5101 C.3       2 UNK         0.1400 
     63 CB          1.3183  -12.0060  -49.8559 C.3       2 UNK        -0.1800 
     64 N           2.5633  -13.6937  -48.6148 N.am      2 UNK        -0.5000 
     65 C           2.6799  -14.8110  -47.8933 C.2       1 UNK         0.5000 
     66 O           1.8012  -15.2038  -47.1296 O.2       1 UNK        -0.5000 
     67 C          -0.4266  -22.4543  -48.1476 C.2       11 UNK         0.5000 
     68 O          -0.2929  -23.4491  -48.8590 O.2       11 UNK        -0.5000 
     69 N          -1.6157  -21.8981  -47.8728 N.am      12 UNK        -0.5000 
     70 CA         -2.8925  -22.4161  -48.3665 C.3       12 UNK         0.1400 
     71 CB         -4.0211  -21.4371  -48.0161 C.3       12 UNK        -0.1800 
     72 C          -3.2066  -23.8365  -47.8621 C.2       12 UNK         0.5000 
     73 O          -3.6810  -24.6621  -48.6439 O.2       12 UNK        -0.5000 
     74 N          -2.8978  -24.1085  -46.5867 N.am      13 UNK        -0.5000 
     75 CA         -3.0051  -25.4294  -45.9693 C.3       13 UNK         0.1400 
     76 CB         -2.8006  -25.3141  -44.4514 C.3       13 UNK        -0.1800 
     77 C          -2.0250  -26.4451  -46.5826 C.2       13 UNK         0.5000 
     78 O          -2.4409  -27.5546  -46.9163 O.2       13 UNK        -0.5000 
     79 N          -0.7588  -26.0405  -46.7637 N.am      14 UNK        -0.5000 
     80 CA          0.2933  -26.8441  -47.3949 C.3       14 UNK         0.1400 
     81 CB          1.6433  -26.1239  -47.2594 C.3       14 UNK        -0.1800 
     82 C          -0.0013  -27.1724  -48.8709 C.2       14 UNK         0.5000 
     83 O           0.2805  -28.2852  -49.3167 O.2       14 UNK        -0.5000 
     84 N          -0.6010  -26.2131  -49.5871 N.am      15 UNK        -0.5000 
     85 CA         -1.0847  -26.3600  -50.9598 C.3       15 UNK         0.1400 
     86 CB         -1.2905  -24.9599  -51.5605 C.3       15 UNK        -0.1800 
     87 C          -2.3877  -27.1771  -51.0730 C.2       15 UNK         0.5000 
     88 O          -2.8067  -27.4654  -52.1926 O.2       15 UNK        -0.5000 
     89 N          -3.0302  -27.5005  -49.9400 N.am      16 UNK        -0.5000 
     90 CA         -4.3217  -28.1864  -49.8212 C.3       16 UNK         0.1400 
     91 CB         -4.2034  -29.6564  -50.2741 C.3       16 UNK        -0.1800 
     92 C          -5.4598  -27.4187  -50.5280 C.2       16 UNK         0.5000 
     93 O          -6.2731  -28.0173  -51.2339 O.2       16 UNK        -0.5000 
     94 N          -5.4660  -26.0914  -50.3352 N.am      17 UNK        -0.5000 
     95 CA         -6.3921  -25.1019  -50.8950 C.3       17 UNK         0.1400 
     96 CB         -7.8461  -25.3844  -50.4620 C.3       17 UNK        -0.1800 
     97 C          -6.2566  -24.8788  -52.4181 C.2       17 UNK         0.5000 
     98 O          -7.1229  -24.2314  -53.0072 O.2       17 UNK        -0.5000 
     99 N          -5.1645  -25.3612  -53.0320 N.am      18 UNK        -0.5000 
    100 CA        -4.8281  -25.1093  -54.4400 C.3       18 UNK         0.1400 
    101 CB        -3.9165  -26.2345  -54.9535 C.3       18 UNK        -0.1800 
    102 C         -4.1670  -23.7318  -54.6681 C.2       18 UNK         0.5000 
    103 O         -3.9563  -23.3450  -55.8189 O.2       18 UNK        -0.5000 
    104 N         -3.8363  -23.0269  -53.5777 N.am      19 UNK        -0.5000 
    105 CA        -3.2861  -21.6721  -53.5626 C.3       19 UNK         0.1400 
    106 CB        -2.7588  -21.3845  -52.1455 C.3       19 UNK        -0.1800 
    107 C         -4.3115  -20.5987  -53.9871 C.2       19 UNK         0.5000 
    108 O         -5.4856  -20.8983  -54.2213 O.2       19 UNK        -0.5000 
    109 N         -3.8383  -19.3480  -54.0503 N.am      20 UNK        -0.5000 
    110 CA        -4.6412  -18.1455  -54.2733 C.3       20 UNK         0.1400 
    111 CB        -3.6836  -16.9532  -54.4345 C.3       20 UNK        -0.1800 
    112 C         -5.6598  -17.8803  -53.1432 C.2       20 UNK         0.5000 
    113 O         -5.5608  -18.4609  -52.0583 O.2       20 UNK        -0.5000 
    114 N         -6.6055  -16.9695  -53.4147 N.am      21 UNK        -0.5000 
    115 CA        -7.7344  -16.5963  -52.5504 C.3       21 UNK         0.1400 
    116 CB        -8.5912  -15.5534  -53.2855 C.3       21 UNK        -0.1800 
    117 C         -7.3624  -16.0880  -51.1403 C.2       21 UNK         0.5000 
    118 O         -8.2176  -16.0951  -50.2537 O.2       21 UNK        -0.5000 
    119 N         -6.1033  -15.6771  -50.9505 N.am      22 UNK        -0.5000 
    120 CA        -5.4951  -15.3952  -49.6433 C.3       22 UNK         0.1400 
    121 C         -5.3255  -16.6377  -48.7166 C.2       22 UNK         0.5000 
    122 N         -5.3594  -17.8639  -49.2264 N.am      22 UNK        -0.7600 
    123 O         -5.1704  -16.4816  -47.5094 O.2       22 UNK        -0.5000 
    124 C124       -4.1656  -14.6122  -49.7960 C.3       23 UNK        -0.0398 
    125 S125       -2.9300  -15.4363  -50.8661 S.3       23 UNK        -0.2404 
    126 C126       -1.8357  -16.1636  -49.6120 C.3       23 UNK        -0.0205 
    127 H127        6.9957  -12.1755  -48.1014 H         1 UNK         0.0600 
    128 H128        7.4983  -13.7304  -47.4334 H         1 UNK         0.0600 
    129 H129        7.7607  -13.3786  -49.1440 H         1 UNK         0.0600 
    130 H130        5.8620  -15.1158  -47.1585 H         1 UNK         0.3000 
    131 H131        4.0262  -16.1357  -47.0267 H         1 UNK         0.0600 
    132 H132        4.7167  -17.4774  -48.7538 H         1 UNK         0.0800 
    133 H133        3.0304  -17.2692  -49.0044 H         1 UNK         0.0800 
    134 H134        2.6416  -14.7072  -51.2142 H         1 UNK         0.0800 
    135 H135        2.9233  -15.7251  -52.5993 H         1 UNK         0.0800 
    136 H136        0.4208  -14.9596  -50.4806 H         1 UNK         0.1150 
    137 H137       -1.3725  -18.8222  -50.0463 H         1 UNK         0.1150 
    138 H138        2.5543  -18.4593  -51.7346 H         1 UNK         0.1150 
    139 H139       -0.2220  -20.8008  -50.7410 H         1 UNK         0.0800 
    140 H140        0.9651  -20.6070  -52.0100 H         1 UNK         0.0800 
    141 H141        0.5022  -19.8272  -48.3041 H         1 UNK         0.0800 
    142 H142        2.0898  -20.0814  -47.6486 H         1 UNK         0.0800 
    143 H143        1.6177  -22.5718  -47.5421 H         1 UNK         0.0600 
    144 H144        0.6232  -20.6039  -45.7623 H         1 UNK         0.3000 
    145 H145       -0.4299  -22.8914  -43.1959 H         1 UNK         0.0600 
    146 H146        1.1146  -21.4561  -41.9180 H         1 UNK         0.0600 
    147 H147        2.0378  -22.5158  -42.9713 H         1 UNK         0.0600 
    148 H148        1.8214  -20.8237  -43.4038 H         1 UNK         0.0600 
    149 H149       -0.5557  -20.0685  -43.2836 H         1 UNK         0.3000 
    150 H150       -3.8161  -19.8140  -44.8124 H         1 UNK         0.0600 
    151 H151       -4.0947  -20.2707  -42.3635 H         1 UNK         0.0600 
    152 H152       -4.1790  -18.5524  -42.7209 H         1 UNK         0.0600 
    153 H153       -2.7168  -19.2332  -42.0110 H         1 UNK         0.0600 
    154 H154       -2.0721  -17.7801  -43.9208 H         1 UNK         0.3000 
    155 H155       -0.3495  -17.2341  -47.0334 H         1 UNK         0.0600 
    156 H156       -1.1692  -14.9923  -46.4565 H         1 UNK         0.0600 
    157 H157       -2.1986  -15.6353  -45.1823 H         1 UNK         0.0600 
    158 H158       -2.5645  -15.9924  -46.8523 H         1 UNK         0.0600 
    159 H159        0.1237  -16.0434  -44.5410 H         1 UNK         0.3000 
    160 H160        2.5223  -18.3440  -43.2186 H         1 UNK         0.0600 
    161 H161        2.6641  -15.4789  -44.3059 H         1 UNK         0.0600 
    162 H162        3.7460  -16.8038  -44.7122 H         1 UNK         0.0600 
    163 H163        3.7322  -16.1609  -43.0788 H         1 UNK         0.0600 
    164 H164        1.2953  -15.9352  -42.2346 H         1 UNK         0.3000 
    165 H165       -1.3190  -17.5334  -40.3942 H         1 UNK         0.0600 
    166 H166        1.2641  -16.1258  -39.5220 H         1 UNK         0.0600 
    167 H167       -0.2016  -16.3019  -38.5568 H         1 UNK         0.0600 
    168 H168        0.7410  -17.7193  -38.9895 H         1 UNK         0.0600 
    169 H169       -0.5053  -14.8022  -40.6480 H         1 UNK         0.3000 
    170 H170       -2.4404  -13.9774  -43.5079 H         1 UNK         0.0600 
    171 H171       -4.1211  -13.9822  -41.6607 H         1 UNK         0.0600 
    172 H172       -2.9267  -13.3141  -40.5548 H         1 UNK         0.0600 
    173 H173       -3.4816  -12.3705  -41.9383 H         1 UNK         0.0600 
    174 H174       -0.9460  -12.3634  -41.7200 H         1 UNK         0.3000 
    175 H175        0.9107  -11.3651  -42.4882 H         1 UNK         0.0600 
    176 H176        3.1025  -12.1776  -41.5926 H         1 UNK         0.0600 
    177 H177        1.7861  -13.1037  -40.8913 H         1 UNK         0.0600 
    178 H178        2.7638  -13.8043  -42.1771 H         1 UNK         0.0600 
    179 H179        1.9836  -12.7647  -44.8109 H         1 UNK         0.3000 
    180 H180        3.1697   -9.7622  -46.1493 H         1 UNK         0.0600 
    181 H181        5.1460  -11.9481  -45.2983 H         1 UNK         0.0600 
    182 H182        5.2933  -10.2389  -44.9073 H         1 UNK         0.0600 
    183 H183        5.3955  -10.7611  -46.5798 H         1 UNK         0.0600 
    184 H184        3.5627  -12.3902  -47.1206 H         1 UNK         0.3000 
    185 H185        0.5300  -13.2690  -48.3068 H         1 UNK         0.0600 
    186 H186        1.1224  -12.7043  -50.6690 H         1 UNK         0.0600 
    187 H187        0.4889  -11.2980  -49.8324 H         1 UNK         0.0600 
    188 H188        2.2210  -11.4474  -50.1063 H         1 UNK         0.0600 
    189 H189        3.3616  -13.4280  -49.1913 H         1 UNK         0.3000 
    190 H190       -1.6543  -21.0602  -47.2980 H         1 UNK         0.3000 
    191 H191       -2.8213  -22.4732  -49.4528 H         1 UNK         0.0600 
    192 H192       -3.8356  -20.4560  -48.4535 H         1 UNK         0.0600 
    193 H193       -4.9792  -21.7904  -48.3994 H         1 UNK         0.0600 
    194 H194       -4.1223  -21.3091  -46.9381 H         1 UNK         0.0600 
    195 H195       -2.5706  -23.3530  -45.9903 H         1 UNK         0.3000 
    196 H196       -4.0179  -25.7979  -46.1454 H         1 UNK         0.0600 
    197 H197       -2.8897  -26.2885  -43.9696 H         1 UNK         0.0600 
    198 H198       -3.5484  -24.6598  -44.0030 H         1 UNK         0.0600 
    199 H199       -1.8172  -24.9136  -44.2048 H         1 UNK         0.0600 
    200 H200       -0.4836  -25.1209  -46.4282 H         1 UNK         0.3000 
    201 H201        0.3574  -27.7899  -46.8533 H         1 UNK         0.0600 
    202 H202        1.9016  -25.9650  -46.2123 H         1 UNK         0.0600 
    203 H203        1.6313  -25.1513  -47.7521 H         1 UNK         0.0600 
    204 H204        2.4466  -26.7100  -47.7073 H         1 UNK         0.0600 
    205 H205       -0.7188  -25.2954  -49.1649 H         1 UNK         0.3000 
    206 H206       -0.3212  -26.8764  -51.5447 H         1 UNK         0.0600 
    207 H207       -0.3707  -24.3756  -51.5269 H         1 UNK         0.0600 
    208 H208       -1.5987  -25.0171  -52.6050 H         1 UNK         0.0600 
    209 H209       -2.0586  -24.4069  -51.0195 H         1 UNK         0.0600 
    210 H210       -2.6162  -27.2116  -49.0622 H         1 UNK         0.3000 
    211 H211       -4.5701  -28.1881  -48.7590 H         1 UNK         0.0600 
    212 H212       -4.0032  -29.7383  -51.3428 H         1 UNK         0.0600 
    213 H213       -5.1255  -30.2023  -50.0717 H         1 UNK         0.0600 
    214 H214       -3.4008  -30.1676  -49.7424 H         1 UNK         0.0600 
    215 H215       -4.7423  -25.6982  -49.7341 H         1 UNK         0.3000 
    216 H216       -6.1031  -24.1538  -50.4390 H         1 UNK         0.0600 
    217 H217       -7.9161  -25.5267  -49.3836 H         1 UNK         0.0600 
    218 H218       -8.2500  -26.2736  -50.9463 H         1 UNK         0.0600 
    219 H219       -8.5001  -24.5505  -50.7196 H         1 UNK         0.0600 
    220 H220       -4.5123  -25.9289  -52.5058 H         1 UNK         0.3000 
    221 H221       -5.7472  -25.1312  -55.0292 H         1 UNK         0.0600 
    222 H222       -2.9297  -26.1951  -54.4922 H         1 UNK         0.0600 
    223 H223       -4.3446  -27.2169  -54.7528 H         1 UNK         0.0600 
    224 H224       -3.7728  -26.1568  -56.0318 H         1 UNK         0.0600 
    225 H225       -4.0781  -23.4209  -52.6827 H         1 UNK         0.3000 
    226 H226       -2.4496  -21.6350  -54.2635 H         1 UNK         0.0600 
    227 H227       -2.0258  -22.1288  -51.8370 H         1 UNK         0.0600 
    228 H228       -2.2666  -20.4132  -52.0908 H         1 UNK         0.0600 
    229 H229       -3.5687  -21.3778  -51.4151 H         1 UNK         0.0600 
    230 H230       -2.8696  -19.1886  -53.8179 H         1 UNK         0.3000 
    231 H231       -5.1976  -18.2793  -55.2032 H         1 UNK         0.0600 
    232 H232       -4.2258  -16.0242  -54.6144 H         1 UNK         0.0600 
    233 H233       -3.0117  -17.1003  -55.2803 H         1 UNK         0.0600 
    234 H234       -3.0708  -16.8085  -53.5443 H         1 UNK         0.0600 
    235 H235       -6.5906  -16.5253  -54.3215 H         1 UNK         0.3000 
    236 H236       -8.3391  -17.4943  -52.4094 H         1 UNK         0.0600 
    237 H237       -9.4634  -15.2730  -52.6932 H         1 UNK         0.0600 
    238 H238       -8.0266  -14.6427  -53.4891 H         1 UNK         0.0600 
    239 H239       -8.9592  -15.9415  -54.2355 H         1 UNK         0.0600 
    240 H240       -5.4627  -15.7237  -51.7287 H         1 UNK         0.3000 
    241 H241       -6.1871  -14.7360  -49.1155 H         1 UNK         0.0600 
    242 H242       -5.4638  -18.0153  -50.2271 H         1 UNK         0.3800 
    243 H243       -5.2607  -18.6524  -48.6102 H         1 UNK         0.3800 
    244 H244       -4.3773  -13.6384  -50.2393 H         1 UNK         0.0800 
    245 H245       -3.7304  -14.3925  -48.8195 H         1 UNK         0.0800 
    246 H246       -1.5059  -15.3806  -48.9288 H         1 UNK         0.0800 
    247 H247       -2.3923  -16.8927  -49.0218 H         1 UNK         0.0800 
@<TRIPOS>BOND
     1    1    2 1    
     2    1  127 1    
     3    1  128 1    
     4    1  129 1    
     5    2    3 2    
     6    2    4 am   BACKBONE|DICT|INTERRES
     7    4    5 1    
     8    4  130 1    
     9    5    6 1    
    10    5   65 1    
    11    5  131 1    
    12    6    7 1    
    13    6  132 1    
    14    6  133 1    
    15    7    8 1    
    16    8    9 1    
    17    8  134 1    
    18    8  135 1    
    19    9   10 ar   
    20    9   14 ar   
    21   10   11 ar   
    22   10  136 1    
    23   11   12 ar   
    24   11  126 1    
    25   12   13 ar   
    26   12  137 1    
    27   13   14 ar   
    28   13   15 1    
    29   14  138 1    
    30   15   16 1    
    31   15  139 1    
    32   15  140 1    
    33   16   17 1    
    34   17   18 1    
    35   17  141 1    
    36   17  142 1    
    37   18   19 1    
    38   18   67 1    
    39   18  143 1    
    40   19   20 am   BACKBONE|DICT|INTERRES
    41   19  144 1    
    42   20   21 2    
    43   20   22 1    
    44   22   23 1    
    45   22   24 1    
    46   22  145 1    
    47   23  146 1    
    48   23  147 1    
    49   23  148 1    
    50   24   25 am   BACKBONE|DICT|INTERRES
    51   24  149 1    
    52   25   26 2    
    53   25   27 1    
    54   27   28 1    
    55   27   29 1    
    56   27  150 1    
    57   28  151 1    
    58   28  152 1    
    59   28  153 1    
    60   29   30 am   BACKBONE|DICT|INTERRES
    61   29  154 1    
    62   30   31 2    
    63   30   32 1    
    64   32   33 1    
    65   32   34 1    
    66   32  155 1    
    67   33  156 1    
    68   33  157 1    
    69   33  158 1    
    70   34   35 am   BACKBONE|DICT|INTERRES
    71   34  159 1    
    72   35   36 2    
    73   35   37 1    
    74   37   38 1    
    75   37   39 1    
    76   37  160 1    
    77   38  161 1    
    78   38  162 1    
    79   38  163 1    
    80   39   40 am   BACKBONE|DICT|INTERRES
    81   39  164 1    
    82   40   41 2    
    83   40   42 1    
    84   42   43 1    
    85   42   44 1    
    86   42  165 1    
    87   43  166 1    
    88   43  167 1    
    89   43  168 1    
    90   44   45 am   BACKBONE|DICT|INTERRES
    91   44  169 1    
    92   45   46 2    
    93   45   47 1    
    94   47   48 1    
    95   47   49 1    
    96   47  170 1    
    97   48  171 1    
    98   48  172 1    
    99   48  173 1    
   100   49   50 am   BACKBONE|DICT|INTERRES
   101   49  174 1    
   102   50   51 2    
   103   50   52 1    
   104   52   53 1    
   105   52   54 1    
   106   52  175 1    
   107   53  176 1    
   108   53  177 1    
   109   53  178 1    
   110   54   55 am   BACKBONE|DICT|INTERRES
   111   54  179 1    
   112   55   56 2    
   113   55   57 1    
   114   57   58 1    
   115   57   59 1    
   116   57  180 1    
   117   58  181 1    
   118   58  182 1    
   119   58  183 1    
   120   59   60 am   BACKBONE|DICT|INTERRES
   121   59  184 1    
   122   60   61 2    
   123   60   62 1    
   124   62   63 1    
   125   62   64 1    
   126   62  185 1    
   127   63  186 1    
   128   63  187 1    
   129   63  188 1    
   130   64   65 am   BACKBONE|DICT|INTERRES
   131   64  189 1    
   132   65   66 2    
   133   67   68 2    
   134   67   69 am   BACKBONE|DICT|INTERRES
   135   69   70 1    
   136   69  190 1    
   137   70   71 1    
   138   70   72 1    
   139   70  191 1    
   140   71  192 1    
   141   71  193 1    
   142   71  194 1    
   143   72   73 2    
   144   72   74 am   BACKBONE|DICT|INTERRES
   145   74   75 1    
   146   74  195 1    
   147   75   76 1    
   148   75   77 1    
   149   75  196 1    
   150   76  197 1    
   151   76  198 1    
   152   76  199 1    
   153   77   78 2    
   154   77   79 am   BACKBONE|DICT|INTERRES
   155   79   80 1    
   156   79  200 1    
   157   80   81 1    
   158   80   82 1    
   159   80  201 1    
   160   81  202 1    
   161   81  203 1    
   162   81  204 1    
   163   82   83 2    
   164   82   84 am   BACKBONE|DICT|INTERRES
   165   84   85 1    
   166   84  205 1    
   167   85   86 1    
   168   85   87 1    
   169   85  206 1    
   170   86  207 1    
   171   86  208 1    
   172   86  209 1    
   173   87   88 2    
   174   87   89 am   BACKBONE|DICT|INTERRES
   175   89   90 1    
   176   89  210 1    
   177   90   91 1    
   178   90   92 1    
   179   90  211 1    
   180   91  212 1    
   181   91  213 1    
   182   91  214 1    
   183   92   93 2    
   184   92   94 am   BACKBONE|DICT|INTERRES
   185   94   95 1    
   186   94  215 1    
   187   95   96 1    
   188   95   97 1    
   189   95  216 1    
   190   96  217 1    
   191   96  218 1    
   192   96  219 1    
   193   97   98 2    
   194   97   99 am   BACKBONE|DICT|INTERRES
   195   99  100 1    
   196   99  220 1    
   197  100  101 1    
   198  100  102 1    
   199  100  221 1    
   200  101  222 1    
   201  101  223 1    
   202  101  224 1    
   203  102  103 2    
   204  102  104 am   BACKBONE|DICT|INTERRES
   205  104  105 1    
   206  104  225 1    
   207  105  106 1    
   208  105  107 1    
   209  105  226 1    
   210  106  227 1    
   211  106  228 1    
   212  106  229 1    
   213  107  108 2    
   214  107  109 am   BACKBONE|DICT|INTERRES
   215  109  110 1    
   216  109  230 1    
   217  110  111 1    
   218  110  112 1    
   219  110  231 1    
   220  111  232 1    
   221  111  233 1    
   222  111  234 1    
   223  112  113 2    
   224  112  114 am   BACKBONE|DICT|INTERRES
   225  114  115 1    
   226  114  235 1    
   227  115  116 1    
   228  115  117 1    
   229  115  236 1    
   230  116  237 1    
   231  116  238 1    
   232  116  239 1    
   233  117  118 2    
   234  117  119 am   BACKBONE|DICT|INTERRES
   235  119  120 1    
   236  119  240 1    
   237  120  121 1    
   238  120  124 1    
   239  120  241 1    
   240  121  122 am   BACKBONE|DICT|INTERRES
   241  121  123 2    
   242  122  242 1    
   243  122  243 1    
   244  124  125 1    
   245  124  244 1    
   246  124  245 1    
   247  125  126 1    
   248  126  246 1    
   249  126  247 1    
@<TRIPOS>SUBSTRUCTURE
     1 UNK         1 GROUP             0       ****    0 ROOT    
