@<TRIPOS>MOLECULE
3R540
247   249    1
SMALL
USER_CHARGES


@<TRIPOS>ATOM
      1 CA         -4.3688   -8.6641  -46.3743 C.3       0 UNK        -0.1800 
      2 C          -3.4281   -9.7464  -46.8846 C.2       0 UNK         0.5000 
      3 O          -2.2427   -9.4832  -47.0843 O.2       0 UNK        -0.5000 
      4 N          -3.9482  -10.9648  -47.0830 N.am      1 UNK        -0.5000 
      5 CA         -3.2053  -12.1350  -47.5758 C.3       1 UNK         0.1400 
      6 C6         -4.1190  -13.0660  -48.4186 C.3       23 UNK        -0.0398 
      7 S7         -3.2226  -13.8513  -49.8028 S.3       23 UNK        -0.2404 
      8 C8         -3.2051  -15.6019  -49.3046 C.3       23 UNK        -0.0205 
      9 C9         -1.8868  -16.2653  -49.6713 C.ar      23 UNK        -0.0193 
     10 C10        -1.5877  -16.5521  -51.0064 C.ar      23 UNK        -0.1150 
     11 C11        -0.3757  -17.1587  -51.3470 C.ar      23 UNK        -0.0193 
     12 C12         0.5389  -17.4810  -50.3408 C.ar      23 UNK        -0.1150 
     13 C13         0.2400  -17.2252  -49.0003 C.ar      23 UNK        -0.0193 
     14 C14        -0.9708  -16.6090  -48.6724 C.ar      23 UNK        -0.1150 
     15 C15         1.2181  -17.6305  -47.9071 C.3       23 UNK        -0.0205 
     16 S16         1.4360  -19.4380  -47.8125 S.3       23 UNK        -0.2404 
     17 C17        -0.2774  -19.9954  -47.5291 C.3       23 UNK        -0.0398 
     18 CA         -0.3629  -21.5036  -47.1914 C.3       11 UNK         0.1400 
     19 N           0.4268  -21.8772  -46.0189 N.am      11 UNK        -0.5000 
     20 C           0.7767  -23.1318  -45.7033 C.2       10 UNK         0.5000 
     21 O           0.5408  -24.1098  -46.4122 O.2       10 UNK        -0.5000 
     22 CA          1.4853  -23.3271  -44.3499 C.3       10 UNK         0.1400 
     23 CB          3.0080  -23.2230  -44.5208 C.3       10 UNK        -0.1800 
     24 N           1.0434  -22.3624  -43.3402 N.am      10 UNK        -0.5000 
     25 C          -0.1910  -22.3234  -42.8178 C.2       9 UNK         0.5000 
     26 O          -1.0802  -23.1274  -43.0975 O.2       9 UNK        -0.5000 
     27 CA         -0.4942  -21.1481  -41.8735 C.3       9 UNK         0.1400 
     28 CB         -0.0146  -21.4559  -40.4477 C.3       9 UNK        -0.1800 
     29 N           0.1026  -19.8934  -42.3400 N.am      9 UNK        -0.5000 
     30 C          -0.2942  -19.2378  -43.4423 C.2       8 UNK         0.5000 
     31 O          -1.1760  -19.6655  -44.1865 O.2       8 UNK        -0.5000 
     32 CA          0.4245  -17.9280  -43.8258 C.3       8 UNK         0.1400 
     33 CB         -0.5556  -16.8327  -44.2918 C.3       8 UNK        -0.1800 
     34 N           1.3486  -17.4250  -42.8091 N.am      8 UNK        -0.5000 
     35 C           1.0744  -16.9573  -41.5807 C.2       7 UNK         0.5000 
     36 O          -0.0678  -16.8091  -41.1435 O.2       7 UNK        -0.5000 
     37 CA          2.2939  -16.6503  -40.6753 C.3       7 UNK         0.1400 
     38 CB          1.9678  -16.7971  -39.1747 C.3       7 UNK        -0.1800 
     39 N           3.4905  -17.4346  -41.0160 N.am      7 UNK        -0.5000 
     40 C           3.5863  -18.7733  -41.0842 C.2       6 UNK         0.5000 
     41 O           2.6722  -19.5356  -40.7673 O.2       6 UNK        -0.5000 
     42 CA          4.8917  -19.3466  -41.6819 C.3       6 UNK         0.1400 
     43 CB          4.6906  -20.7506  -42.2885 C.3       6 UNK        -0.1800 
     44 N           5.5193  -18.4534  -42.6663 N.am      6 UNK        -0.5000 
     45 C           4.9627  -17.9569  -43.7819 C.2       5 UNK         0.5000 
     46 O           3.8208  -18.2214  -44.1621 O.2       5 UNK        -0.5000 
     47 CA          5.8023  -16.9234  -44.5553 C.3       5 UNK         0.1400 
     48 CB          5.6942  -17.1420  -46.0740 C.3       5 UNK        -0.1800 
     49 N           5.3999  -15.5483  -44.2499 N.am      5 UNK        -0.5000 
     50 C           5.3754  -14.9650  -43.0414 C.2       4 UNK         0.5000 
     51 O           5.6948  -15.5300  -41.9945 O.2       4 UNK        -0.5000 
     52 CA          4.9047  -13.4982  -42.9887 C.3       4 UNK         0.1400 
     53 CB          6.1076  -12.5461  -43.0659 C.3       4 UNK        -0.1800 
     54 N           3.9506  -13.1544  -44.0466 N.am      4 UNK        -0.5000 
     55 C           2.6963  -13.6190  -44.1029 C.2       3 UNK         0.5000 
     56 O           2.2206  -14.3908  -43.2690 O.2       3 UNK        -0.5000 
     57 CA          1.8584  -13.1741  -45.3172 C.3       3 UNK         0.1400 
     58 CB          2.1747  -14.0664  -46.5286 C.3       3 UNK        -0.1800 
     59 N           0.4190  -13.2345  -45.0675 N.am      3 UNK        -0.5000 
     60 C          -0.2581  -12.5438  -44.1430 C.2       2 UNK         0.5000 
     61 O           0.2477  -11.6776  -43.4262 O.2       2 UNK        -0.5000 
     62 CA         -1.7669  -12.8568  -44.0467 C.3       2 UNK         0.1400 
     63 CB         -2.4143  -12.2701  -42.7797 C.3       2 UNK        -0.1800 
     64 N          -2.4899  -12.3575  -45.2165 N.am      2 UNK        -0.5000 
     65 C          -2.4595  -12.8905  -46.4463 C.2       1 UNK         0.5000 
     66 O          -1.8603  -13.9365  -46.6984 O.2       1 UNK        -0.5000 
     67 C          -1.8244  -21.9437  -46.9997 C.2       11 UNK         0.5000 
     68 O          -2.3629  -22.6448  -47.8552 O.2       11 UNK        -0.5000 
     69 N          -2.4264  -21.5611  -45.8633 N.am      12 UNK        -0.5000 
     70 CA         -3.8080  -21.8672  -45.4833 C.3       12 UNK         0.1400 
     71 CB         -4.1312  -21.1893  -44.1445 C.3       12 UNK        -0.1800 
     72 C          -4.1148  -23.3738  -45.4158 C.2       12 UNK         0.5000 
     73 O          -5.2132  -23.7807  -45.7936 O.2       12 UNK        -0.5000 
     74 N          -3.1240  -24.1810  -45.0118 N.am      13 UNK        -0.5000 
     75 CA         -3.1691  -25.6463  -45.0304 C.3       13 UNK         0.1400 
     76 CB         -1.8948  -26.1940  -44.3702 C.3       13 UNK        -0.1800 
     77 C          -3.3497  -26.2531  -46.4399 C.2       13 UNK         0.5000 
     78 O          -3.8698  -27.3634  -46.5537 O.2       13 UNK        -0.5000 
     79 N          -2.9452  -25.5125  -47.4805 N.am      14 UNK        -0.5000 
     80 CA         -3.1252  -25.8532  -48.8922 C.3       14 UNK         0.1400 
     81 CB         -1.8046  -25.5712  -49.6316 C.3       14 UNK        -0.1800 
     82 C          -4.2938  -25.0742  -49.5341 C.2       14 UNK         0.5000 
     83 O          -4.4561  -25.1466  -50.7502 O.2       14 UNK        -0.5000 
     84 N          -5.0713  -24.3351  -48.7259 N.am      15 UNK        -0.5000 
     85 CA         -6.1623  -23.4232  -49.1017 C.3       15 UNK         0.1400 
     86 CB         -7.2660  -24.1429  -49.9041 C.3       15 UNK        -0.1800 
     87 C          -5.6895  -22.1128  -49.7715 C.2       15 UNK         0.5000 
     88 O          -6.5160  -21.3671  -50.3003 O.2       15 UNK        -0.5000 
     89 N          -4.3837  -21.8241  -49.6818 N.am      16 UNK        -0.5000 
     90 CA         -3.6965  -20.6045  -50.1030 C.3       16 UNK         0.1400 
     91 CB         -3.9687  -19.4796  -49.0798 C.3       16 UNK        -0.1800 
     92 C          -3.9901  -20.2141  -51.5665 C.2       16 UNK         0.5000 
     93 O          -3.5956  -20.9398  -52.4798 O.2       16 UNK        -0.5000 
     94 N          -4.6607  -19.0726  -51.7622 N.am      17 UNK        -0.5000 
     95 CA         -4.9752  -18.4901  -53.0641 C.3       17 UNK         0.1400 
     96 CB         -5.4201  -17.0342  -52.8541 C.3       17 UNK        -0.1800 
     97 C          -6.0333  -19.2662  -53.8727 C.2       17 UNK         0.5000 
     98 O          -6.1460  -19.0215  -55.0754 O.2       17 UNK        -0.5000 
     99 N          -6.7900  -20.1722  -53.2314 N.am      18 UNK        -0.5000 
    100 CA        -7.8116  -21.0074  -53.8693 C.3       18 UNK         0.1400 
    101 CB        -8.5280  -21.8555  -52.8087 C.3       18 UNK        -0.1800 
    102 C         -7.1962  -21.8973  -54.9638 C.2       18 UNK         0.5000 
    103 O         -6.3566  -22.7453  -54.6581 O.2       18 UNK        -0.5000 
    104 N         -7.5704  -21.6254  -56.2228 N.am      19 UNK        -0.5000 
    105 CA        -7.0307  -22.2195  -57.4546 C.3       19 UNK         0.1400 
    106 CB        -7.4223  -23.7090  -57.5519 C.3       19 UNK        -0.1800 
    107 C         -5.5107  -21.9960  -57.6449 C.2       19 UNK         0.5000 
    108 O         -4.8748  -22.7466  -58.3869 O.2       19 UNK        -0.5000 
    109 N         -4.9577  -20.9771  -56.9653 N.am      20 UNK        -0.5000 
    110 CA        -3.5352  -20.6364  -56.8655 C.3       20 UNK         0.1400 
    111 CB        -3.0118  -20.0877  -58.2087 C.3       20 UNK        -0.1800 
    112 C         -2.6699  -21.7868  -56.3033 C.2       20 UNK         0.5000 
    113 O         -1.5234  -21.9550  -56.7248 O.2       20 UNK        -0.5000 
    114 N         -3.2267  -22.5589  -55.3562 N.am      21 UNK        -0.5000 
    115 CA        -2.5937  -23.7235  -54.7259 C.3       21 UNK         0.1400 
    116 CB        -3.5939  -24.3809  -53.7673 C.3       21 UNK        -0.1800 
    117 C         -1.2656  -23.4195  -54.0032 C.2       21 UNK         0.5000 
    118 O         -0.4088  -24.3000  -53.9148 O.2       21 UNK        -0.5000 
    119 N         -1.1029  -22.1747  -53.5420 N.am      22 UNK        -0.5000 
    120 CA         0.1558  -21.6027  -53.0451 C.3       22 UNK         0.1400 
    121 C          1.3027  -21.4770  -54.0959 C.2       22 UNK         0.5000 
    122 N          1.0506  -21.6059  -55.3937 N.am      22 UNK        -0.7600 
    123 O          2.4528  -21.2674  -53.7199 O.2       22 UNK        -0.5000 
    124 C124       -0.0906  -20.2597  -52.3137 C.3       23 UNK        -0.0398 
    125 S125       -0.8984  -18.9878  -53.3554 S.3       23 UNK        -0.2404 
    126 C126       -0.0586  -17.4728  -52.8007 C.3       23 UNK        -0.0205 
    127 H127       -5.3831   -9.0395  -46.2364 H         1 UNK         0.0600 
    128 H128       -4.4065   -7.8361  -47.0822 H         1 UNK         0.0600 
    129 H129       -4.0154   -8.2799  -45.4174 H         1 UNK         0.0600 
    130 H130       -4.9267  -11.1204  -46.8830 H         1 UNK         0.3000 
    131 H131       -2.4224  -11.7578  -48.2376 H         1 UNK         0.0600 
    132 H132       -4.9187  -12.4846  -48.8798 H         1 UNK         0.0800 
    133 H133       -4.6249  -13.8085  -47.7992 H         1 UNK         0.0800 
    134 H134       -4.0303  -16.1213  -49.7932 H         1 UNK         0.0800 
    135 H135       -3.3773  -15.6931  -48.2313 H         1 UNK         0.0800 
    136 H136       -2.2965  -16.2993  -51.7819 H         1 UNK         0.1150 
    137 H137        1.4775  -17.9531  -50.5947 H         1 UNK         0.1150 
    138 H138       -1.2036  -16.3984  -47.6380 H         1 UNK         0.1150 
    139 H139        0.8882  -17.2598  -46.9366 H         1 UNK         0.0800 
    140 H140        2.1858  -17.1658  -48.1008 H         1 UNK         0.0800 
    141 H141       -0.8525  -19.7831  -48.4321 H         1 UNK         0.0800 
    142 H142       -0.7152  -19.3854  -46.7385 H         1 UNK         0.0800 
    143 H143        0.0310  -22.0543  -48.0489 H         1 UNK         0.0600 
    144 H144        0.6525  -21.1363  -45.3737 H         1 UNK         0.3000 
    145 H145        1.2461  -24.3299  -43.9893 H         1 UNK         0.0600 
    146 H146        3.3055  -22.2439  -44.8982 H         1 UNK         0.0600 
    147 H147        3.3711  -23.9694  -45.2285 H         1 UNK         0.0600 
    148 H148        3.5254  -23.3938  -43.5765 H         1 UNK         0.0600 
    149 H149        1.7088  -21.6610  -43.0506 H         1 UNK         0.3000 
    150 H150       -1.5773  -21.0136  -41.8427 H         1 UNK         0.0600 
    151 H151        1.0587  -21.6454  -40.4134 H         1 UNK         0.0600 
    152 H152       -0.5151  -22.3406  -40.0524 H         1 UNK         0.0600 
    153 H153       -0.2305  -20.6288  -39.7711 H         1 UNK         0.0600 
    154 H154        0.8658  -19.5191  -41.7861 H         1 UNK         0.3000 
    155 H155        1.0520  -18.1848  -44.6798 H         1 UNK         0.0600 
    156 H156       -1.2579  -16.5525  -43.5069 H         1 UNK         0.0600 
    157 H157       -1.1422  -17.1663  -45.1485 H         1 UNK         0.0600 
    158 H158       -0.0182  -15.9370  -44.5989 H         1 UNK         0.0600 
    159 H159        2.3263  -17.5214  -43.0661 H         1 UNK         0.3000 
    160 H160        2.5523  -15.6064  -40.8569 H         1 UNK         0.0600 
    161 H161        1.6360  -17.8066  -38.9299 H         1 UNK         0.0600 
    162 H162        1.1743  -16.1108  -38.8769 H         1 UNK         0.0600 
    163 H163        2.8378  -16.5708  -38.5583 H         1 UNK         0.0600 
    164 H164        4.2936  -16.8911  -41.3169 H         1 UNK         0.3000 
    165 H165        5.5927  -19.4377  -40.8512 H         1 UNK         0.0600 
    166 H166        4.3445  -21.4604  -41.5362 H         1 UNK         0.0600 
    167 H167        3.9526  -20.7363  -43.0901 H         1 UNK         0.0600 
    168 H168        5.6219  -21.1420  -42.6974 H         1 UNK         0.0600 
    169 H169        6.4375  -18.1156  -42.4114 H         1 UNK         0.3000 
    170 H170        6.8498  -17.0397  -44.2706 H         1 UNK         0.0600 
    171 H171        6.3559  -16.4681  -46.6184 H         1 UNK         0.0600 
    172 H172        5.9765  -18.1608  -46.3425 H         1 UNK         0.0600 
    173 H173        4.6777  -16.9781  -46.4353 H         1 UNK         0.0600 
    174 H174        5.0914  -14.9965  -45.0356 H         1 UNK         0.3000 
    175 H175        4.4134  -13.3467  -42.0250 H         1 UNK         0.0600 
    176 H176        6.8267  -12.7603  -42.2740 H         1 UNK         0.0600 
    177 H177        6.6321  -12.6348  -44.0181 H         1 UNK         0.0600 
    178 H178        5.7973  -11.5077  -42.9480 H         1 UNK         0.0600 
    179 H179        4.2784  -12.5244  -44.7648 H         1 UNK         0.3000 
    180 H180        2.1123  -12.1401  -45.5582 H         1 UNK         0.0600 
    181 H181        1.9613  -15.1146  -46.3168 H         1 UNK         0.0600 
    182 H182        3.2268  -13.9964  -46.8072 H         1 UNK         0.0600 
    183 H183        1.5887  -13.7752  -47.4009 H         1 UNK         0.0600 
    184 H184       -0.1167  -13.8634  -45.6554 H         1 UNK         0.3000 
    185 H185       -1.8765  -13.9425  -44.0017 H         1 UNK         0.0600 
    186 H186       -1.9073  -12.6271  -41.8824 H         1 UNK         0.0600 
    187 H187       -2.3723  -11.1802  -42.7708 H         1 UNK         0.0600 
    188 H188       -3.4606  -12.5656  -42.6994 H         1 UNK         0.0600 
    189 H189       -2.9793  -11.4828  -45.0996 H         1 UNK         0.3000 
    190 H190       -1.9137  -20.9672  -45.2138 H         1 UNK         0.3000 
    191 H191       -4.4575  -21.4373  -46.2484 H         1 UNK         0.0600 
    192 H192       -3.9972  -20.1092  -44.2067 H         1 UNK         0.0600 
    193 H193       -5.1658  -21.3727  -43.8519 H         1 UNK         0.0600 
    194 H194       -3.4915  -21.5605  -43.3435 H         1 UNK         0.0600 
    195 H195       -2.2752  -23.7585  -44.6502 H         1 UNK         0.3000 
    196 H196       -4.0262  -25.9577  -44.4300 H         1 UNK         0.0600 
    197 H197       -0.9992  -25.8845  -44.9096 H         1 UNK         0.0600 
    198 H198       -1.9034  -27.2844  -44.3448 H         1 UNK         0.0600 
    199 H199       -1.8029  -25.8466  -43.3410 H         1 UNK         0.0600 
    200 H200       -2.5483  -24.5956  -47.3045 H         1 UNK         0.3000 
    201 H201       -3.3510  -26.9159  -48.9987 H         1 UNK         0.0600 
    202 H202       -1.5521  -24.5105  -49.6184 H         1 UNK         0.0600 
    203 H203       -0.9761  -26.1169  -49.1800 H         1 UNK         0.0600 
    204 H204       -1.8636  -25.8794  -50.6763 H         1 UNK         0.0600 
    205 H205       -4.8705  -24.3559  -47.7322 H         1 UNK         0.3000 
    206 H206       -6.6110  -23.1137  -48.1570 H         1 UNK         0.0600 
    207 H207       -7.5757  -25.0646  -49.4117 H         1 UNK         0.0600 
    208 H208       -8.1517  -23.5135  -49.9973 H         1 UNK         0.0600 
    209 H209       -6.9396  -24.3927  -50.9138 H         1 UNK         0.0600 
    210 H210       -3.7893  -22.4904  -49.2000 H         1 UNK         0.3000 
    211 H211       -2.6310  -20.8309  -50.0626 H         1 UNK         0.0600 
    212 H212       -3.6557  -19.7760  -48.0793 H         1 UNK         0.0600 
    213 H213       -3.4084  -18.5803  -49.3303 H         1 UNK         0.0600 
    214 H214       -5.0258  -19.2174  -49.0252 H         1 UNK         0.0600 
    215 H215       -4.9771  -18.5606  -50.9526 H         1 UNK         0.3000 
    216 H216       -4.0589  -18.4830  -53.6582 H         1 UNK         0.0600 
    217 H217       -6.3270  -16.9743  -52.2511 H         1 UNK         0.0600 
    218 H218       -5.6273  -16.5464  -53.8076 H         1 UNK         0.0600 
    219 H219       -4.6465  -16.4501  -52.3561 H         1 UNK         0.0600 
    220 H220       -6.6032  -20.3602  -52.2530 H         1 UNK         0.3000 
    221 H221       -8.5491  -20.3405  -54.3205 H         1 UNK         0.0600 
    222 H222       -7.8471  -22.5674  -52.3427 H         1 UNK         0.0600 
    223 H223       -8.9538  -21.2330  -52.0216 H         1 UNK         0.0600 
    224 H224       -9.3439  -22.4269  -53.2527 H         1 UNK         0.0600 
    225 H225       -8.2355  -20.8779  -56.3664 H         1 UNK         0.3000 
    226 H226       -7.5147  -21.6970  -58.2807 H         1 UNK         0.0600 
    227 H227       -8.4956  -23.8444  -57.4184 H         1 UNK         0.0600 
    228 H228       -7.1650  -24.1199  -58.5288 H         1 UNK         0.0600 
    229 H229       -6.9117  -24.3117  -56.8001 H         1 UNK         0.0600 
    230 H230       -5.5709  -20.4072  -56.3899 H         1 UNK         0.3000 
    231 H231       -3.4682  -19.8299  -56.1337 H         1 UNK         0.0600 
    232 H232       -3.6321  -19.2663  -58.5672 H         1 UNK         0.0600 
    233 H233       -2.9935  -20.8572  -58.9809 H         1 UNK         0.0600 
    234 H234       -1.9962  -19.7038  -58.1053 H         1 UNK         0.0600 
    235 H235       -4.1779  -22.3651  -55.0653 H         1 UNK         0.3000 
    236 H236       -2.3681  -24.4373  -55.5205 H         1 UNK         0.0600 
    237 H237       -3.9285  -23.6815  -52.9998 H         1 UNK         0.0600 
    238 H238       -4.4751  -24.7390  -54.2993 H         1 UNK         0.0600 
    239 H239       -3.1503  -25.2389  -53.2606 H         1 UNK         0.0600 
    240 H240       -1.8926  -21.5403  -53.5876 H         1 UNK         0.3000 
    241 H241        0.5314  -22.3032  -52.2969 H         1 UNK         0.0600 
    242 H242        1.8083  -21.5260  -56.0524 H         1 UNK         0.3800 
    243 H243        0.1078  -21.7675  -55.7369 H         1 UNK         0.3800 
    244 H244        0.8510  -19.8743  -51.9208 H         1 UNK         0.0800 
    245 H245       -0.7213  -20.4274  -51.4413 H         1 UNK         0.0800 
    246 H246       -0.3771  -16.6410  -53.4306 H         1 UNK         0.0800 
    247 H247        1.0173  -17.5752  -52.9510 H         1 UNK         0.0800 
@<TRIPOS>BOND
     1    1    2 1    
     2    1  127 1    
     3    1  128 1    
     4    1  129 1    
     5    2    3 2    
     6    2    4 am   BACKBONE|DICT|INTERRES
     7    4    5 1    
     8    4  130 1    
     9    5    6 1    
    10    5   65 1    
    11    5  131 1    
    12    6    7 1    
    13    6  132 1    
    14    6  133 1    
    15    7    8 1    
    16    8    9 1    
    17    8  134 1    
    18    8  135 1    
    19    9   10 ar   
    20    9   14 ar   
    21   10   11 ar   
    22   10  136 1    
    23   11   12 ar   
    24   11  126 1    
    25   12   13 ar   
    26   12  137 1    
    27   13   14 ar   
    28   13   15 1    
    29   14  138 1    
    30   15   16 1    
    31   15  139 1    
    32   15  140 1    
    33   16   17 1    
    34   17   18 1    
    35   17  141 1    
    36   17  142 1    
    37   18   19 1    
    38   18   67 1    
    39   18  143 1    
    40   19   20 am   BACKBONE|DICT|INTERRES
    41   19  144 1    
    42   20   21 2    
    43   20   22 1    
    44   22   23 1    
    45   22   24 1    
    46   22  145 1    
    47   23  146 1    
    48   23  147 1    
    49   23  148 1    
    50   24   25 am   BACKBONE|DICT|INTERRES
    51   24  149 1    
    52   25   26 2    
    53   25   27 1    
    54   27   28 1    
    55   27   29 1    
    56   27  150 1    
    57   28  151 1    
    58   28  152 1    
    59   28  153 1    
    60   29   30 am   BACKBONE|DICT|INTERRES
    61   29  154 1    
    62   30   31 2    
    63   30   32 1    
    64   32   33 1    
    65   32   34 1    
    66   32  155 1    
    67   33  156 1    
    68   33  157 1    
    69   33  158 1    
    70   34   35 am   BACKBONE|DICT|INTERRES
    71   34  159 1    
    72   35   36 2    
    73   35   37 1    
    74   37   38 1    
    75   37   39 1    
    76   37  160 1    
    77   38  161 1    
    78   38  162 1    
    79   38  163 1    
    80   39   40 am   BACKBONE|DICT|INTERRES
    81   39  164 1    
    82   40   41 2    
    83   40   42 1    
    84   42   43 1    
    85   42   44 1    
    86   42  165 1    
    87   43  166 1    
    88   43  167 1    
    89   43  168 1    
    90   44   45 am   BACKBONE|DICT|INTERRES
    91   44  169 1    
    92   45   46 2    
    93   45   47 1    
    94   47   48 1    
    95   47   49 1    
    96   47  170 1    
    97   48  171 1    
    98   48  172 1    
    99   48  173 1    
   100   49   50 am   BACKBONE|DICT|INTERRES
   101   49  174 1    
   102   50   51 2    
   103   50   52 1    
   104   52   53 1    
   105   52   54 1    
   106   52  175 1    
   107   53  176 1    
   108   53  177 1    
   109   53  178 1    
   110   54   55 am   BACKBONE|DICT|INTERRES
   111   54  179 1    
   112   55   56 2    
   113   55   57 1    
   114   57   58 1    
   115   57   59 1    
   116   57  180 1    
   117   58  181 1    
   118   58  182 1    
   119   58  183 1    
   120   59   60 am   BACKBONE|DICT|INTERRES
   121   59  184 1    
   122   60   61 2    
   123   60   62 1    
   124   62   63 1    
   125   62   64 1    
   126   62  185 1    
   127   63  186 1    
   128   63  187 1    
   129   63  188 1    
   130   64   65 am   BACKBONE|DICT|INTERRES
   131   64  189 1    
   132   65   66 2    
   133   67   68 2    
   134   67   69 am   BACKBONE|DICT|INTERRES
   135   69   70 1    
   136   69  190 1    
   137   70   71 1    
   138   70   72 1    
   139   70  191 1    
   140   71  192 1    
   141   71  193 1    
   142   71  194 1    
   143   72   73 2    
   144   72   74 am   BACKBONE|DICT|INTERRES
   145   74   75 1    
   146   74  195 1    
   147   75   76 1    
   148   75   77 1    
   149   75  196 1    
   150   76  197 1    
   151   76  198 1    
   152   76  199 1    
   153   77   78 2    
   154   77   79 am   BACKBONE|DICT|INTERRES
   155   79   80 1    
   156   79  200 1    
   157   80   81 1    
   158   80   82 1    
   159   80  201 1    
   160   81  202 1    
   161   81  203 1    
   162   81  204 1    
   163   82   83 2    
   164   82   84 am   BACKBONE|DICT|INTERRES
   165   84   85 1    
   166   84  205 1    
   167   85   86 1    
   168   85   87 1    
   169   85  206 1    
   170   86  207 1    
   171   86  208 1    
   172   86  209 1    
   173   87   88 2    
   174   87   89 am   BACKBONE|DICT|INTERRES
   175   89   90 1    
   176   89  210 1    
   177   90   91 1    
   178   90   92 1    
   179   90  211 1    
   180   91  212 1    
   181   91  213 1    
   182   91  214 1    
   183   92   93 2    
   184   92   94 am   BACKBONE|DICT|INTERRES
   185   94   95 1    
   186   94  215 1    
   187   95   96 1    
   188   95   97 1    
   189   95  216 1    
   190   96  217 1    
   191   96  218 1    
   192   96  219 1    
   193   97   98 2    
   194   97   99 am   BACKBONE|DICT|INTERRES
   195   99  100 1    
   196   99  220 1    
   197  100  101 1    
   198  100  102 1    
   199  100  221 1    
   200  101  222 1    
   201  101  223 1    
   202  101  224 1    
   203  102  103 2    
   204  102  104 am   BACKBONE|DICT|INTERRES
   205  104  105 1    
   206  104  225 1    
   207  105  106 1    
   208  105  107 1    
   209  105  226 1    
   210  106  227 1    
   211  106  228 1    
   212  106  229 1    
   213  107  108 2    
   214  107  109 am   BACKBONE|DICT|INTERRES
   215  109  110 1    
   216  109  230 1    
   217  110  111 1    
   218  110  112 1    
   219  110  231 1    
   220  111  232 1    
   221  111  233 1    
   222  111  234 1    
   223  112  113 2    
   224  112  114 am   BACKBONE|DICT|INTERRES
   225  114  115 1    
   226  114  235 1    
   227  115  116 1    
   228  115  117 1    
   229  115  236 1    
   230  116  237 1    
   231  116  238 1    
   232  116  239 1    
   233  117  118 2    
   234  117  119 am   BACKBONE|DICT|INTERRES
   235  119  120 1    
   236  119  240 1    
   237  120  121 1    
   238  120  124 1    
   239  120  241 1    
   240  121  122 am   BACKBONE|DICT|INTERRES
   241  121  123 2    
   242  122  242 1    
   243  122  243 1    
   244  124  125 1    
   245  124  244 1    
   246  124  245 1    
   247  125  126 1    
   248  126  246 1    
   249  126  247 1    
@<TRIPOS>SUBSTRUCTURE
     1 UNK         1 GROUP             0       ****    0 ROOT    
