@<TRIPOS>MOLECULE
3R540
247   249    1
SMALL
USER_CHARGES


@<TRIPOS>ATOM
      1 CA         -1.3161  -11.6204  -51.6920 C.3       0 UNK        -0.1800 
      2 C           0.1371  -11.7908  -51.2717 C.2       0 UNK         0.5000 
      3 O           0.8366  -10.7998  -51.0594 O.2       0 UNK        -0.5000 
      4 N           0.5912  -13.0432  -51.1612 N.am      1 UNK        -0.5000 
      5 CA          1.9214  -13.4414  -50.7006 C.3       1 UNK         0.1400 
      6 C6          2.1256  -14.9538  -50.9366 C.3       23 UNK        -0.0398 
      7 S7          3.8634  -15.4938  -50.8317 S.3       23 UNK        -0.2404 
      8 C8          3.6753  -17.1151  -50.0116 C.3       23 UNK        -0.0205 
      9 C9          2.6905  -18.0684  -50.6880 C.ar      23 UNK        -0.0193 
     10 C10         2.5478  -18.1206  -52.0806 C.ar      23 UNK        -0.1150 
     11 C11         1.6208  -18.9845  -52.6703 C.ar      23 UNK        -0.0193 
     12 C12         0.8455  -19.8164  -51.8585 C.ar      23 UNK        -0.1150 
     13 C13         0.9807  -19.7819  -50.4698 C.ar      23 UNK        -0.0193 
     14 C14         1.9127  -18.9161  -49.8928 C.ar      23 UNK        -0.1150 
     15 C15         0.1215  -20.6803  -49.5967 C.3       23 UNK        -0.0205 
     16 S16        -1.3046  -19.7693  -48.9225 S.3       23 UNK        -0.2404 
     17 C17        -2.3708  -21.0735  -48.2184 C.3       23 UNK        -0.0398 
     18 CA         -1.6293  -22.2461  -47.5349 C.3       11 UNK         0.1400 
     19 N          -0.8018  -21.8206  -46.4037 N.am      11 UNK        -0.5000 
     20 C           0.1950  -22.5537  -45.8891 C.2       10 UNK         0.5000 
     21 O           0.5155  -23.6624  -46.3151 O.2       10 UNK        -0.5000 
     22 CA          0.9113  -21.9763  -44.6557 C.3       10 UNK         0.1400 
     23 CB          1.8133  -20.7965  -45.0528 C.3       10 UNK        -0.1800 
     24 N          -0.0304  -21.5481  -43.6213 N.am      10 UNK        -0.5000 
     25 C          -0.9089  -22.3578  -43.0071 C.2       9 UNK         0.5000 
     26 O          -0.9632  -23.5726  -43.1966 O.2       9 UNK        -0.5000 
     27 CA         -1.9335  -21.7049  -42.0570 C.3       9 UNK         0.1400 
     28 CB         -1.4285  -21.7652  -40.6079 C.3       9 UNK        -0.1800 
     29 N          -2.2515  -20.3175  -42.3900 N.am      9 UNK        -0.5000 
     30 C          -2.6926  -19.8572  -43.5703 C.2       8 UNK         0.5000 
     31 O          -2.9926  -20.5829  -44.5207 O.2       8 UNK        -0.5000 
     32 CA         -2.7421  -18.3231  -43.7300 C.3       8 UNK         0.1400 
     33 CB         -4.1895  -17.8187  -43.6402 C.3       8 UNK        -0.1800 
     34 N          -1.9160  -17.5956  -42.7542 N.am      8 UNK        -0.5000 
     35 C          -0.5827  -17.6925  -42.6510 C.2       7 UNK         0.5000 
     36 O           0.1034  -18.4128  -43.3787 O.2       7 UNK        -0.5000 
     37 CA          0.0749  -16.8901  -41.5201 C.3       7 UNK         0.1400 
     38 CB          1.2159  -17.6754  -40.8468 C.3       7 UNK        -0.1800 
     39 N           0.5896  -15.6313  -42.0452 N.am      7 UNK        -0.5000 
     40 C           0.6523  -14.4864  -41.3533 C.2       6 UNK         0.5000 
     41 O           0.2433  -14.3638  -40.1977 O.2       6 UNK        -0.5000 
     42 CA          1.2739  -13.2685  -42.0625 C.3       6 UNK         0.1400 
     43 CB          2.8078  -13.3591  -42.0591 C.3       6 UNK        -0.1800 
     44 N           0.7955  -13.1066  -43.4341 N.am      6 UNK        -0.5000 
     45 C          -0.4453  -12.7233  -43.7681 C.2       5 UNK         0.5000 
     46 O          -1.3080  -12.4033  -42.9494 O.2       5 UNK        -0.5000 
     47 CA         -0.7875  -12.7196  -45.2704 C.3       5 UNK         0.1400 
     48 CB         -0.3381  -11.4114  -45.9387 C.3       5 UNK        -0.1800 
     49 N          -0.1898  -13.8549  -45.9705 N.am      5 UNK        -0.5000 
     50 C          -0.5433  -15.1322  -45.7764 C.2       4 UNK         0.5000 
     51 O          -1.4903  -15.4751  -45.0715 O.2       4 UNK        -0.5000 
     52 CA          0.3170  -16.2047  -46.4650 C.3       4 UNK         0.1400 
     53 CB         -0.2088  -16.4824  -47.8760 C.3       4 UNK        -0.1800 
     54 N           1.7288  -15.8250  -46.5355 N.am      4 UNK        -0.5000 
     55 C           2.5595  -15.8253  -45.4838 C.2       3 UNK         0.5000 
     56 O           2.2269  -16.1712  -44.3521 O.2       3 UNK        -0.5000 
     57 CA          3.9883  -15.3026  -45.7206 C.3       3 UNK         0.1400 
     58 CB          4.9268  -16.4328  -46.1680 C.3       3 UNK        -0.1800 
     59 N           4.0325  -14.2026  -46.6864 N.am      3 UNK        -0.5000 
     60 C           3.5476  -12.9793  -46.4310 C.2       2 UNK         0.5000 
     61 O           3.0248  -12.6642  -45.3622 O.2       2 UNK        -0.5000 
     62 CA          3.6191  -11.9479  -47.5711 C.3       2 UNK         0.1400 
     63 CB          5.0073  -11.2925  -47.6200 C.3       2 UNK        -0.1800 
     64 N           3.2905  -12.4904  -48.8926 N.am      2 UNK        -0.5000 
     65 C           2.1224  -13.0603  -49.2189 C.2       1 UNK         0.5000 
     66 O           1.2288  -13.2989  -48.4042 O.2       1 UNK        -0.5000 
     67 C          -2.6226  -23.3486  -47.1366 C.2       11 UNK         0.5000 
     68 O          -2.9259  -24.1994  -47.9737 O.2       11 UNK        -0.5000 
     69 N          -3.0987  -23.3433  -45.8829 N.am      12 UNK        -0.5000 
     70 CA         -3.9461  -24.4041  -45.3309 C.3       12 UNK         0.1400 
     71 CB         -4.4485  -24.0115  -43.9354 C.3       12 UNK        -0.1800 
     72 C          -3.2247  -25.7646  -45.2945 C.2       12 UNK         0.5000 
     73 O          -3.8298  -26.7809  -45.6323 O.2       12 UNK        -0.5000 
     74 N          -1.9368  -25.7518  -44.9283 N.am      13 UNK        -0.5000 
     75 CA         -1.0655  -26.9224  -44.9514 C.3       13 UNK         0.1400 
     76 CB          0.1768  -26.6490  -44.0889 C.3       13 UNK        -0.1800 
     77 C          -0.6616  -27.3256  -46.3814 C.2       13 UNK         0.5000 
     78 O          -0.7607  -28.5030  -46.7285 O.2       13 UNK        -0.5000 
     79 N          -0.1908  -26.3532  -47.1749 N.am      14 UNK        -0.5000 
     80 CA          0.4191  -26.5967  -48.4829 C.3       14 UNK         0.1400 
     81 CB          1.2801  -25.3859  -48.8762 C.3       14 UNK        -0.1800 
     82 C          -0.5805  -26.9119  -49.6085 C.2       14 UNK         0.5000 
     83 O          -0.2504  -27.7081  -50.4889 O.2       14 UNK        -0.5000 
     84 N          -1.7493  -26.2588  -49.5977 N.am      15 UNK        -0.5000 
     85 CA         -2.6694  -26.2211  -50.7375 C.3       15 UNK         0.1400 
     86 CB         -2.4089  -24.9230  -51.5274 C.3       15 UNK        -0.1800 
     87 C          -4.1472  -26.3362  -50.3285 C.2       15 UNK         0.5000 
     88 O          -5.0146  -26.0463  -51.1524 O.2       15 UNK        -0.5000 
     89 N          -4.4302  -26.7029  -49.0682 N.am      16 UNK        -0.5000 
     90 CA         -5.7733  -26.7733  -48.4673 C.3       16 UNK         0.1400 
     91 CB         -6.5853  -27.9291  -49.0889 C.3       16 UNK        -0.1800 
     92 C          -6.5311  -25.4243  -48.5077 C.2       16 UNK         0.5000 
     93 O          -7.7605  -25.4069  -48.5743 O.2       16 UNK        -0.5000 
     94 N          -5.7655  -24.3216  -48.5026 N.am      17 UNK        -0.5000 
     95 CA         -6.1705  -22.9195  -48.6474 C.3       17 UNK         0.1400 
     96 CB         -7.1277  -22.4904  -47.5178 C.3       17 UNK        -0.1800 
     97 C          -6.7030  -22.5435  -50.0483 C.2       17 UNK         0.5000 
     98 O          -7.0988  -21.3936  -50.2462 O.2       17 UNK        -0.5000 
     99 N          -6.6583  -23.4726  -51.0169 N.am      18 UNK        -0.5000 
    100 CA        -7.1489  -23.2781  -52.3865 C.3       18 UNK         0.1400 
    101 CB        -7.2618  -24.6413  -53.0854 C.3       18 UNK        -0.1800 
    102 C         -6.2864  -22.3118  -53.2220 C.2       18 UNK         0.5000 
    103 O         -6.7622  -21.7997  -54.2358 O.2       18 UNK        -0.5000 
    104 N         -5.0471  -22.0624  -52.7747 N.am      19 UNK        -0.5000 
    105 CA        -4.1247  -21.0828  -53.3508 C.3       19 UNK         0.1400 
    106 CB        -2.7344  -21.2790  -52.7273 C.3       19 UNK        -0.1800 
    107 C         -4.5838  -19.6218  -53.1696 C.2       19 UNK         0.5000 
    108 O         -4.1378  -18.7594  -53.9267 O.2       19 UNK        -0.5000 
    109 N         -5.4419  -19.3646  -52.1663 N.am      20 UNK        -0.5000 
    110 CA        -6.0386  -18.0655  -51.8244 C.3       20 UNK         0.1400 
    111 CB        -7.0906  -17.6724  -52.8816 C.3       20 UNK        -0.1800 
    112 C         -4.9890  -16.9575  -51.5819 C.2       20 UNK         0.5000 
    113 O         -5.1757  -15.8171  -52.0108 O.2       20 UNK        -0.5000 
    114 N         -3.8758  -17.3427  -50.9384 N.am      21 UNK        -0.5000 
    115 CA        -2.6769  -16.5419  -50.6591 C.3       21 UNK         0.1400 
    116 CB        -3.0156  -15.3440  -49.7433 C.3       21 UNK        -0.1800 
    117 C         -1.8850  -16.1036  -51.9101 C.2       21 UNK         0.5000 
    118 O         -0.9664  -15.2963  -51.7733 O.2       21 UNK        -0.5000 
    119 N         -2.2379  -16.6199  -53.0967 N.am      22 UNK        -0.5000 
    120 CA        -1.6631  -16.2576  -54.4043 C.3       22 UNK         0.1400 
    121 C         -1.8293  -14.7531  -54.7899 C.2       22 UNK         0.5000 
    122 N         -2.8229  -14.0496  -54.2579 N.am      22 UNK        -0.7600 
    123 O         -1.0791  -14.2202  -55.6033 O.2       22 UNK        -0.5000 
    124 C124       -0.2174  -16.8002  -54.5948 C.3       23 UNK        -0.0398 
    125 S125       -0.2097  -18.6198  -54.7368 S.3       23 UNK        -0.2404 
    126 C126        1.4730  -19.0426  -54.1838 C.3       23 UNK        -0.0205 
    127 H127       -1.8242  -12.5807  -51.7862 H         1 UNK         0.0600 
    128 H128       -1.3721  -11.1103  -52.6534 H         1 UNK         0.0600 
    129 H129       -1.8533  -11.0245  -50.9544 H         1 UNK         0.0600 
    130 H130       -0.0434  -13.8173  -51.3559 H         1 UNK         0.3000 
    131 H131        2.6462  -12.8941  -51.3070 H         1 UNK         0.0600 
    132 H132        1.5045  -15.5364  -50.2546 H         1 UNK         0.0800 
    133 H133        1.7837  -15.2162  -51.9389 H         1 UNK         0.0800 
    134 H134        4.6509  -17.5987  -49.9521 H         1 UNK         0.0800 
    135 H135        3.3524  -16.9303  -48.9876 H         1 UNK         0.0800 
    136 H136        3.1548  -17.4839  -52.7082 H         1 UNK         0.1150 
    137 H137        0.1345  -20.4908  -52.3123 H         1 UNK         0.1150 
    138 H138        2.0202  -18.8955  -48.8172 H         1 UNK         0.1150 
    139 H139       -0.2314  -21.5338  -50.1777 H         1 UNK         0.0800 
    140 H140        0.7265  -21.0788  -48.7810 H         1 UNK         0.0800 
    141 H141       -3.0574  -20.5983  -47.5149 H         1 UNK         0.0800 
    142 H142       -2.9874  -21.4465  -49.0379 H         1 UNK         0.0800 
    143 H143       -0.9747  -22.7116  -48.2725 H         1 UNK         0.0600 
    144 H144       -1.0484  -20.9446  -45.9651 H         1 UNK         0.3000 
    145 H145        1.5394  -22.7634  -44.2333 H         1 UNK         0.0600 
    146 H146        2.3708  -20.4207  -44.1946 H         1 UNK         0.0600 
    147 H147        2.5407  -21.0971  -45.8080 H         1 UNK         0.0600 
    148 H148        1.2383  -19.9651  -45.4633 H         1 UNK         0.0600 
    149 H149       -0.0541  -20.5547  -43.4193 H         1 UNK         0.3000 
    150 H150       -2.8617  -22.2720  -42.1180 H         1 UNK         0.0600 
    151 H151       -1.2070  -22.7923  -40.3141 H         1 UNK         0.0600 
    152 H152       -2.1764  -21.3846  -39.9120 H         1 UNK         0.0600 
    153 H153       -0.5165  -21.1816  -40.4751 H         1 UNK         0.0600 
    154 H154       -2.0423  -19.6328  -41.6795 H         1 UNK         0.3000 
    155 H155       -2.3602  -18.0934  -44.7268 H         1 UNK         0.0600 
    156 H156       -4.2455  -16.7494  -43.8458 H         1 UNK         0.0600 
    157 H157       -4.6177  -17.9963  -42.6529 H         1 UNK         0.0600 
    158 H158       -4.8251  -18.3218  -44.3703 H         1 UNK         0.0600 
    159 H159       -2.4075  -16.9646  -42.1379 H         1 UNK         0.3000 
    160 H160       -0.6898  -16.6923  -40.7657 H         1 UNK         0.0600 
    161 H161        2.0412  -17.8548  -41.5375 H         1 UNK         0.0600 
    162 H162        0.8669  -18.6453  -40.4904 H         1 UNK         0.0600 
    163 H163        1.6124  -17.1356  -39.9867 H         1 UNK         0.0600 
    164 H164        0.9883  -15.6801  -42.9804 H         1 UNK         0.3000 
    165 H165        0.9914  -12.3763  -41.4997 H         1 UNK         0.0600 
    166 H166        3.1632  -14.2209  -42.6240 H         1 UNK         0.0600 
    167 H167        3.2561  -12.4661  -42.4951 H         1 UNK         0.0600 
    168 H168        3.1909  -13.4526  -41.0422 H         1 UNK         0.0600 
    169 H169        1.4668  -13.2793  -44.1744 H         1 UNK         0.3000 
    170 H170       -1.8726  -12.7951  -45.3677 H         1 UNK         0.0600 
    171 H171       -0.8079  -10.5497  -45.4632 H         1 UNK         0.0600 
    172 H172        0.7412  -11.2742  -45.8735 H         1 UNK         0.0600 
    173 H173       -0.6132  -11.3930  -46.9936 H         1 UNK         0.0600 
    174 H174        0.5356  -13.6464  -46.6508 H         1 UNK         0.3000 
    175 H175        0.2340  -17.1263  -45.8845 H         1 UNK         0.0600 
    176 H176       -1.2501  -16.8031  -47.8385 H         1 UNK         0.0600 
    177 H177       -0.1545  -15.5981  -48.5096 H         1 UNK         0.0600 
    178 H178        0.3569  -17.2747  -48.3592 H         1 UNK         0.0600 
    179 H179        2.0544  -15.4455  -47.4114 H         1 UNK         0.3000 
    180 H180        4.3596  -14.9263  -44.7648 H         1 UNK         0.0600 
    181 H181        4.6339  -16.8535  -47.1279 H         1 UNK         0.0600 
    182 H182        4.9268  -17.2469  -45.4418 H         1 UNK         0.0600 
    183 H183        5.9540  -16.0788  -46.2569 H         1 UNK         0.0600 
    184 H184        4.4452  -14.3878  -47.5889 H         1 UNK         0.3000 
    185 H185        2.8861  -11.1695  -47.3493 H         1 UNK         0.0600 
    186 H186        5.0360  -10.4827  -48.3493 H         1 UNK         0.0600 
    187 H187        5.2718  -10.8648  -46.6519 H         1 UNK         0.0600 
    188 H188        5.7839  -12.0112  -47.8847 H         1 UNK         0.0600 
    189 H189        3.9803  -12.3479  -49.6163 H         1 UNK         0.3000 
    190 H190       -2.8517  -22.5761  -45.2683 H         1 UNK         0.3000 
    191 H191       -4.8182  -24.5029  -45.9773 H         1 UNK         0.0600 
    192 H192       -5.2467  -24.6813  -43.6135 H         1 UNK         0.0600 
    193 H193       -4.8479  -22.9971  -43.9226 H         1 UNK         0.0600 
    194 H194       -3.6567  -24.0785  -43.1911 H         1 UNK         0.0600 
    195 H195       -1.5251  -24.8827  -44.6030 H         1 UNK         0.3000 
    196 H196       -1.6035  -27.7621  -44.5059 H         1 UNK         0.0600 
    197 H197        0.8473  -27.5092  -44.0836 H         1 UNK         0.0600 
    198 H198       -0.1011  -26.4458  -43.0545 H         1 UNK         0.0600 
    199 H199        0.7428  -25.7913  -44.4544 H         1 UNK         0.0600 
    200 H200       -0.1016  -25.4106  -46.8043 H         1 UNK         0.3000 
    201 H201        1.0857  -27.4570  -48.3893 H         1 UNK         0.0600 
    202 H202        2.0523  -25.1921  -48.1315 H         1 UNK         0.0600 
    203 H203        0.6796  -24.4815  -48.9800 H         1 UNK         0.0600 
    204 H204        1.7838  -25.5556  -49.8286 H         1 UNK         0.0600 
    205 H205       -1.9584  -25.6129  -48.8416 H         1 UNK         0.3000 
    206 H206       -2.4865  -27.0679  -51.4017 H         1 UNK         0.0600 
    207 H207       -1.3730  -24.8656  -51.8619 H         1 UNK         0.0600 
    208 H208       -3.0359  -24.8640  -52.4180 H         1 UNK         0.0600 
    209 H209       -2.6124  -24.0401  -50.9202 H         1 UNK         0.0600 
    210 H210       -3.6597  -26.9092  -48.4478 H         1 UNK         0.3000 
    211 H211       -5.6360  -27.0084  -47.4132 H         1 UNK         0.0600 
    212 H212       -6.8382  -27.7342  -50.1315 H         1 UNK         0.0600 
    213 H213       -7.5209  -28.0841  -48.5503 H         1 UNK         0.0600 
    214 H214       -6.0308  -28.8665  -49.0476 H         1 UNK         0.0600 
    215 H215       -4.7606  -24.4650  -48.4447 H         1 UNK         0.3000 
    216 H216       -5.2555  -22.3405  -48.5232 H         1 UNK         0.0600 
    217 H217       -6.7164  -22.7348  -46.5383 H         1 UNK         0.0600 
    218 H218       -7.2960  -21.4131  -47.5366 H         1 UNK         0.0600 
    219 H219       -8.1022  -22.9711  -47.6042 H         1 UNK         0.0600 
    220 H220       -6.2754  -24.3880  -50.8068 H         1 UNK         0.3000 
    221 H221       -8.1505  -22.8477  -52.3231 H         1 UNK         0.0600 
    222 H222       -6.2823  -25.0894  -53.2544 H         1 UNK         0.0600 
    223 H223       -7.8558  -25.3415  -52.4976 H         1 UNK         0.0600 
    224 H224       -7.7448  -24.5407  -54.0581 H         1 UNK         0.0600 
    225 H225       -4.7378  -22.5524  -51.9495 H         1 UNK         0.3000 
    226 H226       -4.0511  -21.2727  -54.4235 H         1 UNK         0.0600 
    227 H227       -2.3445  -22.2757  -52.9329 H         1 UNK         0.0600 
    228 H228       -2.0246  -20.5639  -53.1435 H         1 UNK         0.0600 
    229 H229       -2.7482  -21.1356  -51.6463 H         1 UNK         0.0600 
    230 H230       -5.7633  -20.1445  -51.6062 H         1 UNK         0.3000 
    231 H231       -6.5591  -18.2055  -50.8759 H         1 UNK         0.0600 
    232 H232       -7.6305  -16.7731  -52.5831 H         1 UNK         0.0600 
    233 H233       -7.8285  -18.4637  -53.0148 H         1 UNK         0.0600 
    234 H234       -6.6334  -17.4744  -53.8517 H         1 UNK         0.0600 
    235 H235       -3.8180  -18.3108  -50.6563 H         1 UNK         0.3000 
    236 H236       -2.0007  -17.1954  -50.1104 H         1 UNK         0.0600 
    237 H237       -3.6749  -14.6280  -50.2333 H         1 UNK         0.0600 
    238 H238       -3.5015  -15.6755  -48.8258 H         1 UNK         0.0600 
    239 H239       -2.1193  -14.7961  -49.4532 H         1 UNK         0.0600 
    240 H240       -2.9982  -17.2898  -53.1379 H         1 UNK         0.3000 
    241 H241       -2.2902  -16.7677  -55.1364 H         1 UNK         0.0600 
    242 H242       -3.4614  -14.4793  -53.6048 H         1 UNK         0.3800 
    243 H243       -2.9433  -13.0844  -54.5196 H         1 UNK         0.3800 
    244 H244        0.2356  -16.4131  -55.5085 H         1 UNK         0.0800 
    245 H245        0.4275  -16.4831  -53.7746 H         1 UNK         0.0800 
    246 H246        2.1913  -18.3860  -54.6773 H         1 UNK         0.0800 
    247 H247        1.7049  -20.0552  -54.5162 H         1 UNK         0.0800 
@<TRIPOS>BOND
     1    1    2 1    
     2    1  127 1    
     3    1  128 1    
     4    1  129 1    
     5    2    3 2    
     6    2    4 am   BACKBONE|DICT|INTERRES
     7    4    5 1    
     8    4  130 1    
     9    5    6 1    
    10    5   65 1    
    11    5  131 1    
    12    6    7 1    
    13    6  132 1    
    14    6  133 1    
    15    7    8 1    
    16    8    9 1    
    17    8  134 1    
    18    8  135 1    
    19    9   10 ar   
    20    9   14 ar   
    21   10   11 ar   
    22   10  136 1    
    23   11   12 ar   
    24   11  126 1    
    25   12   13 ar   
    26   12  137 1    
    27   13   14 ar   
    28   13   15 1    
    29   14  138 1    
    30   15   16 1    
    31   15  139 1    
    32   15  140 1    
    33   16   17 1    
    34   17   18 1    
    35   17  141 1    
    36   17  142 1    
    37   18   19 1    
    38   18   67 1    
    39   18  143 1    
    40   19   20 am   BACKBONE|DICT|INTERRES
    41   19  144 1    
    42   20   21 2    
    43   20   22 1    
    44   22   23 1    
    45   22   24 1    
    46   22  145 1    
    47   23  146 1    
    48   23  147 1    
    49   23  148 1    
    50   24   25 am   BACKBONE|DICT|INTERRES
    51   24  149 1    
    52   25   26 2    
    53   25   27 1    
    54   27   28 1    
    55   27   29 1    
    56   27  150 1    
    57   28  151 1    
    58   28  152 1    
    59   28  153 1    
    60   29   30 am   BACKBONE|DICT|INTERRES
    61   29  154 1    
    62   30   31 2    
    63   30   32 1    
    64   32   33 1    
    65   32   34 1    
    66   32  155 1    
    67   33  156 1    
    68   33  157 1    
    69   33  158 1    
    70   34   35 am   BACKBONE|DICT|INTERRES
    71   34  159 1    
    72   35   36 2    
    73   35   37 1    
    74   37   38 1    
    75   37   39 1    
    76   37  160 1    
    77   38  161 1    
    78   38  162 1    
    79   38  163 1    
    80   39   40 am   BACKBONE|DICT|INTERRES
    81   39  164 1    
    82   40   41 2    
    83   40   42 1    
    84   42   43 1    
    85   42   44 1    
    86   42  165 1    
    87   43  166 1    
    88   43  167 1    
    89   43  168 1    
    90   44   45 am   BACKBONE|DICT|INTERRES
    91   44  169 1    
    92   45   46 2    
    93   45   47 1    
    94   47   48 1    
    95   47   49 1    
    96   47  170 1    
    97   48  171 1    
    98   48  172 1    
    99   48  173 1    
   100   49   50 am   BACKBONE|DICT|INTERRES
   101   49  174 1    
   102   50   51 2    
   103   50   52 1    
   104   52   53 1    
   105   52   54 1    
   106   52  175 1    
   107   53  176 1    
   108   53  177 1    
   109   53  178 1    
   110   54   55 am   BACKBONE|DICT|INTERRES
   111   54  179 1    
   112   55   56 2    
   113   55   57 1    
   114   57   58 1    
   115   57   59 1    
   116   57  180 1    
   117   58  181 1    
   118   58  182 1    
   119   58  183 1    
   120   59   60 am   BACKBONE|DICT|INTERRES
   121   59  184 1    
   122   60   61 2    
   123   60   62 1    
   124   62   63 1    
   125   62   64 1    
   126   62  185 1    
   127   63  186 1    
   128   63  187 1    
   129   63  188 1    
   130   64   65 am   BACKBONE|DICT|INTERRES
   131   64  189 1    
   132   65   66 2    
   133   67   68 2    
   134   67   69 am   BACKBONE|DICT|INTERRES
   135   69   70 1    
   136   69  190 1    
   137   70   71 1    
   138   70   72 1    
   139   70  191 1    
   140   71  192 1    
   141   71  193 1    
   142   71  194 1    
   143   72   73 2    
   144   72   74 am   BACKBONE|DICT|INTERRES
   145   74   75 1    
   146   74  195 1    
   147   75   76 1    
   148   75   77 1    
   149   75  196 1    
   150   76  197 1    
   151   76  198 1    
   152   76  199 1    
   153   77   78 2    
   154   77   79 am   BACKBONE|DICT|INTERRES
   155   79   80 1    
   156   79  200 1    
   157   80   81 1    
   158   80   82 1    
   159   80  201 1    
   160   81  202 1    
   161   81  203 1    
   162   81  204 1    
   163   82   83 2    
   164   82   84 am   BACKBONE|DICT|INTERRES
   165   84   85 1    
   166   84  205 1    
   167   85   86 1    
   168   85   87 1    
   169   85  206 1    
   170   86  207 1    
   171   86  208 1    
   172   86  209 1    
   173   87   88 2    
   174   87   89 am   BACKBONE|DICT|INTERRES
   175   89   90 1    
   176   89  210 1    
   177   90   91 1    
   178   90   92 1    
   179   90  211 1    
   180   91  212 1    
   181   91  213 1    
   182   91  214 1    
   183   92   93 2    
   184   92   94 am   BACKBONE|DICT|INTERRES
   185   94   95 1    
   186   94  215 1    
   187   95   96 1    
   188   95   97 1    
   189   95  216 1    
   190   96  217 1    
   191   96  218 1    
   192   96  219 1    
   193   97   98 2    
   194   97   99 am   BACKBONE|DICT|INTERRES
   195   99  100 1    
   196   99  220 1    
   197  100  101 1    
   198  100  102 1    
   199  100  221 1    
   200  101  222 1    
   201  101  223 1    
   202  101  224 1    
   203  102  103 2    
   204  102  104 am   BACKBONE|DICT|INTERRES
   205  104  105 1    
   206  104  225 1    
   207  105  106 1    
   208  105  107 1    
   209  105  226 1    
   210  106  227 1    
   211  106  228 1    
   212  106  229 1    
   213  107  108 2    
   214  107  109 am   BACKBONE|DICT|INTERRES
   215  109  110 1    
   216  109  230 1    
   217  110  111 1    
   218  110  112 1    
   219  110  231 1    
   220  111  232 1    
   221  111  233 1    
   222  111  234 1    
   223  112  113 2    
   224  112  114 am   BACKBONE|DICT|INTERRES
   225  114  115 1    
   226  114  235 1    
   227  115  116 1    
   228  115  117 1    
   229  115  236 1    
   230  116  237 1    
   231  116  238 1    
   232  116  239 1    
   233  117  118 2    
   234  117  119 am   BACKBONE|DICT|INTERRES
   235  119  120 1    
   236  119  240 1    
   237  120  121 1    
   238  120  124 1    
   239  120  241 1    
   240  121  122 am   BACKBONE|DICT|INTERRES
   241  121  123 2    
   242  122  242 1    
   243  122  243 1    
   244  124  125 1    
   245  124  244 1    
   246  124  245 1    
   247  125  126 1    
   248  126  246 1    
   249  126  247 1    
@<TRIPOS>SUBSTRUCTURE
     1 UNK         1 GROUP             0       ****    0 ROOT    
