@<TRIPOS>MOLECULE
3R540
247   249    1
SMALL
USER_CHARGES


@<TRIPOS>ATOM
      1 CA          4.9320  -10.5636  -47.6572 C.3       0 UNK        -0.1800 
      2 C           3.9005  -11.2773  -46.7968 C.2       0 UNK         0.5000 
      3 O           4.0754  -11.3642  -45.5813 O.2       0 UNK        -0.5000 
      4 N           2.8189  -11.7694  -47.4170 N.am      1 UNK        -0.5000 
      5 CA          1.7340  -12.5394  -46.7883 C.3       1 UNK         0.1400 
      6 C6          0.6835  -13.0054  -47.8287 C.3       23 UNK        -0.0398 
      7 S7          1.3664  -14.1402  -49.0871 S.3       23 UNK        -0.2404 
      8 C8          0.1501  -15.4932  -49.0145 C.3       23 UNK        -0.0205 
      9 C9          0.4727  -16.6148  -49.9876 C.ar      23 UNK        -0.0193 
     10 C10        -0.2678  -16.7641  -51.1637 C.ar      23 UNK        -0.1150 
     11 C11         0.0039  -17.8146  -52.0455 C.ar      23 UNK        -0.0193 
     12 C12         1.0302  -18.7149  -51.7463 C.ar      23 UNK        -0.1150 
     13 C13         1.7710  -18.5813  -50.5683 C.ar      23 UNK        -0.0193 
     14 C14         1.4897  -17.5275  -49.6938 C.ar      23 UNK        -0.1150 
     15 C15         2.8740  -19.5769  -50.2441 C.3       23 UNK        -0.0205 
     16 S16         2.2047  -21.1826  -49.7092 S.3       23 UNK        -0.2404 
     17 C17         1.5350  -20.7659  -48.0643 C.3       23 UNK        -0.0398 
     18 CA          0.6653  -21.9027  -47.4778 C.3       11 UNK         0.1400 
     19 N           0.5762  -21.8309  -46.0187 N.am      11 UNK        -0.5000 
     20 C           0.0814  -22.7993  -45.2360 C.2       10 UNK         0.5000 
     21 O          -0.3386  -23.8751  -45.6627 O.2       10 UNK        -0.5000 
     22 CA          0.0067  -22.5011  -43.7272 C.3       10 UNK         0.1400 
     23 CB          1.3831  -22.6643  -43.0654 C.3       10 UNK        -0.1800 
     24 N          -0.5228  -21.1672  -43.4404 N.am      10 UNK        -0.5000 
     25 C          -1.7644  -20.7659  -43.7499 C.2       9 UNK         0.5000 
     26 O          -2.6050  -21.4884  -44.2852 O.2       9 UNK        -0.5000 
     27 CA         -2.1123  -19.2962  -43.4565 C.3       9 UNK         0.1400 
     28 CB         -2.4163  -19.0921  -41.9649 C.3       9 UNK        -0.1800 
     29 N          -1.0586  -18.3727  -43.8757 N.am      9 UNK        -0.5000 
     30 C          -0.6371  -18.2240  -45.1398 C.2       8 UNK         0.5000 
     31 O          -1.1083  -18.8298  -46.1006 O.2       8 UNK        -0.5000 
     32 CA          0.5491  -17.2755  -45.3634 C.3       8 UNK         0.1400 
     33 CB          0.0966  -15.8137  -45.2520 C.3       8 UNK        -0.1800 
     34 N           1.6468  -17.5215  -44.4316 N.am      8 UNK        -0.5000 
     35 C           2.3080  -18.6803  -44.3055 C.2       7 UNK         0.5000 
     36 O           2.1027  -19.6682  -45.0078 O.2       7 UNK        -0.5000 
     37 CA          3.3350  -18.7668  -43.1665 C.3       7 UNK         0.1400 
     38 CB          4.6743  -18.1479  -43.5905 C.3       7 UNK        -0.1800 
     39 N           2.8472  -18.1158  -41.9511 N.am      7 UNK        -0.5000 
     40 C           1.8394  -18.5819  -41.1998 C.2       6 UNK         0.5000 
     41 O           1.2388  -19.6320  -41.4326 O.2       6 UNK        -0.5000 
     42 CA          1.4079  -17.7010  -40.0134 C.3       6 UNK         0.1400 
     43 CB          2.3474  -17.9016  -38.8149 C.3       6 UNK        -0.1800 
     44 N           1.3589  -16.2795  -40.3631 N.am      6 UNK        -0.5000 
     45 C           0.4652  -15.7464  -41.2076 C.2       5 UNK         0.5000 
     46 O          -0.4239  -16.3975  -41.7564 O.2       5 UNK        -0.5000 
     47 CA          0.6058  -14.2434  -41.5168 C.3       5 UNK         0.1400 
     48 CB         -0.1395  -13.4021  -40.4707 C.3       5 UNK        -0.1800 
     49 N           1.9894  -13.7714  -41.6151 N.am      5 UNK        -0.5000 
     50 C           2.9067  -14.2217  -42.4811 C.2       4 UNK         0.5000 
     51 O           2.7222  -15.1831  -43.2279 O.2       4 UNK        -0.5000 
     52 CA          4.2410  -13.4522  -42.5226 C.3       4 UNK         0.1400 
     53 CB          5.2200  -14.0117  -43.5699 C.3       4 UNK        -0.1800 
     54 N           4.0162  -12.0377  -42.8114 N.am      4 UNK        -0.5000 
     55 C           3.7299  -11.0944  -41.9061 C.2       3 UNK         0.5000 
     56 O           3.5916  -11.3235  -40.7038 O.2       3 UNK        -0.5000 
     57 CA          3.5286   -9.6707  -42.4440 C.3       3 UNK         0.1400 
     58 CB          4.8603   -9.0650  -42.9169 C.3       3 UNK        -0.1800 
     59 N           2.5750   -9.6734  -43.5508 N.am      3 UNK        -0.5000 
     60 C           1.2535   -9.5009  -43.4129 C.2       2 UNK         0.5000 
     61 O           0.7011   -9.2772  -42.3352 O.2       2 UNK        -0.5000 
     62 CA          0.3989   -9.5828  -44.6932 C.3       2 UNK         0.1400 
     63 CB          0.1885   -8.1821  -45.2884 C.3       2 UNK        -0.1800 
     64 N           0.9773  -10.4527  -45.7181 N.am      2 UNK        -0.5000 
     65 C           1.0254  -11.7898  -45.6371 C.2       1 UNK         0.5000 
     66 O           0.5441  -12.4306  -44.7034 O.2       1 UNK        -0.5000 
     67 C          -0.7290  -21.9661  -48.1346 C.2       11 UNK         0.5000 
     68 O          -0.9386  -22.7965  -49.0171 O.2       11 UNK        -0.5000 
     69 N          -1.6731  -21.1395  -47.6602 N.am      12 UNK        -0.5000 
     70 CA         -3.0670  -21.1443  -48.1044 C.3       12 UNK         0.1400 
     71 CB         -3.8242  -19.9607  -47.4856 C.3       12 UNK        -0.1800 
     72 C          -3.7802  -22.4708  -47.7945 C.2       12 UNK         0.5000 
     73 O          -4.4837  -22.9881  -48.6609 O.2       12 UNK        -0.5000 
     74 N          -3.5609  -23.0183  -46.5899 N.am      13 UNK        -0.5000 
     75 CA         -4.0670  -24.3265  -46.1716 C.3       13 UNK         0.1400 
     76 CB         -3.7586  -24.5584  -44.6851 C.3       13 UNK        -0.1800 
     77 C          -3.5188  -25.4756  -47.0366 C.2       13 UNK         0.5000 
     78 O          -4.2966  -26.3289  -47.4660 O.2       13 UNK        -0.5000 
     79 N          -2.2066  -25.4476  -47.3155 N.am      14 UNK        -0.5000 
     80 CA         -1.5248  -26.3807  -48.2158 C.3       14 UNK         0.1400 
     81 CB         -0.0074  -26.1519  -48.1489 C.3       14 UNK        -0.1800 
     82 C          -2.0343  -26.2868  -49.6668 C.2       14 UNK         0.5000 
     83 O          -2.2311  -27.3182  -50.3098 O.2       14 UNK        -0.5000 
     84 N          -2.3106  -25.0625  -50.1339 N.am      15 UNK        -0.5000 
     85 CA         -2.9305  -24.7435  -51.4220 C.3       15 UNK         0.1400 
     86 CB         -2.5529  -23.3020  -51.8123 C.3       15 UNK        -0.1800 
     87 C          -4.4603  -24.9735  -51.4323 C.2       15 UNK         0.5000 
     88 O          -5.1940  -24.1606  -51.9898 O.2       15 UNK        -0.5000 
     89 N          -4.9139  -26.0824  -50.8295 N.am      16 UNK        -0.5000 
     90 CA         -6.2916  -26.5865  -50.7952 C.3       16 UNK         0.1400 
     91 CB         -6.7067  -27.0810  -52.1970 C.3       16 UNK        -0.1800 
     92 C          -7.3168  -25.6071  -50.1793 C.2       16 UNK         0.5000 
     93 O          -8.4597  -25.5532  -50.6373 O.2       16 UNK        -0.5000 
     94 N          -6.8923  -24.8749  -49.1384 N.am      17 UNK        -0.5000 
     95 CA         -7.6387  -23.8258  -48.4325 C.3       17 UNK         0.1400 
     96 CB         -8.8879  -24.3957  -47.7269 C.3       17 UNK        -0.1800 
     97 C          -7.9365  -22.6193  -49.3481 C.2       17 UNK         0.5000 
     98 O          -9.0936  -22.2256  -49.5106 O.2       17 UNK        -0.5000 
     99 N          -6.8524  -22.0641  -49.9056 N.am      18 UNK        -0.5000 
    100 CA        -6.7552  -20.9576  -50.8618 C.3       18 UNK         0.1400 
    101 CB        -7.4519  -19.6869  -50.3331 C.3       18 UNK        -0.1800 
    102 C         -7.2196  -21.3248  -52.2864 C.2       18 UNK         0.5000 
    103 O         -7.9148  -22.3216  -52.4938 O.2       18 UNK        -0.5000 
    104 N         -6.7989  -20.4907  -53.2497 N.am      19 UNK        -0.5000 
    105 CA        -6.8540  -20.7187  -54.6985 C.3       19 UNK         0.1400 
    106 CB        -8.3092  -20.8226  -55.2103 C.3       19 UNK        -0.1800 
    107 C         -5.9413  -21.9004  -55.0943 C.2       19 UNK         0.5000 
    108 O         -4.8511  -22.0147  -54.5297 O.2       19 UNK        -0.5000 
    109 N         -6.3755  -22.7310  -56.0547 N.am      20 UNK        -0.5000 
    110 CA        -5.6967  -23.9220  -56.5797 C.3       20 UNK         0.1400 
    111 CB        -5.7115  -25.0585  -55.5345 C.3       20 UNK        -0.1800 
    112 C         -4.2859  -23.6098  -57.1211 C.2       20 UNK         0.5000 
    113 O         -4.1573  -23.2220  -58.2831 O.2       20 UNK        -0.5000 
    114 N         -3.2627  -23.7724  -56.2713 N.am      21 UNK        -0.5000 
    115 CA        -1.8726  -23.4116  -56.5488 C.3       21 UNK         0.1400 
    116 CB        -0.9679  -24.0367  -55.4758 C.3       21 UNK        -0.1800 
    117 C         -1.6514  -21.8874  -56.6242 C.2       21 UNK         0.5000 
    118 O         -0.7723  -21.4446  -57.3650 O.2       21 UNK        -0.5000 
    119 N         -2.4492  -21.1154  -55.8750 N.am      22 UNK        -0.5000 
    120 CA        -2.4933  -19.6508  -55.9499 C.3       22 UNK         0.1400 
    121 C         -3.3382  -19.2002  -57.1708 C.2       22 UNK         0.5000 
    122 N         -2.7797  -18.3963  -58.0650 N.am      22 UNK        -0.7600 
    123 O         -4.5126  -19.5420  -57.2898 O.2       22 UNK        -0.5000 
    124 C124       -3.0458  -19.0153  -54.6493 C.3       23 UNK        -0.0398 
    125 S125       -2.0081  -19.3374  -53.1845 S.3       23 UNK        -0.2404 
    126 C126       -0.8083  -17.9742  -53.3209 C.3       23 UNK        -0.0205 
    127 H127        5.0490   -9.5328  -47.3232 H         1 UNK         0.0600 
    128 H128        4.6450  -10.5515  -48.7089 H         1 UNK         0.0600 
    129 H129        5.8975  -11.0621  -47.5730 H         1 UNK         0.0600 
    130 H130        2.7445  -11.6687  -48.4195 H         1 UNK         0.3000 
    131 H131        2.1984  -13.4225  -46.3456 H         1 UNK         0.0600 
    132 H132       -0.1502  -13.5008  -47.3275 H         1 UNK         0.0800 
    133 H133        0.2507  -12.1465  -48.3447 H         1 UNK         0.0800 
    134 H134        0.1250  -15.9044  -48.0089 H         1 UNK         0.0800 
    135 H135       -0.8463  -15.0937  -49.2102 H         1 UNK         0.0800 
    136 H136       -1.0618  -16.0661  -51.3893 H         1 UNK         0.1150 
    137 H137        1.2407  -19.5316  -52.4228 H         1 UNK         0.1150 
    138 H138        2.0583  -17.4177  -48.7809 H         1 UNK         0.1150 
    139 H139        3.4900  -19.7300  -51.1314 H         1 UNK         0.0800 
    140 H140        3.5403  -19.1851  -49.4739 H         1 UNK         0.0800 
    141 H141        0.9792  -19.8277  -48.1000 H         1 UNK         0.0800 
    142 H142        2.3959  -20.5846  -47.4205 H         1 UNK         0.0800 
    143 H143        1.1651  -22.8486  -47.6987 H         1 UNK         0.0600 
    144 H144        0.9413  -20.9860  -45.5845 H         1 UNK         0.3000 
    145 H145       -0.6717  -23.2304  -43.2797 H         1 UNK         0.0600 
    146 H146        1.3192  -22.5276  -41.9857 H         1 UNK         0.0600 
    147 H147        1.7864  -23.6617  -43.2445 H         1 UNK         0.0600 
    148 H148        2.1049  -21.9437  -43.4501 H         1 UNK         0.0600 
    149 H149        0.1024  -20.5166  -42.9774 H         1 UNK         0.3000 
    150 H150       -3.0125  -19.0502  -44.0232 H         1 UNK         0.0600 
    151 H151       -3.2036  -19.7684  -41.6298 H         1 UNK         0.0600 
    152 H152       -2.7558  -18.0749  -41.7688 H         1 UNK         0.0600 
    153 H153       -1.5380  -19.2753  -41.3451 H         1 UNK         0.0600 
    154 H154       -0.6387  -17.8025  -43.1476 H         1 UNK         0.3000 
    155 H155        0.9291  -17.4482  -46.3719 H         1 UNK         0.0600 
    156 H156       -0.2283  -15.5662  -44.2439 H         1 UNK         0.0600 
    157 H157       -0.7426  -15.6029  -45.9150 H         1 UNK         0.0600 
    158 H158        0.9075  -15.1370  -45.5127 H         1 UNK         0.0600 
    159 H159        1.9296  -16.7373  -43.8479 H         1 UNK         0.3000 
    160 H160        3.5039  -19.8223  -42.9430 H         1 UNK         0.0600 
    161 H161        4.5601  -17.1046  -43.8829 H         1 UNK         0.0600 
    162 H162        5.0929  -18.6806  -44.4452 H         1 UNK         0.0600 
    163 H163        5.4075  -18.1961  -42.7854 H         1 UNK         0.0600 
    164 H164        3.2443  -17.2156  -41.7270 H         1 UNK         0.3000 
    165 H165        0.4049  -18.0140  -39.7150 H         1 UNK         0.0600 
    166 H166        2.0023  -17.3410  -37.9459 H         1 UNK         0.0600 
    167 H167        2.3911  -18.9526  -38.5259 H         1 UNK         0.0600 
    168 H168        3.3652  -17.5802  -39.0395 H         1 UNK         0.0600 
    169 H169        2.0586  -15.6773  -39.9550 H         1 UNK         0.3000 
    170 H170        0.1356  -14.0639  -42.4848 H         1 UNK         0.0600 
    171 H171       -1.1821  -13.7127  -40.3897 H         1 UNK         0.0600 
    172 H172        0.3106  -13.4973  -39.4818 H         1 UNK         0.0600 
    173 H173       -0.1364  -12.3458  -40.7414 H         1 UNK         0.0600 
    174 H174        2.2385  -12.9697  -41.0483 H         1 UNK         0.3000 
    175 H175        4.7099  -13.5528  -41.5417 H         1 UNK         0.0600 
    176 H176        4.7882  -14.0030  -44.5718 H         1 UNK         0.0600 
    177 H177        6.1408  -13.4289  -43.5993 H         1 UNK         0.0600 
    178 H178        5.4977  -15.0387  -43.3347 H         1 UNK         0.0600 
    179 H179        4.0629  -11.7742  -43.7938 H         1 UNK         0.3000 
    180 H180        3.1519   -9.0500  -41.6281 H         1 UNK         0.0600 
    181 H181        5.2927   -9.6252  -43.7468 H         1 UNK         0.0600 
    182 H182        5.5931   -9.0567  -42.1090 H         1 UNK         0.0600 
    183 H183        4.7268   -8.0341  -43.2450 H         1 UNK         0.0600 
    184 H184        2.9410   -9.9269  -44.4598 H         1 UNK         0.3000 
    185 H185       -0.5776   -9.9839  -44.4130 H         1 UNK         0.0600 
    186 H186       -0.2667   -7.5118  -44.5580 H         1 UNK         0.0600 
    187 H187        1.1310   -7.7326  -45.6037 H         1 UNK         0.0600 
    188 H188       -0.4743   -8.2162  -46.1533 H         1 UNK         0.0600 
    189 H189        1.3965  -10.0020  -46.5185 H         1 UNK         0.3000 
    190 H190       -1.4252  -20.4492  -46.9546 H         1 UNK         0.3000 
    191 H191       -3.0686  -21.0131  -49.1883 H         1 UNK         0.0600 
    192 H192       -3.3784  -19.0112  -47.7823 H         1 UNK         0.0600 
    193 H193       -4.8647  -19.9482  -47.8128 H         1 UNK         0.0600 
    194 H194       -3.8208  -20.0058  -46.3961 H         1 UNK         0.0600 
    195 H195       -3.0075  -22.5063  -45.9085 H         1 UNK         0.3000 
    196 H196       -5.1520  -24.3147  -46.2883 H         1 UNK         0.0600 
    197 H197       -4.1374  -25.5259  -44.3536 H         1 UNK         0.0600 
    198 H198       -4.2271  -23.7956  -44.0631 H         1 UNK         0.0600 
    199 H199       -2.6872  -24.5389  -44.4857 H         1 UNK         0.0600 
    200 H200       -1.6309  -24.7289  -46.8861 H         1 UNK         0.3000 
    201 H201       -1.7298  -27.3920  -47.8588 H         1 UNK         0.0600 
    202 H202        0.3665  -26.2844  -47.1336 H         1 UNK         0.0600 
    203 H203        0.2651  -25.1486  -48.4762 H         1 UNK         0.0600 
    204 H204        0.5225  -26.8604  -48.7866 H         1 UNK         0.0600 
    205 H205       -2.0754  -24.2639  -49.5507 H         1 UNK         0.3000 
    206 H206       -2.5093  -25.4080  -52.1788 H         1 UNK         0.0600 
    207 H207       -1.4715  -23.1665  -51.8336 H         1 UNK         0.0600 
    208 H208       -2.9303  -23.0465  -52.8029 H         1 UNK         0.0600 
    209 H209       -2.9663  -22.5778  -51.1102 H         1 UNK         0.0600 
    210 H210       -4.2195  -26.6807  -50.3972 H         1 UNK         0.3000 
    211 H211       -6.2752  -27.4538  -50.1338 H         1 UNK         0.0600 
    212 H212       -6.8067  -26.2533  -52.8997 H         1 UNK         0.0600 
    213 H213       -7.6655  -27.5995  -52.1633 H         1 UNK         0.0600 
    214 H214       -5.9758  -27.7801  -52.6032 H         1 UNK         0.0600 
    215 H215       -5.9200  -24.9692  -48.8731 H         1 UNK         0.3000 
    216 H216       -6.9774  -23.4548  -47.6489 H         1 UNK         0.0600 
    217 H217       -9.3593  -23.6353  -47.1035 H         1 UNK         0.0600 
    218 H218       -8.6265  -25.2313  -47.0777 H         1 UNK         0.0600 
    219 H219       -9.6394  -24.7431  -48.4359 H         1 UNK         0.0600 
    220 H220       -5.9634  -22.5096  -49.6895 H         1 UNK         0.3000 
    221 H221       -5.6868  -20.7449  -50.9291 H         1 UNK         0.0600 
    222 H222       -8.5372  -19.7900  -50.3264 H         1 UNK         0.0600 
    223 H223       -7.1293  -19.4520  -49.3187 H         1 UNK         0.0600 
    224 H224       -7.2155  -18.8228  -50.9546 H         1 UNK         0.0600 
    225 H225       -6.2272  -19.7072  -52.9698 H         1 UNK         0.3000 
    226 H226       -6.4136  -19.8335  -55.1589 H         1 UNK         0.0600 
    227 H227       -8.9121  -19.9929  -54.8413 H         1 UNK         0.0600 
    228 H228       -8.3460  -20.7819  -56.2994 H         1 UNK         0.0600 
    229 H229       -8.7931  -21.7481  -54.8970 H         1 UNK         0.0600 
    230 H230       -7.2688  -22.5255  -56.4783 H         1 UNK         0.3000 
    231 H231       -6.2848  -24.2607  -57.4340 H         1 UNK         0.0600 
    232 H232       -5.2209  -24.7734  -54.6043 H         1 UNK         0.0600 
    233 H233       -5.2098  -25.9493  -55.9144 H         1 UNK         0.0600 
    234 H234       -6.7341  -25.3445  -55.2885 H         1 UNK         0.0600 
    235 H235       -3.4815  -24.0351  -55.3213 H         1 UNK         0.3000 
    236 H236       -1.5982  -23.8358  -57.5169 H         1 UNK         0.0600 
    237 H237       -1.0816  -25.1204  -55.4439 H         1 UNK         0.0600 
    238 H238        0.0824  -23.8264  -55.6819 H         1 UNK         0.0600 
    239 H239       -1.1904  -23.6450  -54.4830 H         1 UNK         0.0600 
    240 H240       -3.1869  -21.5516  -55.3281 H         1 UNK         0.3000 
    241 H241       -1.4735  -19.2842  -56.0837 H         1 UNK         0.0600 
    242 H242       -1.8165  -18.1070  -57.9889 H         1 UNK         0.3800 
    243 H243       -3.3268  -18.0873  -58.8536 H         1 UNK         0.3800 
    244 H244       -3.1581  -17.9360  -54.7662 H         1 UNK         0.0800 
    245 H245       -4.0454  -19.3945  -54.4371 H         1 UNK         0.0800 
    246 H246       -1.3319  -17.0442  -53.5475 H         1 UNK         0.0800 
    247 H247       -0.1384  -18.1643  -54.1606 H         1 UNK         0.0800 
@<TRIPOS>BOND
     1    1    2 1    
     2    1  127 1    
     3    1  128 1    
     4    1  129 1    
     5    2    3 2    
     6    2    4 am   BACKBONE|DICT|INTERRES
     7    4    5 1    
     8    4  130 1    
     9    5    6 1    
    10    5   65 1    
    11    5  131 1    
    12    6    7 1    
    13    6  132 1    
    14    6  133 1    
    15    7    8 1    
    16    8    9 1    
    17    8  134 1    
    18    8  135 1    
    19    9   10 ar   
    20    9   14 ar   
    21   10   11 ar   
    22   10  136 1    
    23   11   12 ar   
    24   11  126 1    
    25   12   13 ar   
    26   12  137 1    
    27   13   14 ar   
    28   13   15 1    
    29   14  138 1    
    30   15   16 1    
    31   15  139 1    
    32   15  140 1    
    33   16   17 1    
    34   17   18 1    
    35   17  141 1    
    36   17  142 1    
    37   18   19 1    
    38   18   67 1    
    39   18  143 1    
    40   19   20 am   BACKBONE|DICT|INTERRES
    41   19  144 1    
    42   20   21 2    
    43   20   22 1    
    44   22   23 1    
    45   22   24 1    
    46   22  145 1    
    47   23  146 1    
    48   23  147 1    
    49   23  148 1    
    50   24   25 am   BACKBONE|DICT|INTERRES
    51   24  149 1    
    52   25   26 2    
    53   25   27 1    
    54   27   28 1    
    55   27   29 1    
    56   27  150 1    
    57   28  151 1    
    58   28  152 1    
    59   28  153 1    
    60   29   30 am   BACKBONE|DICT|INTERRES
    61   29  154 1    
    62   30   31 2    
    63   30   32 1    
    64   32   33 1    
    65   32   34 1    
    66   32  155 1    
    67   33  156 1    
    68   33  157 1    
    69   33  158 1    
    70   34   35 am   BACKBONE|DICT|INTERRES
    71   34  159 1    
    72   35   36 2    
    73   35   37 1    
    74   37   38 1    
    75   37   39 1    
    76   37  160 1    
    77   38  161 1    
    78   38  162 1    
    79   38  163 1    
    80   39   40 am   BACKBONE|DICT|INTERRES
    81   39  164 1    
    82   40   41 2    
    83   40   42 1    
    84   42   43 1    
    85   42   44 1    
    86   42  165 1    
    87   43  166 1    
    88   43  167 1    
    89   43  168 1    
    90   44   45 am   BACKBONE|DICT|INTERRES
    91   44  169 1    
    92   45   46 2    
    93   45   47 1    
    94   47   48 1    
    95   47   49 1    
    96   47  170 1    
    97   48  171 1    
    98   48  172 1    
    99   48  173 1    
   100   49   50 am   BACKBONE|DICT|INTERRES
   101   49  174 1    
   102   50   51 2    
   103   50   52 1    
   104   52   53 1    
   105   52   54 1    
   106   52  175 1    
   107   53  176 1    
   108   53  177 1    
   109   53  178 1    
   110   54   55 am   BACKBONE|DICT|INTERRES
   111   54  179 1    
   112   55   56 2    
   113   55   57 1    
   114   57   58 1    
   115   57   59 1    
   116   57  180 1    
   117   58  181 1    
   118   58  182 1    
   119   58  183 1    
   120   59   60 am   BACKBONE|DICT|INTERRES
   121   59  184 1    
   122   60   61 2    
   123   60   62 1    
   124   62   63 1    
   125   62   64 1    
   126   62  185 1    
   127   63  186 1    
   128   63  187 1    
   129   63  188 1    
   130   64   65 am   BACKBONE|DICT|INTERRES
   131   64  189 1    
   132   65   66 2    
   133   67   68 2    
   134   67   69 am   BACKBONE|DICT|INTERRES
   135   69   70 1    
   136   69  190 1    
   137   70   71 1    
   138   70   72 1    
   139   70  191 1    
   140   71  192 1    
   141   71  193 1    
   142   71  194 1    
   143   72   73 2    
   144   72   74 am   BACKBONE|DICT|INTERRES
   145   74   75 1    
   146   74  195 1    
   147   75   76 1    
   148   75   77 1    
   149   75  196 1    
   150   76  197 1    
   151   76  198 1    
   152   76  199 1    
   153   77   78 2    
   154   77   79 am   BACKBONE|DICT|INTERRES
   155   79   80 1    
   156   79  200 1    
   157   80   81 1    
   158   80   82 1    
   159   80  201 1    
   160   81  202 1    
   161   81  203 1    
   162   81  204 1    
   163   82   83 2    
   164   82   84 am   BACKBONE|DICT|INTERRES
   165   84   85 1    
   166   84  205 1    
   167   85   86 1    
   168   85   87 1    
   169   85  206 1    
   170   86  207 1    
   171   86  208 1    
   172   86  209 1    
   173   87   88 2    
   174   87   89 am   BACKBONE|DICT|INTERRES
   175   89   90 1    
   176   89  210 1    
   177   90   91 1    
   178   90   92 1    
   179   90  211 1    
   180   91  212 1    
   181   91  213 1    
   182   91  214 1    
   183   92   93 2    
   184   92   94 am   BACKBONE|DICT|INTERRES
   185   94   95 1    
   186   94  215 1    
   187   95   96 1    
   188   95   97 1    
   189   95  216 1    
   190   96  217 1    
   191   96  218 1    
   192   96  219 1    
   193   97   98 2    
   194   97   99 am   BACKBONE|DICT|INTERRES
   195   99  100 1    
   196   99  220 1    
   197  100  101 1    
   198  100  102 1    
   199  100  221 1    
   200  101  222 1    
   201  101  223 1    
   202  101  224 1    
   203  102  103 2    
   204  102  104 am   BACKBONE|DICT|INTERRES
   205  104  105 1    
   206  104  225 1    
   207  105  106 1    
   208  105  107 1    
   209  105  226 1    
   210  106  227 1    
   211  106  228 1    
   212  106  229 1    
   213  107  108 2    
   214  107  109 am   BACKBONE|DICT|INTERRES
   215  109  110 1    
   216  109  230 1    
   217  110  111 1    
   218  110  112 1    
   219  110  231 1    
   220  111  232 1    
   221  111  233 1    
   222  111  234 1    
   223  112  113 2    
   224  112  114 am   BACKBONE|DICT|INTERRES
   225  114  115 1    
   226  114  235 1    
   227  115  116 1    
   228  115  117 1    
   229  115  236 1    
   230  116  237 1    
   231  116  238 1    
   232  116  239 1    
   233  117  118 2    
   234  117  119 am   BACKBONE|DICT|INTERRES
   235  119  120 1    
   236  119  240 1    
   237  120  121 1    
   238  120  124 1    
   239  120  241 1    
   240  121  122 am   BACKBONE|DICT|INTERRES
   241  121  123 2    
   242  122  242 1    
   243  122  243 1    
   244  124  125 1    
   245  124  244 1    
   246  124  245 1    
   247  125  126 1    
   248  126  246 1    
   249  126  247 1    
@<TRIPOS>SUBSTRUCTURE
     1 UNK         1 GROUP             0       ****    0 ROOT    
