@<TRIPOS>MOLECULE
3R540
247   249    1
SMALL
USER_CHARGES


@<TRIPOS>ATOM
      1 CA         -2.0478  -14.3233  -45.1493 C.3       0 UNK        -0.1800 
      2 C          -1.3639  -14.2283  -46.5060 C.2       0 UNK         0.5000 
      3 O          -1.4678  -15.1563  -47.3039 O.2       0 UNK        -0.5000 
      4 N          -0.6892  -13.1021  -46.7699 N.am      1 UNK        -0.5000 
      5 CA         -0.0339  -12.7114  -48.0271 C.3       1 UNK         0.1400 
      6 C6         -0.9710  -12.6756  -49.2683 C.3       23 UNK        -0.0398 
      7 S7         -2.5279  -11.7521  -49.0185 S.3       23 UNK        -0.2404 
      8 C8         -3.3681  -11.9746  -50.6299 C.3       23 UNK        -0.0205 
      9 C9         -3.3607  -13.4143  -51.1387 C.ar      23 UNK        -0.0193 
     10 C10        -2.8981  -13.6982  -52.4288 C.ar      23 UNK        -0.1150 
     11 C11        -2.8221  -15.0190  -52.8816 C.ar      23 UNK        -0.0193 
     12 C12        -3.2184  -16.0600  -52.0414 C.ar      23 UNK        -0.1150 
     13 C13        -3.6793  -15.7902  -50.7527 C.ar      23 UNK        -0.0193 
     14 C14        -3.7719  -14.4669  -50.3133 C.ar      23 UNK        -0.1150 
     15 C15        -4.0017  -16.9378  -49.8168 C.3       23 UNK        -0.0205 
     16 S16        -2.4575  -17.6735  -49.2064 S.3       23 UNK        -0.2404 
     17 C17        -3.0674  -18.7345  -47.8648 C.3       23 UNK        -0.0398 
     18 CA         -2.3963  -20.1252  -47.8979 C.3       11 UNK         0.1400 
     19 N          -0.9463  -20.0339  -47.7065 N.am      11 UNK        -0.5000 
     20 C          -0.0837  -21.0551  -47.7917 C.2       10 UNK         0.5000 
     21 O          -0.4078  -22.1962  -48.1164 O.2       10 UNK        -0.5000 
     22 CA          1.3716  -20.7666  -47.3740 C.3       10 UNK         0.1400 
     23 CB          2.2460  -20.4228  -48.5864 C.3       10 UNK        -0.1800 
     24 N           1.4752  -19.7002  -46.3746 N.am      10 UNK        -0.5000 
     25 C           0.9916  -19.7890  -45.1303 C.2       9 UNK         0.5000 
     26 O           0.4064  -20.7850  -44.6965 O.2       9 UNK        -0.5000 
     27 CA          1.1149  -18.5221  -44.2680 C.3       9 UNK         0.1400 
     28 CB         -0.0651  -17.5813  -44.5483 C.3       9 UNK        -0.1800 
     29 N           1.1590  -18.8196  -42.8369 N.am      9 UNK        -0.5000 
     30 C           2.1782  -19.4427  -42.2264 C.2       8 UNK         0.5000 
     31 O           3.1907  -19.8233  -42.8160 O.2       8 UNK        -0.5000 
     32 CA          2.0901  -19.6459  -40.7010 C.3       8 UNK         0.1400 
     33 CB          3.0573  -18.6964  -39.9755 C.3       8 UNK        -0.1800 
     34 N           0.7438  -19.4421  -40.1682 N.am      8 UNK        -0.5000 
     35 C          -0.2280  -20.3642  -40.1911 C.2       7 UNK         0.5000 
     36 O          -0.0727  -21.5049  -40.6274 O.2       7 UNK        -0.5000 
     37 CA         -1.6062  -19.9554  -39.6300 C.3       7 UNK         0.1400 
     38 CB         -1.8189  -20.5646  -38.2355 C.3       7 UNK        -0.1800 
     39 N          -1.8277  -18.5086  -39.5494 N.am      7 UNK        -0.5000 
     40 C          -1.8886  -17.6743  -40.5956 C.2       6 UNK         0.5000 
     41 O          -1.7302  -18.0414  -41.7606 O.2       6 UNK        -0.5000 
     42 CA         -2.1621  -16.1823  -40.3017 C.3       6 UNK         0.1400 
     43 CB         -2.0130  -15.7931  -38.8129 C.3       6 UNK        -0.1800 
     44 N          -1.3521  -15.2950  -41.1429 N.am      6 UNK        -0.5000 
     45 C          -0.0147  -15.2612  -41.2161 C.2       5 UNK         0.5000 
     46 O           0.7365  -15.9814  -40.5518 O.2       5 UNK        -0.5000 
     47 CA          0.5752  -14.2292  -42.1883 C.3       5 UNK         0.1400 
     48 CB          0.5725  -12.8245  -41.5641 C.3       5 UNK        -0.1800 
     49 N           1.9475  -14.6008  -42.5128 N.am      5 UNK        -0.5000 
     50 C           2.4461  -14.7374  -43.7447 C.2       4 UNK         0.5000 
     51 O           1.8079  -14.4925  -44.7707 O.2       4 UNK        -0.5000 
     52 CA          3.9002  -15.2308  -43.8513 C.3       4 UNK         0.1400 
     53 CB          4.3093  -16.1837  -42.7057 C.3       4 UNK        -0.1800 
     54 N           4.0810  -15.8767  -45.1473 N.am      4 UNK        -0.5000 
     55 C           5.2458  -16.1338  -45.7471 C.2       3 UNK         0.5000 
     56 O           6.3398  -15.8524  -45.2558 O.2       3 UNK        -0.5000 
     57 CA          5.2009  -16.8009  -47.1361 C.3       3 UNK         0.1400 
     58 CB          5.1286  -18.3352  -47.0117 C.3       3 UNK        -0.1800 
     59 N           4.1678  -16.2784  -48.0424 N.am      3 UNK        -0.5000 
     60 C           2.8372  -16.4099  -47.9732 C.2       2 UNK         0.5000 
     61 O           2.2479  -17.0284  -47.0838 O.2       2 UNK        -0.5000 
     62 CA          2.0383  -15.7613  -49.1120 C.3       2 UNK         0.1400 
     63 CB          1.3345  -16.8224  -49.9689 C.3       2 UNK        -0.1800 
     64 N           1.0338  -14.8470  -48.5877 N.am      2 UNK        -0.5000 
     65 C           1.2253  -13.5466  -48.3448 C.2       1 UNK         0.5000 
     66 O           2.3226  -12.9912  -48.4217 O.2       1 UNK        -0.5000 
     67 C          -3.0538  -21.0413  -46.8489 C.2       11 UNK         0.5000 
     68 O          -3.9072  -21.8530  -47.2041 O.2       11 UNK        -0.5000 
     69 N          -2.6288  -20.9103  -45.5840 N.am      12 UNK        -0.5000 
     70 CA         -3.1078  -21.7230  -44.4668 C.3       12 UNK         0.1400 
     71 CB         -2.7543  -21.0330  -43.1419 C.3       12 UNK        -0.1800 
     72 C          -2.5497  -23.1552  -44.5088 C.2       12 UNK         0.5000 
     73 O          -3.2569  -24.0877  -44.1270 O.2       12 UNK        -0.5000 
     74 N          -1.3091  -23.3075  -44.9953 N.am      13 UNK        -0.5000 
     75 CA         -0.6706  -24.6018  -45.2362 C.3       13 UNK         0.1400 
     76 CB          0.8211  -24.3955  -45.5387 C.3       13 UNK        -0.1800 
     77 C          -1.3607  -25.3925  -46.3651 C.2       13 UNK         0.5000 
     78 O          -1.5574  -26.6000  -46.2234 O.2       13 UNK        -0.5000 
     79 N          -1.7340  -24.6968  -47.4496 N.am      14 UNK        -0.5000 
     80 CA         -2.5193  -25.2401  -48.5582 C.3       14 UNK         0.1400 
     81 CB         -2.5010  -24.2509  -49.7362 C.3       14 UNK        -0.1800 
     82 C          -3.9640  -25.5646  -48.1370 C.2       14 UNK         0.5000 
     83 O          -4.4318  -26.6791  -48.3761 O.2       14 UNK        -0.5000 
     84 N          -4.6254  -24.5854  -47.5017 N.am      15 UNK        -0.5000 
     85 CA         -6.0106  -24.5660  -47.0238 C.3       15 UNK         0.1400 
     86 CB         -6.2639  -25.6467  -45.9542 C.3       15 UNK        -0.1800 
     87 C          -7.0379  -24.6212  -48.1693 C.2       15 UNK         0.5000 
     88 O          -7.7466  -23.6407  -48.4001 O.2       15 UNK        -0.5000 
     89 N          -7.0857  -25.7531  -48.8786 N.am      16 UNK        -0.5000 
     90 CA         -7.8622  -25.9396  -50.0989 C.3       16 UNK         0.1400 
     91 CB         -8.1769  -27.4334  -50.2709 C.3       16 UNK        -0.1800 
     92 C          -7.0584  -25.4096  -51.2964 C.2       16 UNK         0.5000 
     93 O          -5.8633  -25.6978  -51.3946 O.2       16 UNK        -0.5000 
     94 N          -7.7298  -24.6561  -52.1802 N.am      17 UNK        -0.5000 
     95 CA         -7.1781  -24.0165  -53.3831 C.3       17 UNK         0.1400 
     96 CB         -6.8346  -25.0758  -54.4515 C.3       17 UNK        -0.1800 
     97 C          -5.9933  -23.0786  -53.0645 C.2       17 UNK         0.5000 
     98 O          -4.9620  -23.1266  -53.7355 O.2       17 UNK        -0.5000 
     99 N          -6.1655  -22.2462  -52.0265 N.am      18 UNK        -0.5000 
    100 CA        -5.1361  -21.3924  -51.4215 C.3       18 UNK         0.1400 
    101 CB        -5.7429  -20.6602  -50.2174 C.3       18 UNK        -0.1800 
    102 C         -4.4426  -20.3971  -52.3749 C.2       18 UNK         0.5000 
    103 O         -3.3215  -19.9801  -52.0910 O.2       18 UNK        -0.5000 
    104 N         -5.0764  -20.0782  -53.5131 N.am      19 UNK        -0.5000 
    105 CA        -4.4923  -19.3103  -54.6184 C.3       19 UNK         0.1400 
    106 CB        -5.5642  -19.0841  -55.6936 C.3       19 UNK        -0.1800 
    107 C         -3.2361  -19.9627  -55.2379 C.2       19 UNK         0.5000 
    108 O         -2.3976  -19.2519  -55.7964 O.2       19 UNK        -0.5000 
    109 N         -3.0879  -21.2881  -55.0805 N.am      20 UNK        -0.5000 
    110 CA        -1.9012  -22.0613  -55.4576 C.3       20 UNK         0.1400 
    111 CB        -2.2002  -23.5594  -55.2953 C.3       20 UNK        -0.1800 
    112 C         -0.6274  -21.6789  -54.6741 C.2       20 UNK         0.5000 
    113 O          0.4682  -22.0339  -55.1100 O.2       20 UNK        -0.5000 
    114 N         -0.7751  -20.9448  -53.5592 N.am      21 UNK        -0.5000 
    115 CA         0.3293  -20.3211  -52.8302 C.3       21 UNK         0.1400 
    116 CB        -0.1879  -19.7873  -51.4880 C.3       21 UNK        -0.1800 
    117 C          1.0145  -19.1986  -53.6387 C.2       21 UNK         0.5000 
    118 O          2.2141  -18.9824  -53.4623 O.2       21 UNK        -0.5000 
    119 N          0.2578  -18.5349  -54.5247 N.am      22 UNK        -0.5000 
    120 CA         0.7804  -17.6031  -55.5361 C.3       22 UNK         0.1400 
    121 C          1.0117  -18.3265  -56.8884 C.2       22 UNK         0.5000 
    122 N          0.0689  -19.1397  -57.3524 N.am      22 UNK        -0.7600 
    123 O          2.0495  -18.1501  -57.5204 O.2       22 UNK        -0.5000 
    124 C124       -0.1319  -16.3692  -55.7527 C.3       23 UNK        -0.0398 
    125 S125       -0.4574  -15.4483  -54.2130 S.3       23 UNK        -0.2404 
    126 C126       -2.2722  -15.3373  -54.2590 C.3       23 UNK        -0.0205 
    127 H127       -1.7182  -15.2151  -44.6195 H         1 UNK         0.0600 
    128 H128       -3.1272  -14.3907  -45.2838 H         1 UNK         0.0600 
    129 H129       -1.8381  -13.4531  -44.5272 H         1 UNK         0.0600 
    130 H130       -0.6233  -12.4076  -46.0399 H         1 UNK         0.3000 
    131 H131        0.3086  -11.6891  -47.8593 H         1 UNK         0.0600 
    132 H132       -0.4512  -12.2327  -50.1197 H         1 UNK         0.0800 
    133 H133       -1.2238  -13.6930  -49.5675 H         1 UNK         0.0800 
    134 H134       -4.4016  -11.6389  -50.5379 H         1 UNK         0.0800 
    135 H135       -2.8937  -11.3119  -51.3552 H         1 UNK         0.0800 
    136 H136       -2.5682  -12.8957  -53.0737 H         1 UNK         0.1150 
    137 H137       -3.1261  -17.0863  -52.3694 H         1 UNK         0.1150 
    138 H138       -4.1076  -14.2584  -49.3071 H         1 UNK         0.1150 
    139 H139       -4.6017  -16.5872  -48.9757 H         1 UNK         0.0800 
    140 H140       -4.5902  -17.6923  -50.3401 H         1 UNK         0.0800 
    141 H141       -4.1520  -18.8247  -47.9418 H         1 UNK         0.0800 
    142 H142       -2.8714  -18.2268  -46.9184 H         1 UNK         0.0800 
    143 H143       -2.5727  -20.5726  -48.8791 H         1 UNK         0.0600 
    144 H144       -0.5865  -19.1230  -47.4633 H         1 UNK         0.3000 
    145 H145        1.7661  -21.6811  -46.9280 H         1 UNK         0.0600 
    146 H146        3.3023  -20.4327  -48.3198 H         1 UNK         0.0600 
    147 H147        2.1090  -21.1457  -49.3919 H         1 UNK         0.0600 
    148 H148        2.0129  -19.4361  -48.9808 H         1 UNK         0.0600 
    149 H149        1.8775  -18.8158  -46.6789 H         1 UNK         0.3000 
    150 H150        2.0415  -18.0085  -44.5313 H         1 UNK         0.0600 
    151 H151       -0.0677  -17.2486  -45.5872 H         1 UNK         0.0600 
    152 H152       -0.0073  -16.6902  -43.9261 H         1 UNK         0.0600 
    153 H153       -1.0236  -18.0641  -44.3549 H         1 UNK         0.0600 
    154 H154        0.3364  -18.5766  -42.2986 H         1 UNK         0.3000 
    155 H155        2.4046  -20.6704  -40.4904 H         1 UNK         0.0600 
    156 H156        2.8046  -17.6508  -40.1523 H         1 UNK         0.0600 
    157 H157        4.0826  -18.8462  -40.3163 H         1 UNK         0.0600 
    158 H158        3.0455  -18.8674  -38.8990 H         1 UNK         0.0600 
    159 H159        0.5308  -18.5179  -39.8184 H         1 UNK         0.3000 
    160 H160       -2.3628  -20.3684  -40.2990 H         1 UNK         0.0600 
    161 H161       -1.1045  -20.1703  -37.5117 H         1 UNK         0.0600 
    162 H162       -1.6981  -21.6485  -38.2588 H         1 UNK         0.0600 
    163 H163       -2.8232  -20.3603  -37.8636 H         1 UNK         0.0600 
    164 H164       -1.9518  -18.1257  -38.6235 H         1 UNK         0.3000 
    165 H165       -3.2006  -16.0078  -40.5859 H         1 UNK         0.0600 
    166 H166       -2.1977  -14.7284  -38.6695 H         1 UNK         0.0600 
    167 H167       -2.7321  -16.3239  -38.1879 H         1 UNK         0.0600 
    168 H168       -1.0139  -16.0071  -38.4313 H         1 UNK         0.0600 
    169 H169       -1.8805  -14.6794  -41.7442 H         1 UNK         0.3000 
    170 H170       -0.0408  -14.2210  -43.0877 H         1 UNK         0.0600 
    171 H171       -0.4405  -12.5037  -41.3186 H         1 UNK         0.0600 
    172 H172        1.1602  -12.7915  -40.6458 H         1 UNK         0.0600 
    173 H173        0.9873  -12.0886  -42.2532 H         1 UNK         0.0600 
    174 H174        2.4990  -14.9044  -41.7218 H         1 UNK         0.3000 
    175 H175        4.5373  -14.3451  -43.8174 H         1 UNK         0.0600 
    176 H176        3.6446  -17.0434  -42.6521 H         1 UNK         0.0600 
    177 H177        5.3236  -16.5603  -42.8357 H         1 UNK         0.0600 
    178 H178        4.2865  -15.6831  -41.7375 H         1 UNK         0.0600 
    179 H179        3.2218  -16.0868  -45.6490 H         1 UNK         0.3000 
    180 H180        6.1501  -16.5645  -47.6197 H         1 UNK         0.0600 
    181 H181        5.1460  -18.8109  -47.9920 H         1 UNK         0.0600 
    182 H182        4.2299  -18.6643  -46.4905 H         1 UNK         0.0600 
    183 H183        5.9820  -18.7175  -46.4506 H         1 UNK         0.0600 
    184 H184        4.5342  -15.7230  -48.8031 H         1 UNK         0.3000 
    185 H185        2.7193  -15.2087  -49.7630 H         1 UNK         0.0600 
    186 H186        0.7620  -16.3649  -50.7765 H         1 UNK         0.0600 
    187 H187        2.0606  -17.4937  -50.4285 H         1 UNK         0.0600 
    188 H188        0.6455  -17.4252  -49.3760 H         1 UNK         0.0600 
    189 H189        0.1185  -15.2361  -48.3740 H         1 UNK         0.3000 
    190 H190       -1.8763  -20.2689  -45.3802 H         1 UNK         0.3000 
    191 H191       -4.1961  -21.7900  -44.5316 H         1 UNK         0.0600 
    192 H192       -3.1181  -21.6138  -42.2937 H         1 UNK         0.0600 
    193 H193       -3.2082  -20.0440  -43.0782 H         1 UNK         0.0600 
    194 H194       -1.6773  -20.9144  -43.0195 H         1 UNK         0.0600 
    195 H195       -0.7704  -22.4775  -45.2140 H         1 UNK         0.3000 
    196 H196       -0.7504  -25.1880  -44.3182 H         1 UNK         0.0600 
    197 H197        0.9734  -23.8769  -46.4845 H         1 UNK         0.0600 
    198 H198        1.3090  -23.8162  -44.7543 H         1 UNK         0.0600 
    199 H199        1.3376  -25.3535  -45.6071 H         1 UNK         0.0600 
    200 H200       -1.4590  -23.7218  -47.5232 H         1 UNK         0.3000 
    201 H201       -2.0491  -26.1687  -48.8881 H         1 UNK         0.0600 
    202 H202       -2.8914  -23.2741  -49.4496 H         1 UNK         0.0600 
    203 H203       -3.1071  -24.6172  -50.5664 H         1 UNK         0.0600 
    204 H204       -1.4878  -24.1046  -50.1109 H         1 UNK         0.0600 
    205 H205       -4.1513  -23.6914  -47.3962 H         1 UNK         0.3000 
    206 H206       -6.1364  -23.5975  -46.5369 H         1 UNK         0.0600 
    207 H207       -5.5734  -25.5365  -45.1178 H         1 UNK         0.0600 
    208 H208       -7.2751  -25.5653  -45.5539 H         1 UNK         0.0600 
    209 H209       -6.1508  -26.6570  -46.3473 H         1 UNK         0.0600 
    210 H210       -6.3585  -26.4385  -48.6968 H         1 UNK         0.3000 
    211 H211       -8.8054  -25.3947  -50.0192 H         1 UNK         0.0600 
    212 H212       -8.7641  -27.6068  -51.1736 H         1 UNK         0.0600 
    213 H213       -8.7545  -27.8136  -49.4282 H         1 UNK         0.0600 
    214 H214       -7.2672  -28.0304  -50.3501 H         1 UNK         0.0600 
    215 H215       -8.7094  -24.4767  -52.0067 H         1 UNK         0.3000 
    216 H216       -7.9675  -23.3833  -53.7903 H         1 UNK         0.0600 
    217 H217       -6.0179  -25.7242  -54.1323 H         1 UNK         0.0600 
    218 H218       -6.5295  -24.6035  -55.3860 H         1 UNK         0.0600 
    219 H219       -7.6957  -25.7060  -54.6732 H         1 UNK         0.0600 
    220 H220       -7.0491  -22.2812  -51.5392 H         1 UNK         0.3000 
    221 H221       -4.3547  -22.0573  -51.0492 H         1 UNK         0.0600 
    222 H222       -6.1131  -21.3642  -49.4713 H         1 UNK         0.0600 
    223 H223       -6.5686  -20.0121  -50.5133 H         1 UNK         0.0600 
    224 H224       -4.9952  -20.0389  -49.7277 H         1 UNK         0.0600 
    225 H225       -5.9909  -20.4739  -53.6711 H         1 UNK         0.3000 
    226 H226       -4.1918  -18.3382  -54.2239 H         1 UNK         0.0600 
    227 H227       -5.9233  -20.0273  -56.1075 H         1 UNK         0.0600 
    228 H228       -6.4212  -18.5449  -55.2896 H         1 UNK         0.0600 
    229 H229       -5.1694  -18.4915  -56.5201 H         1 UNK         0.0600 
    230 H230       -3.8170  -21.8090  -54.6001 H         1 UNK         0.3000 
    231 H231       -1.7021  -21.8660  -56.5131 H         1 UNK         0.0600 
    232 H232       -2.3802  -23.8209  -54.2517 H         1 UNK         0.0600 
    233 H233       -1.3641  -24.1660  -55.6454 H         1 UNK         0.0600 
    234 H234       -3.0782  -23.8530  -55.8710 H         1 UNK         0.0600 
    235 H235       -1.7085  -20.7070  -53.2425 H         1 UNK         0.3000 
    236 H236        1.0756  -21.0914  -52.6250 H         1 UNK         0.0600 
    237 H237       -0.8790  -18.9542  -51.6235 H         1 UNK         0.0600 
    238 H238       -0.7019  -20.5624  -50.9191 H         1 UNK         0.0600 
    239 H239        0.6369  -19.4297  -50.8761 H         1 UNK         0.0600 
    240 H240       -0.7126  -18.7999  -54.6335 H         1 UNK         0.3000 
    241 H241        1.7498  -17.2246  -55.2060 H         1 UNK         0.0600 
    242 H242        0.2125  -19.6143  -58.2294 H         1 UNK         0.3800 
    243 H243       -0.8126  -19.2449  -56.8590 H         1 UNK         0.3800 
    244 H244        0.3323  -15.6778  -56.4581 H         1 UNK         0.0800 
    245 H245       -1.0763  -16.6720  -56.2080 H         1 UNK         0.0800 
    246 H246       -2.5743  -14.5721  -54.9755 H         1 UNK         0.0800 
    247 H247       -2.6947  -16.2796  -54.6116 H         1 UNK         0.0800 
@<TRIPOS>BOND
     1    1    2 1    
     2    1  127 1    
     3    1  128 1    
     4    1  129 1    
     5    2    3 2    
     6    2    4 am   BACKBONE|DICT|INTERRES
     7    4    5 1    
     8    4  130 1    
     9    5    6 1    
    10    5   65 1    
    11    5  131 1    
    12    6    7 1    
    13    6  132 1    
    14    6  133 1    
    15    7    8 1    
    16    8    9 1    
    17    8  134 1    
    18    8  135 1    
    19    9   10 ar   
    20    9   14 ar   
    21   10   11 ar   
    22   10  136 1    
    23   11   12 ar   
    24   11  126 1    
    25   12   13 ar   
    26   12  137 1    
    27   13   14 ar   
    28   13   15 1    
    29   14  138 1    
    30   15   16 1    
    31   15  139 1    
    32   15  140 1    
    33   16   17 1    
    34   17   18 1    
    35   17  141 1    
    36   17  142 1    
    37   18   19 1    
    38   18   67 1    
    39   18  143 1    
    40   19   20 am   BACKBONE|DICT|INTERRES
    41   19  144 1    
    42   20   21 2    
    43   20   22 1    
    44   22   23 1    
    45   22   24 1    
    46   22  145 1    
    47   23  146 1    
    48   23  147 1    
    49   23  148 1    
    50   24   25 am   BACKBONE|DICT|INTERRES
    51   24  149 1    
    52   25   26 2    
    53   25   27 1    
    54   27   28 1    
    55   27   29 1    
    56   27  150 1    
    57   28  151 1    
    58   28  152 1    
    59   28  153 1    
    60   29   30 am   BACKBONE|DICT|INTERRES
    61   29  154 1    
    62   30   31 2    
    63   30   32 1    
    64   32   33 1    
    65   32   34 1    
    66   32  155 1    
    67   33  156 1    
    68   33  157 1    
    69   33  158 1    
    70   34   35 am   BACKBONE|DICT|INTERRES
    71   34  159 1    
    72   35   36 2    
    73   35   37 1    
    74   37   38 1    
    75   37   39 1    
    76   37  160 1    
    77   38  161 1    
    78   38  162 1    
    79   38  163 1    
    80   39   40 am   BACKBONE|DICT|INTERRES
    81   39  164 1    
    82   40   41 2    
    83   40   42 1    
    84   42   43 1    
    85   42   44 1    
    86   42  165 1    
    87   43  166 1    
    88   43  167 1    
    89   43  168 1    
    90   44   45 am   BACKBONE|DICT|INTERRES
    91   44  169 1    
    92   45   46 2    
    93   45   47 1    
    94   47   48 1    
    95   47   49 1    
    96   47  170 1    
    97   48  171 1    
    98   48  172 1    
    99   48  173 1    
   100   49   50 am   BACKBONE|DICT|INTERRES
   101   49  174 1    
   102   50   51 2    
   103   50   52 1    
   104   52   53 1    
   105   52   54 1    
   106   52  175 1    
   107   53  176 1    
   108   53  177 1    
   109   53  178 1    
   110   54   55 am   BACKBONE|DICT|INTERRES
   111   54  179 1    
   112   55   56 2    
   113   55   57 1    
   114   57   58 1    
   115   57   59 1    
   116   57  180 1    
   117   58  181 1    
   118   58  182 1    
   119   58  183 1    
   120   59   60 am   BACKBONE|DICT|INTERRES
   121   59  184 1    
   122   60   61 2    
   123   60   62 1    
   124   62   63 1    
   125   62   64 1    
   126   62  185 1    
   127   63  186 1    
   128   63  187 1    
   129   63  188 1    
   130   64   65 am   BACKBONE|DICT|INTERRES
   131   64  189 1    
   132   65   66 2    
   133   67   68 2    
   134   67   69 am   BACKBONE|DICT|INTERRES
   135   69   70 1    
   136   69  190 1    
   137   70   71 1    
   138   70   72 1    
   139   70  191 1    
   140   71  192 1    
   141   71  193 1    
   142   71  194 1    
   143   72   73 2    
   144   72   74 am   BACKBONE|DICT|INTERRES
   145   74   75 1    
   146   74  195 1    
   147   75   76 1    
   148   75   77 1    
   149   75  196 1    
   150   76  197 1    
   151   76  198 1    
   152   76  199 1    
   153   77   78 2    
   154   77   79 am   BACKBONE|DICT|INTERRES
   155   79   80 1    
   156   79  200 1    
   157   80   81 1    
   158   80   82 1    
   159   80  201 1    
   160   81  202 1    
   161   81  203 1    
   162   81  204 1    
   163   82   83 2    
   164   82   84 am   BACKBONE|DICT|INTERRES
   165   84   85 1    
   166   84  205 1    
   167   85   86 1    
   168   85   87 1    
   169   85  206 1    
   170   86  207 1    
   171   86  208 1    
   172   86  209 1    
   173   87   88 2    
   174   87   89 am   BACKBONE|DICT|INTERRES
   175   89   90 1    
   176   89  210 1    
   177   90   91 1    
   178   90   92 1    
   179   90  211 1    
   180   91  212 1    
   181   91  213 1    
   182   91  214 1    
   183   92   93 2    
   184   92   94 am   BACKBONE|DICT|INTERRES
   185   94   95 1    
   186   94  215 1    
   187   95   96 1    
   188   95   97 1    
   189   95  216 1    
   190   96  217 1    
   191   96  218 1    
   192   96  219 1    
   193   97   98 2    
   194   97   99 am   BACKBONE|DICT|INTERRES
   195   99  100 1    
   196   99  220 1    
   197  100  101 1    
   198  100  102 1    
   199  100  221 1    
   200  101  222 1    
   201  101  223 1    
   202  101  224 1    
   203  102  103 2    
   204  102  104 am   BACKBONE|DICT|INTERRES
   205  104  105 1    
   206  104  225 1    
   207  105  106 1    
   208  105  107 1    
   209  105  226 1    
   210  106  227 1    
   211  106  228 1    
   212  106  229 1    
   213  107  108 2    
   214  107  109 am   BACKBONE|DICT|INTERRES
   215  109  110 1    
   216  109  230 1    
   217  110  111 1    
   218  110  112 1    
   219  110  231 1    
   220  111  232 1    
   221  111  233 1    
   222  111  234 1    
   223  112  113 2    
   224  112  114 am   BACKBONE|DICT|INTERRES
   225  114  115 1    
   226  114  235 1    
   227  115  116 1    
   228  115  117 1    
   229  115  236 1    
   230  116  237 1    
   231  116  238 1    
   232  116  239 1    
   233  117  118 2    
   234  117  119 am   BACKBONE|DICT|INTERRES
   235  119  120 1    
   236  119  240 1    
   237  120  121 1    
   238  120  124 1    
   239  120  241 1    
   240  121  122 am   BACKBONE|DICT|INTERRES
   241  121  123 2    
   242  122  242 1    
   243  122  243 1    
   244  124  125 1    
   245  124  244 1    
   246  124  245 1    
   247  125  126 1    
   248  126  246 1    
   249  126  247 1    
@<TRIPOS>SUBSTRUCTURE
     1 UNK         1 GROUP             0       ****    0 ROOT    
