@<TRIPOS>MOLECULE
3R540
247   249    1
SMALL
USER_CHARGES


@<TRIPOS>ATOM
      1 CA         -5.6936  -13.9053  -50.1507 C.3       0 UNK        -0.1800 
      2 C          -4.4411  -13.2032  -49.6504 C.2       0 UNK         0.5000 
      3 O          -4.5112  -12.0433  -49.2426 O.2       0 UNK        -0.5000 
      4 N          -3.2962  -13.8946  -49.6952 N.am      1 UNK        -0.5000 
      5 CA         -2.0038  -13.4071  -49.2099 C.3       1 UNK         0.1400 
      6 C6         -0.8192  -14.2032  -49.8092 C.3       23 UNK        -0.0398 
      7 S7         -0.9286  -16.0210  -49.6563 S.3       23 UNK        -0.2404 
      8 C8          0.7739  -16.4405  -50.1462 C.3       23 UNK        -0.0205 
      9 C9          1.1380  -17.8794  -49.8212 C.ar      23 UNK        -0.0193 
     10 C10         1.4590  -18.7768  -50.8433 C.ar      23 UNK        -0.1150 
     11 C11         1.8480  -20.0849  -50.5429 C.ar      23 UNK        -0.0193 
     12 C12         1.9448  -20.4824  -49.2079 C.ar      23 UNK        -0.1150 
     13 C13         1.6016  -19.6034  -48.1779 C.ar      23 UNK        -0.0193 
     14 C14         1.2011  -18.3024  -48.4908 C.ar      23 UNK        -0.1150 
     15 C15         1.6758  -20.0501  -46.7283 C.3       23 UNK        -0.0205 
     16 S16         0.1544  -20.8964  -46.1921 S.3       23 UNK        -0.2404 
     17 C17         0.3047  -22.5533  -46.9464 C.3       23 UNK        -0.0398 
     18 CA          1.3810  -23.4344  -46.2660 C.3       11 UNK         0.1400 
     19 N           1.0783  -23.6086  -44.8463 N.am      11 UNK        -0.5000 
     20 C           1.9015  -24.0657  -43.8999 C.2       10 UNK         0.5000 
     21 O           3.0524  -24.4490  -44.1187 O.2       10 UNK        -0.5000 
     22 CA          1.3456  -24.0140  -42.4586 C.3       10 UNK         0.1400 
     23 CB          2.2862  -24.6745  -41.4348 C.3       10 UNK        -0.1800 
     24 N           1.0867  -22.6324  -42.0386 N.am      10 UNK        -0.5000 
     25 C           0.0537  -21.8756  -42.4353 C.2       9 UNK         0.5000 
     26 O          -0.8609  -22.3076  -43.1425 O.2       9 UNK        -0.5000 
     27 CA          0.0859  -20.3959  -41.9921 C.3       9 UNK         0.1400 
     28 CB          1.3535  -19.6900  -42.5062 C.3       9 UNK        -0.1800 
     29 N          -1.0805  -19.6372  -42.4487 N.am      9 UNK        -0.5000 
     30 C          -2.3155  -19.7476  -41.9377 C.2       8 UNK         0.5000 
     31 O          -2.5877  -20.4765  -40.9819 O.2       8 UNK        -0.5000 
     32 CA         -3.4376  -18.8848  -42.5573 C.3       8 UNK         0.1400 
     33 CB         -3.8964  -17.8047  -41.5639 C.3       8 UNK        -0.1800 
     34 N          -3.0598  -18.2257  -43.8075 N.am      8 UNK        -0.5000 
     35 C          -2.9718  -18.8217  -45.0041 C.2       7 UNK         0.5000 
     36 O          -3.2733  -19.9979  -45.1944 O.2       7 UNK        -0.5000 
     37 CA         -2.4655  -17.9600  -46.1833 C.3       7 UNK         0.1400 
     38 CB         -3.6332  -17.5799  -47.1078 C.3       7 UNK        -0.1800 
     39 N          -1.7692  -16.7329  -45.7786 N.am      7 UNK        -0.5000 
     40 C          -0.6269  -16.6888  -45.0808 C.2       6 UNK         0.5000 
     41 O          -0.0209  -17.6852  -44.6866 O.2       6 UNK        -0.5000 
     42 CA         -0.1243  -15.2948  -44.6802 C.3       6 UNK         0.1400 
     43 CB         -0.4351  -15.0115  -43.2027 C.3       6 UNK        -0.1800 
     44 N           1.3069  -15.1399  -44.9171 N.am      6 UNK        -0.5000 
     45 C           1.8449  -15.0252  -46.1367 C.2       5 UNK         0.5000 
     46 O           1.1787  -14.9692  -47.1675 O.2       5 UNK        -0.5000 
     47 CA          3.3710  -14.8893  -46.1965 C.3       5 UNK         0.1400 
     48 CB          3.9196  -14.8134  -47.6336 C.3       5 UNK        -0.1800 
     49 N           3.7421  -13.6823  -45.4683 N.am      5 UNK        -0.5000 
     50 C           4.7221  -13.5964  -44.5631 C.2       4 UNK         0.5000 
     51 O           5.4851  -14.5243  -44.2911 O.2       4 UNK        -0.5000 
     52 CA          4.8786  -12.2525  -43.8231 C.3       4 UNK         0.1400 
     53 CB          6.0467  -11.4482  -44.4147 C.3       4 UNK        -0.1800 
     54 N           3.6777  -11.4110  -43.8276 N.am      4 UNK        -0.5000 
     55 C           2.5122  -11.7101  -43.2373 C.2       3 UNK         0.5000 
     56 O           2.2995  -12.7713  -42.6491 O.2       3 UNK        -0.5000 
     57 CA          1.3958  -10.6468  -43.2901 C.3       3 UNK         0.1400 
     58 CB          1.8429   -9.2786  -43.8558 C.3       3 UNK        -0.1800 
     59 N           0.2002  -11.1261  -43.9899 N.am      3 UNK        -0.5000 
     60 C           0.1049  -11.5030  -45.2729 C.2       2 UNK         0.5000 
     61 O           1.0616  -11.5556  -46.0510 O.2       2 UNK        -0.5000 
     62 CA         -1.3154  -11.8460  -45.7605 C.3       2 UNK         0.1400 
     63 CB         -2.2514  -10.6278  -45.6507 C.3       2 UNK        -0.1800 
     64 N          -1.2968  -12.2792  -47.1567 N.am      2 UNK        -0.5000 
     65 C          -1.9752  -13.3143  -47.6659 C.2       1 UNK         0.5000 
     66 O          -2.5881  -14.1396  -46.9801 O.2       1 UNK        -0.5000 
     67 C           1.5557  -24.7780  -47.0065 C.2       11 UNK         0.5000 
     68 O           1.0468  -25.8088  -46.5586 O.2       11 UNK        -0.5000 
     69 N           2.2763  -24.7301  -48.1382 N.am      12 UNK        -0.5000 
     70 CA          2.5959  -25.8788  -48.9933 C.3       12 UNK         0.1400 
     71 CB          3.5822  -25.4310  -50.0834 C.3       12 UNK        -0.1800 
     72 C           1.3589  -26.5426  -49.6277 C.2       12 UNK         0.5000 
     73 O           1.3175  -27.7684  -49.7419 O.2       12 UNK        -0.5000 
     74 N           0.3715  -25.7205  -49.9968 N.am      13 UNK        -0.5000 
     75 CA         -0.9771  -26.1406  -50.3625 C.3       13 UNK         0.1400 
     76 CB         -1.3921  -25.4220  -51.6548 C.3       13 UNK        -0.1800 
     77 C          -1.9182  -25.7632  -49.2096 C.2       13 UNK         0.5000 
     78 O          -1.6471  -24.7848  -48.5083 O.2       13 UNK        -0.5000 
     79 N          -3.0112  -26.5219  -49.0508 N.am      14 UNK        -0.5000 
     80 CA         -4.0137  -26.3864  -47.9878 C.3       14 UNK         0.1400 
     81 CB         -5.1227  -27.4268  -48.2123 C.3       14 UNK        -0.1800 
     82 C          -4.5998  -24.9648  -47.9012 C.2       14 UNK         0.5000 
     83 O          -5.3596  -24.5651  -48.7856 O.2       14 UNK        -0.5000 
     84 N          -4.1718  -24.2125  -46.8773 N.am      15 UNK        -0.5000 
     85 CA         -4.4600  -22.7917  -46.6443 C.3       15 UNK         0.1400 
     86 CB         -5.9295  -22.6035  -46.2140 C.3       15 UNK        -0.1800 
     87 C          -4.0664  -21.8953  -47.8400 C.2       15 UNK         0.5000 
     88 O          -4.8192  -20.9943  -48.2086 O.2       15 UNK        -0.5000 
     89 N          -2.9243  -22.2115  -48.4689 N.am      16 UNK        -0.5000 
     90 CA         -2.4030  -21.6183  -49.7037 C.3       16 UNK         0.1400 
     91 CB         -2.0189  -20.1394  -49.4994 C.3       16 UNK        -0.1800 
     92 C          -3.3586  -21.8365  -50.8940 C.2       16 UNK         0.5000 
     93 O          -3.6027  -20.9104  -51.6696 O.2       16 UNK        -0.5000 
     94 N          -3.8910  -23.0630  -50.9972 N.am      17 UNK        -0.5000 
     95 CA         -4.9006  -23.5205  -51.9583 C.3       17 UNK         0.1400 
     96 CB         -4.3544  -23.4991  -53.4017 C.3       17 UNK        -0.1800 
     97 C          -6.2306  -22.7587  -51.7931 C.2       17 UNK         0.5000 
     98 O          -6.7947  -22.2718  -52.7730 O.2       17 UNK        -0.5000 
     99 N          -6.6861  -22.6635  -50.5353 N.am      18 UNK        -0.5000 
    100 CA        -7.8534  -21.9087  -50.0695 C.3       18 UNK         0.1400 
    101 CB        -9.1603  -22.5449  -50.5873 C.3       18 UNK        -0.1800 
    102 C         -7.7363  -20.4024  -50.3866 C.2       18 UNK         0.5000 
    103 O         -8.6394  -19.8184  -50.9889 O.2       18 UNK        -0.5000 
    104 N         -6.6076  -19.8146  -49.9648 N.am      19 UNK        -0.5000 
    105 CA        -6.2157  -18.4121  -50.1102 C.3       19 UNK         0.1400 
    106 CB        -7.1242  -17.5080  -49.2522 C.3       19 UNK        -0.1800 
    107 C         -6.1099  -17.9650  -51.5829 C.2       19 UNK         0.5000 
    108 O         -6.6237  -16.9070  -51.9499 O.2       19 UNK        -0.5000 
    109 N         -5.4295  -18.7810  -52.3967 N.am      20 UNK        -0.5000 
    110 CA        -5.1728  -18.5399  -53.8185 C.3       20 UNK         0.1400 
    111 CB        -5.8455  -19.6519  -54.6402 C.3       20 UNK        -0.1800 
    112 C         -3.6615  -18.4560  -54.1099 C.2       20 UNK         0.5000 
    113 O         -3.2556  -18.6149  -55.2625 O.2       20 UNK        -0.5000 
    114 N         -2.8498  -18.2397  -53.0623 N.am      21 UNK        -0.5000 
    115 CA        -1.3840  -18.1556  -53.0724 C.3       21 UNK         0.1400 
    116 CB        -0.9244  -16.8438  -53.7400 C.3       21 UNK        -0.1800 
    117 C         -0.7040  -19.4103  -53.6669 C.2       21 UNK         0.5000 
    118 O          0.3041  -19.2982  -54.3659 O.2       21 UNK        -0.5000 
    119 N         -1.2940  -20.5790  -53.3868 N.am      22 UNK        -0.5000 
    120 CA        -0.9337  -21.9032  -53.9221 C.3       22 UNK         0.1400 
    121 C         -1.2769  -22.1057  -55.4307 C.2       22 UNK         0.5000 
    122 N         -2.0101  -21.2108  -56.0838 N.am      22 UNK        -0.7600 
    123 O         -0.9008  -23.1154  -56.0194 O.2       22 UNK        -0.5000 
    124 C124        0.5129  -22.3627  -53.5779 C.3       23 UNK        -0.0398 
    125 S125        0.8685  -22.3447  -51.7853 S.3       23 UNK        -0.2404 
    126 C126        2.1663  -21.0709  -51.6541 C.3       23 UNK        -0.0205 
    127 H127       -5.4644  -14.8906  -50.5554 H         1 UNK         0.0600 
    128 H128       -6.1659  -13.3187  -50.9387 H         1 UNK         0.0600 
    129 H129       -6.4085  -14.0241  -49.3367 H         1 UNK         0.0600 
    130 H130       -3.2990  -14.8555  -50.0042 H         1 UNK         0.3000 
    131 H131       -1.9012  -12.3851  -49.5823 H         1 UNK         0.0600 
    132 H132        0.1191  -13.8591  -49.3712 H         1 UNK         0.0800 
    133 H133       -0.7430  -13.9750  -50.8732 H         1 UNK         0.0800 
    134 H134        0.8937  -16.2394  -51.2114 H         1 UNK         0.0800 
    135 H135        1.4793  -15.7874  -49.6325 H         1 UNK         0.0800 
    136 H136        1.4188  -18.4542  -51.8734 H         1 UNK         0.1150 
    137 H137        2.2727  -21.4845  -48.9771 H         1 UNK         0.1150 
    138 H138        0.9428  -17.6131  -47.6991 H         1 UNK         0.1150 
    139 H139        2.5477  -20.6838  -46.5701 H         1 UNK         0.0800 
    140 H140        1.8238  -19.1804  -46.0865 H         1 UNK         0.0800 
    141 H141        0.4717  -22.4512  -48.0177 H         1 UNK         0.0800 
    142 H142       -0.6693  -23.0323  -46.8469 H         1 UNK         0.0800 
    143 H143        2.3420  -22.9218  -46.3248 H         1 UNK         0.0600 
    144 H144        0.1754  -23.2585  -44.5419 H         1 UNK         0.3000 
    145 H145        0.4048  -24.5687  -42.4508 H         1 UNK         0.0600 
    146 H146        2.4872  -25.7126  -41.7023 H         1 UNK         0.0600 
    147 H147        3.2452  -24.1583  -41.3745 H         1 UNK         0.0600 
    148 H148        1.8439  -24.6775  -40.4384 H         1 UNK         0.0600 
    149 H149        1.8098  -22.2038  -41.4794 H         1 UNK         0.3000 
    150 H150        0.1006  -20.3765  -40.9005 H         1 UNK         0.0600 
    151 H151        1.3552  -18.6339  -42.2354 H         1 UNK         0.0600 
    152 H152        1.4334  -19.7540  -43.5917 H         1 UNK         0.0600 
    153 H153        2.2578  -20.1292  -42.0847 H         1 UNK         0.0600 
    154 H154       -0.9358  -19.0456  -43.2587 H         1 UNK         0.3000 
    155 H155       -4.2829  -19.5470  -42.7561 H         1 UNK         0.0600 
    156 H156       -3.0907  -17.1087  -41.3267 H         1 UNK         0.0600 
    157 H157       -4.2316  -18.2503  -40.6264 H         1 UNK         0.0600 
    158 H158       -4.7317  -17.2294  -41.9636 H         1 UNK         0.0600 
    159 H159       -2.8000  -17.2533  -43.7456 H         1 UNK         0.3000 
    160 H160       -1.7603  -18.5690  -46.7512 H         1 UNK         0.0600 
    161 H161       -4.1850  -18.4651  -47.4251 H         1 UNK         0.0600 
    162 H162       -3.2777  -17.0789  -48.0079 H         1 UNK         0.0600 
    163 H163       -4.3394  -16.9142  -46.6106 H         1 UNK         0.0600 
    164 H164       -2.1783  -15.8600  -46.1023 H         1 UNK         0.3000 
    165 H165       -0.6426  -14.5586  -45.2876 H         1 UNK         0.0600 
    166 H166        0.0861  -15.7057  -42.5420 H         1 UNK         0.0600 
    167 H167       -1.5030  -15.1048  -43.0018 H         1 UNK         0.0600 
    168 H168       -0.1416  -13.9996  -42.9244 H         1 UNK         0.0600 
    169 H169        1.9095  -15.1549  -44.1071 H         1 UNK         0.3000 
    170 H170        3.7862  -15.7773  -45.7155 H         1 UNK         0.0600 
    171 H171        5.0072  -14.7416  -47.6358 H         1 UNK         0.0600 
    172 H172        3.6509  -15.7059  -48.2004 H         1 UNK         0.0600 
    173 H173        3.5254  -13.9494  -48.1700 H         1 UNK         0.0600 
    174 H174        3.1339  -12.8836  -45.6026 H         1 UNK         0.3000 
    175 H175        5.1162  -12.4842  -42.7828 H         1 UNK         0.0600 
    176 H176        5.8550  -11.1647  -45.4504 H         1 UNK         0.0600 
    177 H177        6.2290  -10.5374  -43.8440 H         1 UNK         0.0600 
    178 H178        6.9700  -12.0290  -44.3990 H         1 UNK         0.0600 
    179 H179        3.7553  -10.5238  -44.3032 H         1 UNK         0.3000 
    180 H180        1.0957  -10.4832  -42.2541 H         1 UNK         0.0600 
    181 H181        1.0316   -8.5528  -43.7981 H         1 UNK         0.0600 
    182 H182        2.1517   -9.3404  -44.8998 H         1 UNK         0.0600 
    183 H183        2.6761   -8.8682  -43.2839 H         1 UNK         0.0600 
    184 H184       -0.6373  -11.1484  -43.4255 H         1 UNK         0.3000 
    185 H185       -1.7090  -12.6331  -45.1166 H         1 UNK         0.0600 
    186 H186       -1.8773   -9.7811  -46.2278 H         1 UNK         0.0600 
    187 H187       -3.2497  -10.8658  -46.0191 H         1 UNK         0.0600 
    188 H188       -2.3635  -10.2982  -44.6174 H         1 UNK         0.0600 
    189 H189       -0.7306  -11.7057  -47.7668 H         1 UNK         0.3000 
    190 H190        2.6742  -23.8492  -48.4273 H         1 UNK         0.3000 
    191 H191        3.0897  -26.6284  -48.3714 H         1 UNK         0.0600 
    192 H192        3.1554  -24.6534  -50.7188 H         1 UNK         0.0600 
    193 H193        3.8572  -26.2667  -50.7283 H         1 UNK         0.0600 
    194 H194        4.5030  -25.0421  -49.6484 H         1 UNK         0.0600 
    195 H195        0.4792  -24.7355  -49.8040 H         1 UNK         0.3000 
    196 H196       -1.0226  -27.2195  -50.5241 H         1 UNK         0.0600 
    197 H197       -0.7097  -25.6566  -52.4719 H         1 UNK         0.0600 
    198 H198       -1.3998  -24.3396  -51.5304 H         1 UNK         0.0600 
    199 H199       -2.3912  -25.7272  -51.9670 H         1 UNK         0.0600 
    200 H200       -3.1631  -27.2842  -49.6952 H         1 UNK         0.3000 
    201 H201       -3.5223  -26.6193  -47.0410 H         1 UNK         0.0600 
    202 H202       -4.7255  -28.4415  -48.1798 H         1 UNK         0.0600 
    203 H203       -5.6157  -27.2898  -49.1757 H         1 UNK         0.0600 
    204 H204       -5.8886  -27.3540  -47.4390 H         1 UNK         0.0600 
    205 H205       -3.5113  -24.6258  -46.2339 H         1 UNK         0.3000 
    206 H206       -3.8271  -22.4857  -45.8109 H         1 UNK         0.0600 
    207 H207       -6.1255  -21.5658  -45.9408 H         1 UNK         0.0600 
    208 H208       -6.6228  -22.8707  -47.0114 H         1 UNK         0.0600 
    209 H209       -6.1662  -23.2166  -45.3447 H         1 UNK         0.0600 
    210 H210       -2.4231  -23.0344  -48.1475 H         1 UNK         0.3000 
    211 H211       -1.4889  -22.1640  -49.9380 H         1 UNK         0.0600 
    212 H212       -2.8915  -19.5036  -49.3536 H         1 UNK         0.0600 
    213 H213       -1.4742  -19.7594  -50.3627 H         1 UNK         0.0600 
    214 H214       -1.3668  -20.0189  -48.6363 H         1 UNK         0.0600 
    215 H215       -3.6919  -23.7148  -50.2517 H         1 UNK         0.3000 
    216 H216       -5.1150  -24.5603  -51.7070 H         1 UNK         0.0600 
    217 H217       -5.0884  -23.8996  -54.1016 H         1 UNK         0.0600 
    218 H218       -3.4588  -24.1118  -53.4946 H         1 UNK         0.0600 
    219 H219       -4.1086  -22.4908  -53.7328 H         1 UNK         0.0600 
    220 H220       -6.1591  -23.1477  -49.8128 H         1 UNK         0.3000 
    221 H221       -7.8581  -21.9925  -48.9821 H         1 UNK         0.0600 
    222 H222       -9.2486  -22.4709  -51.6715 H         1 UNK         0.0600 
    223 H223       -9.2181  -23.5993  -50.3174 H         1 UNK         0.0600 
    224 H224      -10.0310  -22.0509  -50.1548 H         1 UNK         0.0600 
    225 H225       -5.9413  -20.3829  -49.4416 H         1 UNK         0.3000 
    226 H226       -5.2070  -18.3400  -49.7022 H         1 UNK         0.0600 
    227 H227       -7.1561  -17.8521  -48.2184 H         1 UNK         0.0600 
    228 H228       -6.7553  -16.4835  -49.2373 H         1 UNK         0.0600 
    229 H229       -8.1466  -17.4830  -49.6302 H         1 UNK         0.0600 
    230 H230       -5.0181  -19.6317  -52.0198 H         1 UNK         0.3000 
    231 H231       -5.6000  -17.5850  -54.1297 H         1 UNK         0.0600 
    232 H232       -5.3853  -20.6213  -54.4505 H         1 UNK         0.0600 
    233 H233       -6.9058  -19.7335  -54.4000 H         1 UNK         0.0600 
    234 H234       -5.7688  -19.4548  -55.7100 H         1 UNK         0.0600 
    235 H235       -3.2852  -18.1683  -52.1546 H         1 UNK         0.3000 
    236 H236       -1.0793  -18.1119  -52.0274 H         1 UNK         0.0600 
    237 H237       -1.1779  -16.8199  -54.8002 H         1 UNK         0.0600 
    238 H238       -1.3855  -15.9787  -53.2634 H         1 UNK         0.0600 
    239 H239        0.1558  -16.7189  -53.6580 H         1 UNK         0.0600 
    240 H240       -2.1395  -20.5589  -52.8236 H         1 UNK         0.3000 
    241 H241       -1.6001  -22.5921  -53.4059 H         1 UNK         0.0600 
    242 H242       -2.2273  -21.3723  -57.0541 H         1 UNK         0.3800 
    243 H243       -2.3307  -20.3569  -55.6403 H         1 UNK         0.3800 
    244 H244        0.6654  -23.3907  -53.9105 H         1 UNK         0.0800 
    245 H245        1.2453  -21.7699  -54.1256 H         1 UNK         0.0800 
    246 H246        3.1223  -21.5556  -51.4521 H         1 UNK         0.0800 
    247 H247        2.2878  -20.5387  -52.5980 H         1 UNK         0.0800 
@<TRIPOS>BOND
     1    1    2 1    
     2    1  127 1    
     3    1  128 1    
     4    1  129 1    
     5    2    3 2    
     6    2    4 am   BACKBONE|DICT|INTERRES
     7    4    5 1    
     8    4  130 1    
     9    5    6 1    
    10    5   65 1    
    11    5  131 1    
    12    6    7 1    
    13    6  132 1    
    14    6  133 1    
    15    7    8 1    
    16    8    9 1    
    17    8  134 1    
    18    8  135 1    
    19    9   10 ar   
    20    9   14 ar   
    21   10   11 ar   
    22   10  136 1    
    23   11   12 ar   
    24   11  126 1    
    25   12   13 ar   
    26   12  137 1    
    27   13   14 ar   
    28   13   15 1    
    29   14  138 1    
    30   15   16 1    
    31   15  139 1    
    32   15  140 1    
    33   16   17 1    
    34   17   18 1    
    35   17  141 1    
    36   17  142 1    
    37   18   19 1    
    38   18   67 1    
    39   18  143 1    
    40   19   20 am   BACKBONE|DICT|INTERRES
    41   19  144 1    
    42   20   21 2    
    43   20   22 1    
    44   22   23 1    
    45   22   24 1    
    46   22  145 1    
    47   23  146 1    
    48   23  147 1    
    49   23  148 1    
    50   24   25 am   BACKBONE|DICT|INTERRES
    51   24  149 1    
    52   25   26 2    
    53   25   27 1    
    54   27   28 1    
    55   27   29 1    
    56   27  150 1    
    57   28  151 1    
    58   28  152 1    
    59   28  153 1    
    60   29   30 am   BACKBONE|DICT|INTERRES
    61   29  154 1    
    62   30   31 2    
    63   30   32 1    
    64   32   33 1    
    65   32   34 1    
    66   32  155 1    
    67   33  156 1    
    68   33  157 1    
    69   33  158 1    
    70   34   35 am   BACKBONE|DICT|INTERRES
    71   34  159 1    
    72   35   36 2    
    73   35   37 1    
    74   37   38 1    
    75   37   39 1    
    76   37  160 1    
    77   38  161 1    
    78   38  162 1    
    79   38  163 1    
    80   39   40 am   BACKBONE|DICT|INTERRES
    81   39  164 1    
    82   40   41 2    
    83   40   42 1    
    84   42   43 1    
    85   42   44 1    
    86   42  165 1    
    87   43  166 1    
    88   43  167 1    
    89   43  168 1    
    90   44   45 am   BACKBONE|DICT|INTERRES
    91   44  169 1    
    92   45   46 2    
    93   45   47 1    
    94   47   48 1    
    95   47   49 1    
    96   47  170 1    
    97   48  171 1    
    98   48  172 1    
    99   48  173 1    
   100   49   50 am   BACKBONE|DICT|INTERRES
   101   49  174 1    
   102   50   51 2    
   103   50   52 1    
   104   52   53 1    
   105   52   54 1    
   106   52  175 1    
   107   53  176 1    
   108   53  177 1    
   109   53  178 1    
   110   54   55 am   BACKBONE|DICT|INTERRES
   111   54  179 1    
   112   55   56 2    
   113   55   57 1    
   114   57   58 1    
   115   57   59 1    
   116   57  180 1    
   117   58  181 1    
   118   58  182 1    
   119   58  183 1    
   120   59   60 am   BACKBONE|DICT|INTERRES
   121   59  184 1    
   122   60   61 2    
   123   60   62 1    
   124   62   63 1    
   125   62   64 1    
   126   62  185 1    
   127   63  186 1    
   128   63  187 1    
   129   63  188 1    
   130   64   65 am   BACKBONE|DICT|INTERRES
   131   64  189 1    
   132   65   66 2    
   133   67   68 2    
   134   67   69 am   BACKBONE|DICT|INTERRES
   135   69   70 1    
   136   69  190 1    
   137   70   71 1    
   138   70   72 1    
   139   70  191 1    
   140   71  192 1    
   141   71  193 1    
   142   71  194 1    
   143   72   73 2    
   144   72   74 am   BACKBONE|DICT|INTERRES
   145   74   75 1    
   146   74  195 1    
   147   75   76 1    
   148   75   77 1    
   149   75  196 1    
   150   76  197 1    
   151   76  198 1    
   152   76  199 1    
   153   77   78 2    
   154   77   79 am   BACKBONE|DICT|INTERRES
   155   79   80 1    
   156   79  200 1    
   157   80   81 1    
   158   80   82 1    
   159   80  201 1    
   160   81  202 1    
   161   81  203 1    
   162   81  204 1    
   163   82   83 2    
   164   82   84 am   BACKBONE|DICT|INTERRES
   165   84   85 1    
   166   84  205 1    
   167   85   86 1    
   168   85   87 1    
   169   85  206 1    
   170   86  207 1    
   171   86  208 1    
   172   86  209 1    
   173   87   88 2    
   174   87   89 am   BACKBONE|DICT|INTERRES
   175   89   90 1    
   176   89  210 1    
   177   90   91 1    
   178   90   92 1    
   179   90  211 1    
   180   91  212 1    
   181   91  213 1    
   182   91  214 1    
   183   92   93 2    
   184   92   94 am   BACKBONE|DICT|INTERRES
   185   94   95 1    
   186   94  215 1    
   187   95   96 1    
   188   95   97 1    
   189   95  216 1    
   190   96  217 1    
   191   96  218 1    
   192   96  219 1    
   193   97   98 2    
   194   97   99 am   BACKBONE|DICT|INTERRES
   195   99  100 1    
   196   99  220 1    
   197  100  101 1    
   198  100  102 1    
   199  100  221 1    
   200  101  222 1    
   201  101  223 1    
   202  101  224 1    
   203  102  103 2    
   204  102  104 am   BACKBONE|DICT|INTERRES
   205  104  105 1    
   206  104  225 1    
   207  105  106 1    
   208  105  107 1    
   209  105  226 1    
   210  106  227 1    
   211  106  228 1    
   212  106  229 1    
   213  107  108 2    
   214  107  109 am   BACKBONE|DICT|INTERRES
   215  109  110 1    
   216  109  230 1    
   217  110  111 1    
   218  110  112 1    
   219  110  231 1    
   220  111  232 1    
   221  111  233 1    
   222  111  234 1    
   223  112  113 2    
   224  112  114 am   BACKBONE|DICT|INTERRES
   225  114  115 1    
   226  114  235 1    
   227  115  116 1    
   228  115  117 1    
   229  115  236 1    
   230  116  237 1    
   231  116  238 1    
   232  116  239 1    
   233  117  118 2    
   234  117  119 am   BACKBONE|DICT|INTERRES
   235  119  120 1    
   236  119  240 1    
   237  120  121 1    
   238  120  124 1    
   239  120  241 1    
   240  121  122 am   BACKBONE|DICT|INTERRES
   241  121  123 2    
   242  122  242 1    
   243  122  243 1    
   244  124  125 1    
   245  124  244 1    
   246  124  245 1    
   247  125  126 1    
   248  126  246 1    
   249  126  247 1    
@<TRIPOS>SUBSTRUCTURE
     1 UNK         1 GROUP             0       ****    0 ROOT    
