@<TRIPOS>MOLECULE
3R540
247   249    1
SMALL
USER_CHARGES


@<TRIPOS>ATOM
      1 CA          6.1329  -13.0314  -50.2868 C.3       0 UNK        -0.1800 
      2 C           4.7012  -13.2150  -50.7892 C.2       0 UNK         0.5000 
      3 O           4.0934  -12.2430  -51.2337 O.2       0 UNK        -0.5000 
      4 N           4.1235  -14.4245  -50.7630 N.am      1 UNK        -0.5000 
      5 CA          4.6653  -15.6734  -50.2112 C.3       1 UNK         0.1400 
      6 C6          3.7431  -16.8767  -50.5300 C.3       23 UNK        -0.0398 
      7 S7          3.5345  -17.1592  -52.3199 S.3       23 UNK        -0.2404 
      8 C8          2.2681  -18.4711  -52.3336 C.3       23 UNK        -0.0205 
      9 C9          0.9295  -17.9779  -51.8044 C.ar      23 UNK        -0.0193 
     10 C10         0.1374  -17.1297  -52.5827 C.ar      23 UNK        -0.1150 
     11 C11        -1.0855  -16.6514  -52.1003 C.ar      23 UNK        -0.0193 
     12 C12        -1.5049  -17.0226  -50.8179 C.ar      23 UNK        -0.1150 
     13 C13        -0.7145  -17.8601  -50.0242 C.ar      23 UNK        -0.0193 
     14 C14         0.4929  -18.3490  -50.5297 C.ar      23 UNK        -0.1150 
     15 C15        -1.1204  -18.1737  -48.5934 C.3       23 UNK        -0.0205 
     16 S16        -2.2010  -19.6255  -48.4834 S.3       23 UNK        -0.2404 
     17 C17        -2.2169  -19.8819  -46.6750 C.3       23 UNK        -0.0398 
     18 CA         -1.3540  -21.0964  -46.2589 C.3       11 UNK         0.1400 
     19 N          -0.8453  -20.9734  -44.8891 N.am      11 UNK        -0.5000 
     20 C           0.0160  -21.8227  -44.3084 C.2       10 UNK         0.5000 
     21 O           0.5042  -22.7983  -44.8779 O.2       10 UNK        -0.5000 
     22 CA          0.3321  -21.5735  -42.8262 C.3       10 UNK         0.1400 
     23 CB          1.3889  -20.4700  -42.6657 C.3       10 UNK        -0.1800 
     24 N          -0.8857  -21.2201  -42.0958 N.am      10 UNK        -0.5000 
     25 C          -1.8155  -22.1131  -41.7238 C.2       9 UNK         0.5000 
     26 O          -1.6821  -23.3292  -41.8602 O.2       9 UNK        -0.5000 
     27 CA         -3.1263  -21.5616  -41.1280 C.3       9 UNK         0.1400 
     28 CB         -3.0091  -21.4305  -39.6022 C.3       9 UNK        -0.1800 
     29 N          -3.5181  -20.2679  -41.6900 N.am      9 UNK        -0.5000 
     30 C          -3.8882  -20.0618  -42.9624 C.2       8 UNK         0.5000 
     31 O          -3.9977  -20.9604  -43.7943 O.2       8 UNK        -0.5000 
     32 CA         -4.1116  -18.5980  -43.3954 C.3       8 UNK         0.1400 
     33 CB         -5.5884  -18.2098  -43.2361 C.3       8 UNK        -0.1800 
     34 N          -3.2732  -17.6403  -42.6655 N.am      8 UNK        -0.5000 
     35 C          -1.9335  -17.6562  -42.6560 C.2       7 UNK         0.5000 
     36 O          -1.2619  -18.4663  -43.2981 O.2       7 UNK        -0.5000 
     37 CA         -1.2525  -16.6903  -41.6787 C.3       7 UNK         0.1400 
     38 CB         -1.3635  -17.2709  -40.2504 C.3       7 UNK        -0.1800 
     39 N           0.1511  -16.4968  -42.0460 N.am      7 UNK        -0.5000 
     40 C           0.9840  -15.6305  -41.4516 C.2       6 UNK         0.5000 
     41 O           0.6268  -14.8295  -40.5860 O.2       6 UNK        -0.5000 
     42 CA          2.4679  -15.6696  -41.8625 C.3       6 UNK         0.1400 
     43 CB          3.0200  -17.1040  -41.9417 C.3       6 UNK        -0.1800 
     44 N           2.7088  -14.9734  -43.1226 N.am      6 UNK        -0.5000 
     45 C           2.6707  -13.6443  -43.2953 C.2       5 UNK         0.5000 
     46 O           2.4780  -12.8375  -42.3852 O.2       5 UNK        -0.5000 
     47 CA          2.8834  -13.1211  -44.7304 C.3       5 UNK         0.1400 
     48 CB          4.3723  -12.8576  -45.0025 C.3       5 UNK        -0.1800 
     49 N           2.3650  -14.0323  -45.7491 N.am      5 UNK        -0.5000 
     50 C           1.0668  -14.3071  -45.9378 C.2       4 UNK         0.5000 
     51 O           0.1491  -13.7571  -45.3283 O.2       4 UNK        -0.5000 
     52 CA          0.7490  -15.4084  -46.9622 C.3       4 UNK         0.1400 
     53 CB          0.7245  -14.8295  -48.3867 C.3       4 UNK        -0.1800 
     54 N           1.7086  -16.5133  -46.8878 N.am      4 UNK        -0.5000 
     55 C           1.7811  -17.3821  -45.8681 C.2       3 UNK         0.5000 
     56 O           1.0246  -17.3629  -44.9001 O.2       3 UNK        -0.5000 
     57 CA          2.9100  -18.4280  -45.9197 C.3       3 UNK         0.1400 
     58 CB          2.4701  -19.6567  -46.7244 C.3       3 UNK        -0.1800 
     59 N           4.1489  -17.8985  -46.4883 N.am      3 UNK        -0.5000 
     60 C           4.9152  -16.9696  -45.8992 C.2       2 UNK         0.5000 
     61 O           4.6800  -16.4951  -44.7896 O.2       2 UNK        -0.5000 
     62 CA          6.1097  -16.4411  -46.7170 C.3       2 UNK         0.1400 
     63 CB          7.3489  -17.3205  -46.4950 C.3       2 UNK        -0.1800 
     64 N           5.8272  -16.3484  -48.1543 N.am      2 UNK        -0.5000 
     65 C           4.8662  -15.5796  -48.6841 C.2       1 UNK         0.5000 
     66 O           4.1232  -14.8647  -48.0080 O.2       1 UNK        -0.5000 
     67 C          -2.0921  -22.4293  -46.5061 C.2       11 UNK         0.5000 
     68 O          -1.9512  -23.0029  -47.5847 O.2       11 UNK        -0.5000 
     69 N          -2.8294  -22.9237  -45.5022 N.am      12 UNK        -0.5000 
     70 CA         -3.5144  -24.2190  -45.5121 C.3       12 UNK         0.1400 
     71 CB         -4.3289  -24.3761  -44.2195 C.3       12 UNK        -0.1800 
     72 C          -2.5689  -25.4177  -45.7052 C.2       12 UNK         0.5000 
     73 O          -2.9477  -26.3815  -46.3706 O.2       12 UNK        -0.5000 
     74 N          -1.3556  -25.3274  -45.1481 N.am      13 UNK        -0.5000 
     75 CA         -0.3032  -26.3237  -45.3247 C.3       13 UNK         0.1400 
     76 CB          0.6335  -26.2929  -44.1066 C.3       13 UNK        -0.1800 
     77 C           0.4840  -26.0892  -46.6254 C.2       13 UNK         0.5000 
     78 O           0.7743  -27.0481  -47.3413 O.2       13 UNK        -0.5000 
     79 N           0.8339  -24.8243  -46.8930 N.am      14 UNK        -0.5000 
     80 CA          1.7315  -24.4295  -47.9760 C.3       14 UNK         0.1400 
     81 CB          2.2644  -23.0175  -47.6945 C.3       14 UNK        -0.1800 
     82 C           1.1024  -24.4851  -49.3782 C.2       14 UNK         0.5000 
     83 O           1.7815  -24.9030  -50.3174 O.2       14 UNK        -0.5000 
     84 N          -0.1497  -24.0282  -49.5120 N.am      15 UNK        -0.5000 
     85 CA         -0.7856  -23.7701  -50.8077 C.3       15 UNK         0.1400 
     86 CB         -0.4700  -22.3249  -51.2386 C.3       15 UNK        -0.1800 
     87 C          -2.2980  -24.0661  -50.8115 C.2       15 UNK         0.5000 
     88 O          -2.9922  -23.6404  -51.7345 O.2       15 UNK        -0.5000 
     89 N          -2.7810  -24.7999  -49.7980 N.am      16 UNK        -0.5000 
     90 CA         -4.1717  -25.2207  -49.5916 C.3       16 UNK         0.1400 
     91 CB         -4.6006  -26.2490  -50.6593 C.3       16 UNK        -0.1800 
     92 C          -5.1688  -24.0519  -49.4149 C.2       16 UNK         0.5000 
     93 O          -6.3199  -24.1547  -49.8437 O.2       16 UNK        -0.5000 
     94 N          -4.7107  -22.9816  -48.7464 N.am      17 UNK        -0.5000 
     95 CA         -5.4650  -21.8117  -48.2776 C.3       17 UNK         0.1400 
     96 CB         -6.2750  -22.1616  -47.0104 C.3       17 UNK        -0.1800 
     97 C          -6.3176  -21.1436  -49.3726 C.2       17 UNK         0.5000 
     98 O          -5.7780  -20.3871  -50.1768 O.2       17 UNK        -0.5000 
     99 N          -7.6250  -21.4407  -49.3941 N.am      18 UNK        -0.5000 
    100 CA        -8.6149  -20.9103  -50.3357 C.3       18 UNK         0.1400 
    101 CB       -10.0059  -21.4232  -49.9333 C.3       18 UNK        -0.1800 
    102 C         -8.3277  -21.2338  -51.8155 C.2       18 UNK         0.5000 
    103 O         -8.8077  -20.5130  -52.6910 O.2       18 UNK        -0.5000 
    104 N         -7.5341  -22.2835  -52.0743 N.am      19 UNK        -0.5000 
    105 CA        -7.0163  -22.6172  -53.4024 C.3       19 UNK         0.1400 
    106 CB        -6.3814  -24.0126  -53.3547 C.3       19 UNK        -0.1800 
    107 C         -5.9994  -21.5827  -53.9301 C.2       19 UNK         0.5000 
    108 O         -5.8682  -21.4322  -55.1451 O.2       19 UNK        -0.5000 
    109 N         -5.3237  -20.8708  -53.0194 N.am      20 UNK        -0.5000 
    110 CA        -4.3833  -19.7928  -53.3018 C.3       20 UNK         0.1400 
    111 CB        -3.1201  -20.0003  -52.4517 C.3       20 UNK        -0.1800 
    112 C         -5.0709  -18.4431  -53.0373 C.2       20 UNK         0.5000 
    113 O         -4.6276  -17.6632  -52.1937 O.2       20 UNK        -0.5000 
    114 N         -6.1682  -18.1945  -53.7652 N.am      21 UNK        -0.5000 
    115 CA        -6.8892  -16.9200  -53.7515 C.3       21 UNK         0.1400 
    116 CB        -8.2503  -17.1001  -54.4403 C.3       21 UNK        -0.1800 
    117 C         -6.0807  -15.7906  -54.4206 C.2       21 UNK         0.5000 
    118 O         -6.1463  -14.6462  -53.9708 O.2       21 UNK        -0.5000 
    119 N         -5.3208  -16.1503  -55.4658 N.am      22 UNK        -0.5000 
    120 CA        -4.3649  -15.2994  -56.1988 C.3       22 UNK         0.1400 
    121 C         -4.9994  -14.1060  -56.9797 C.2       22 UNK         0.5000 
    122 N         -6.2983  -14.1117  -57.2533 N.am      22 UNK        -0.7600 
    123 O         -4.3040  -13.1743  -57.3763 O.2       22 UNK        -0.5000 
    124 C124       -3.1491  -14.8705  -55.3284 C.3       23 UNK        -0.0398 
    125 S125       -2.2462  -16.2944  -54.6210 S.3       23 UNK        -0.2404 
    126 C126       -1.9237  -15.6869  -52.9328 C.3       23 UNK        -0.0205 
    127 H127        6.7779  -13.8586  -50.5803 H         1 UNK         0.0600 
    128 H128        6.1462  -12.9412  -49.2006 H         1 UNK         0.0600 
    129 H129        6.5645  -12.1204  -50.7019 H         1 UNK         0.0600 
    130 H130        3.1818  -14.5020  -51.1174 H         1 UNK         0.3000 
    131 H131        5.6359  -15.8563  -50.6755 H         1 UNK         0.0600 
    132 H132        4.1393  -17.7977  -50.0981 H         1 UNK         0.0800 
    133 H133        2.7603  -16.7213  -50.0827 H         1 UNK         0.0800 
    134 H134        2.1392  -18.8270  -53.3568 H         1 UNK         0.0800 
    135 H135        2.6234  -19.3260  -51.7562 H         1 UNK         0.0800 
    136 H136        0.4811  -16.8307  -53.5629 H         1 UNK         0.1150 
    137 H137       -2.4390  -16.6439  -50.4271 H         1 UNK         0.1150 
    138 H138        1.1069  -18.9946  -49.9185 H         1 UNK         0.1150 
    139 H139       -0.2296  -18.3461  -47.9889 H         1 UNK         0.0800 
    140 H140       -1.6298  -17.3143  -48.1555 H         1 UNK         0.0800 
    141 H141       -1.8468  -18.9759  -46.1916 H         1 UNK         0.0800 
    142 H142       -3.2485  -19.9910  -46.3372 H         1 UNK         0.0800 
    143 H143       -0.4702  -21.1114  -46.8985 H         1 UNK         0.0600 
    144 H144       -1.1575  -20.1699  -44.3527 H         1 UNK         0.3000 
    145 H145        0.7426  -22.4948  -42.4072 H         1 UNK         0.0600 
    146 H146        1.6031  -20.2762  -41.6147 H         1 UNK         0.0600 
    147 H147        2.3264  -20.7600  -43.1416 H         1 UNK         0.0600 
    148 H148        1.0728  -19.5327  -43.1212 H         1 UNK         0.0600 
    149 H149       -1.0891  -20.2334  -42.0126 H         1 UNK         0.3000 
    150 H150       -3.9181  -22.2800  -41.3515 H         1 UNK         0.0600 
    151 H151       -2.7389  -22.3848  -39.1479 H         1 UNK         0.0600 
    152 H152       -3.9548  -21.1178  -39.1592 H         1 UNK         0.0600 
    153 H153       -2.2473  -20.7036  -39.3173 H         1 UNK         0.0600 
    154 H154       -3.4646  -19.4715  -41.0734 H         1 UNK         0.3000 
    155 H155       -3.8527  -18.5243  -44.4529 H         1 UNK         0.0600 
    156 H156       -5.7764  -17.2065  -43.6190 H         1 UNK         0.0600 
    157 H157       -5.9020  -18.2360  -42.1918 H         1 UNK         0.0600 
    158 H158       -6.2334  -18.8934  -43.7901 H         1 UNK         0.0600 
    159 H159       -3.7595  -16.9587  -42.1006 H         1 UNK         0.3000 
    160 H160       -1.7641  -15.7273  -41.7307 H         1 UNK         0.0600 
    161 H161       -0.8086  -18.2054  -40.1552 H         1 UNK         0.0600 
    162 H162       -2.4003  -17.4768  -39.9821 H         1 UNK         0.0600 
    163 H163       -0.9821  -16.5812  -39.4983 H         1 UNK         0.0600 
    164 H164        0.4718  -17.0711  -42.8215 H         1 UNK         0.3000 
    165 H165        3.0305  -15.1537  -41.0815 H         1 UNK         0.0600 
    166 H166        2.5953  -17.6615  -42.7741 H         1 UNK         0.0600 
    167 H167        4.1026  -17.0984  -42.0688 H         1 UNK         0.0600 
    168 H168        2.8035  -17.6592  -41.0282 H         1 UNK         0.0600 
    169 H169        2.9389  -15.5528  -43.9200 H         1 UNK         0.3000 
    170 H170        2.3477  -12.1740  -44.8219 H         1 UNK         0.0600 
    171 H171        4.7772  -12.1373  -44.2906 H         1 UNK         0.0600 
    172 H172        4.9644  -13.7690  -44.9194 H         1 UNK         0.0600 
    173 H173        4.5251  -12.4500  -46.0022 H         1 UNK         0.0600 
    174 H174        3.0466  -14.4847  -46.3499 H         1 UNK         0.3000 
    175 H175       -0.2430  -15.8039  -46.7347 H         1 UNK         0.0600 
    176 H176       -0.0830  -14.1046  -48.4939 H         1 UNK         0.0600 
    177 H177        1.6532  -14.3172  -48.6373 H         1 UNK         0.0600 
    178 H178        0.5648  -15.6041  -49.1337 H         1 UNK         0.0600 
    179 H179        2.4160  -16.5447  -47.6049 H         1 UNK         0.3000 
    180 H180        3.1156  -18.7493  -44.8967 H         1 UNK         0.0600 
    181 H181        2.2529  -19.4088  -47.7636 H         1 UNK         0.0600 
    182 H182        1.5715  -20.0957  -46.2937 H         1 UNK         0.0600 
    183 H183        3.2421  -20.4259  -46.7153 H         1 UNK         0.0600 
    184 H184        4.4276  -18.2514  -47.3910 H         1 UNK         0.3000 
    185 H185        6.3357  -15.4355  -46.3560 H         1 UNK         0.0600 
    186 H186        7.5922  -17.3906  -45.4339 H         1 UNK         0.0600 
    187 H187        7.1959  -18.3352  -46.8645 H         1 UNK         0.0600 
    188 H188        8.2219  -16.9066  -46.9999 H         1 UNK         0.0600 
    189 H189        6.4057  -16.9121  -48.7612 H         1 UNK         0.3000 
    190 H190       -2.9804  -22.3403  -44.6844 H         1 UNK         0.3000 
    191 H191       -4.2101  -24.2252  -46.3507 H         1 UNK         0.0600 
    192 H192       -4.8874  -25.3129  -44.2216 H         1 UNK         0.0600 
    193 H193       -5.0514  -23.5683  -44.1033 H         1 UNK         0.0600 
    194 H194       -3.6875  -24.3791  -43.3383 H         1 UNK         0.0600 
    195 H195       -1.1090  -24.4854  -44.6454 H         1 UNK         0.3000 
    196 H196       -0.7505  -27.3189  -45.3753 H         1 UNK         0.0600 
    197 H197        1.4211  -27.0414  -44.2017 H         1 UNK         0.0600 
    198 H198        0.0891  -26.5086  -43.1870 H         1 UNK         0.0600 
    199 H199        1.1160  -25.3221  -43.9882 H         1 UNK         0.0600 
    200 H200        0.5875  -24.0989  -46.2245 H         1 UNK         0.3000 
    201 H201        2.5842  -25.1121  -47.9709 H         1 UNK         0.0600 
    202 H202        2.7743  -22.9725  -46.7319 H         1 UNK         0.0600 
    203 H203        1.4593  -22.2831  -47.6824 H         1 UNK         0.0600 
    204 H204        2.9796  -22.7076  -48.4575 H         1 UNK         0.0600 
    205 H205       -0.6564  -23.6925  -48.6951 H         1 UNK         0.3000 
    206 H206       -0.3640  -24.4435  -51.5564 H         1 UNK         0.0600 
    207 H207        0.5981  -22.1140  -51.1859 H         1 UNK         0.0600 
    208 H208       -0.7740  -22.1527  -52.2705 H         1 UNK         0.0600 
    209 H209       -0.9854  -21.5975  -50.6101 H         1 UNK         0.0600 
    210 H210       -2.1296  -25.0835  -49.0799 H         1 UNK         0.3000 
    211 H211       -4.1840  -25.7437  -48.6357 H         1 UNK         0.0600 
    212 H212       -4.5818  -25.8306  -51.6641 H         1 UNK         0.0600 
    213 H213       -5.6111  -26.6149  -50.4742 H         1 UNK         0.0600 
    214 H214       -3.9399  -27.1158  -50.6511 H         1 UNK         0.0600 
    215 H215       -3.7259  -22.9860  -48.4997 H         1 UNK         0.3000 
    216 H216       -4.7264  -21.0660  -47.9872 H         1 UNK         0.0600 
    217 H217       -5.6140  -22.3484  -46.1664 H         1 UNK         0.0600 
    218 H218       -6.9229  -21.3361  -46.7121 H         1 UNK         0.0600 
    219 H219       -6.8997  -23.0447  -47.1483 H         1 UNK         0.0600 
    220 H220       -7.9656  -22.1132  -48.7226 H         1 UNK         0.3000 
    221 H221       -8.6087  -19.8228  -50.2384 H         1 UNK         0.0600 
    222 H222      -10.0615  -22.5115  -49.9825 H         1 UNK         0.0600 
    223 H223      -10.2618  -21.1181  -48.9185 H         1 UNK         0.0600 
    224 H224      -10.7767  -21.0248  -50.5946 H         1 UNK         0.0600 
    225 H225       -7.1874  -22.8349  -51.2963 H         1 UNK         0.3000 
    226 H226       -7.8567  -22.6459  -54.0990 H         1 UNK         0.0600 
    227 H227       -5.5125  -24.0216  -52.6979 H         1 UNK         0.0600 
    228 H228       -7.0865  -24.7610  -52.9928 H         1 UNK         0.0600 
    229 H229       -6.0480  -24.3258  -54.3447 H         1 UNK         0.0600 
    230 H230       -5.5435  -20.9925  -52.0353 H         1 UNK         0.3000 
    231 H231       -4.0823  -19.8080  -54.3511 H         1 UNK         0.0600 
    232 H232       -2.3693  -19.2411  -52.6720 H         1 UNK         0.0600 
    233 H233       -2.6753  -20.9706  -52.6621 H         1 UNK         0.0600 
    234 H234       -3.3339  -19.9550  -51.3834 H         1 UNK         0.0600 
    235 H235       -6.4993  -18.9040  -54.4035 H         1 UNK         0.3000 
    236 H236       -7.0671  -16.6356  -52.7122 H         1 UNK         0.0600 
    237 H237       -8.8513  -17.8542  -53.9312 H         1 UNK         0.0600 
    238 H238       -8.8193  -16.1696  -54.4287 H         1 UNK         0.0600 
    239 H239       -8.1401  -17.4060  -55.4813 H         1 UNK         0.0600 
    240 H240       -5.3481  -17.1163  -55.7557 H         1 UNK         0.3000 
    241 H241       -3.9694  -15.9404  -56.9873 H         1 UNK         0.0600 
    242 H242       -6.8835  -14.8710  -56.9438 H         1 UNK         0.3800 
    243 H243       -6.7014  -13.3440  -57.7674 H         1 UNK         0.3800 
    244 H244       -2.4323  -14.3015  -55.9224 H         1 UNK         0.0800 
    245 H245       -3.4768  -14.2032  -54.5301 H         1 UNK         0.0800 
    246 H246       -1.4008  -14.7313  -52.9883 H         1 UNK         0.0800 
    247 H247       -2.8806  -15.4936  -52.4450 H         1 UNK         0.0800 
@<TRIPOS>BOND
     1    1    2 1    
     2    1  127 1    
     3    1  128 1    
     4    1  129 1    
     5    2    3 2    
     6    2    4 am   BACKBONE|DICT|INTERRES
     7    4    5 1    
     8    4  130 1    
     9    5    6 1    
    10    5   65 1    
    11    5  131 1    
    12    6    7 1    
    13    6  132 1    
    14    6  133 1    
    15    7    8 1    
    16    8    9 1    
    17    8  134 1    
    18    8  135 1    
    19    9   10 ar   
    20    9   14 ar   
    21   10   11 ar   
    22   10  136 1    
    23   11   12 ar   
    24   11  126 1    
    25   12   13 ar   
    26   12  137 1    
    27   13   14 ar   
    28   13   15 1    
    29   14  138 1    
    30   15   16 1    
    31   15  139 1    
    32   15  140 1    
    33   16   17 1    
    34   17   18 1    
    35   17  141 1    
    36   17  142 1    
    37   18   19 1    
    38   18   67 1    
    39   18  143 1    
    40   19   20 am   BACKBONE|DICT|INTERRES
    41   19  144 1    
    42   20   21 2    
    43   20   22 1    
    44   22   23 1    
    45   22   24 1    
    46   22  145 1    
    47   23  146 1    
    48   23  147 1    
    49   23  148 1    
    50   24   25 am   BACKBONE|DICT|INTERRES
    51   24  149 1    
    52   25   26 2    
    53   25   27 1    
    54   27   28 1    
    55   27   29 1    
    56   27  150 1    
    57   28  151 1    
    58   28  152 1    
    59   28  153 1    
    60   29   30 am   BACKBONE|DICT|INTERRES
    61   29  154 1    
    62   30   31 2    
    63   30   32 1    
    64   32   33 1    
    65   32   34 1    
    66   32  155 1    
    67   33  156 1    
    68   33  157 1    
    69   33  158 1    
    70   34   35 am   BACKBONE|DICT|INTERRES
    71   34  159 1    
    72   35   36 2    
    73   35   37 1    
    74   37   38 1    
    75   37   39 1    
    76   37  160 1    
    77   38  161 1    
    78   38  162 1    
    79   38  163 1    
    80   39   40 am   BACKBONE|DICT|INTERRES
    81   39  164 1    
    82   40   41 2    
    83   40   42 1    
    84   42   43 1    
    85   42   44 1    
    86   42  165 1    
    87   43  166 1    
    88   43  167 1    
    89   43  168 1    
    90   44   45 am   BACKBONE|DICT|INTERRES
    91   44  169 1    
    92   45   46 2    
    93   45   47 1    
    94   47   48 1    
    95   47   49 1    
    96   47  170 1    
    97   48  171 1    
    98   48  172 1    
    99   48  173 1    
   100   49   50 am   BACKBONE|DICT|INTERRES
   101   49  174 1    
   102   50   51 2    
   103   50   52 1    
   104   52   53 1    
   105   52   54 1    
   106   52  175 1    
   107   53  176 1    
   108   53  177 1    
   109   53  178 1    
   110   54   55 am   BACKBONE|DICT|INTERRES
   111   54  179 1    
   112   55   56 2    
   113   55   57 1    
   114   57   58 1    
   115   57   59 1    
   116   57  180 1    
   117   58  181 1    
   118   58  182 1    
   119   58  183 1    
   120   59   60 am   BACKBONE|DICT|INTERRES
   121   59  184 1    
   122   60   61 2    
   123   60   62 1    
   124   62   63 1    
   125   62   64 1    
   126   62  185 1    
   127   63  186 1    
   128   63  187 1    
   129   63  188 1    
   130   64   65 am   BACKBONE|DICT|INTERRES
   131   64  189 1    
   132   65   66 2    
   133   67   68 2    
   134   67   69 am   BACKBONE|DICT|INTERRES
   135   69   70 1    
   136   69  190 1    
   137   70   71 1    
   138   70   72 1    
   139   70  191 1    
   140   71  192 1    
   141   71  193 1    
   142   71  194 1    
   143   72   73 2    
   144   72   74 am   BACKBONE|DICT|INTERRES
   145   74   75 1    
   146   74  195 1    
   147   75   76 1    
   148   75   77 1    
   149   75  196 1    
   150   76  197 1    
   151   76  198 1    
   152   76  199 1    
   153   77   78 2    
   154   77   79 am   BACKBONE|DICT|INTERRES
   155   79   80 1    
   156   79  200 1    
   157   80   81 1    
   158   80   82 1    
   159   80  201 1    
   160   81  202 1    
   161   81  203 1    
   162   81  204 1    
   163   82   83 2    
   164   82   84 am   BACKBONE|DICT|INTERRES
   165   84   85 1    
   166   84  205 1    
   167   85   86 1    
   168   85   87 1    
   169   85  206 1    
   170   86  207 1    
   171   86  208 1    
   172   86  209 1    
   173   87   88 2    
   174   87   89 am   BACKBONE|DICT|INTERRES
   175   89   90 1    
   176   89  210 1    
   177   90   91 1    
   178   90   92 1    
   179   90  211 1    
   180   91  212 1    
   181   91  213 1    
   182   91  214 1    
   183   92   93 2    
   184   92   94 am   BACKBONE|DICT|INTERRES
   185   94   95 1    
   186   94  215 1    
   187   95   96 1    
   188   95   97 1    
   189   95  216 1    
   190   96  217 1    
   191   96  218 1    
   192   96  219 1    
   193   97   98 2    
   194   97   99 am   BACKBONE|DICT|INTERRES
   195   99  100 1    
   196   99  220 1    
   197  100  101 1    
   198  100  102 1    
   199  100  221 1    
   200  101  222 1    
   201  101  223 1    
   202  101  224 1    
   203  102  103 2    
   204  102  104 am   BACKBONE|DICT|INTERRES
   205  104  105 1    
   206  104  225 1    
   207  105  106 1    
   208  105  107 1    
   209  105  226 1    
   210  106  227 1    
   211  106  228 1    
   212  106  229 1    
   213  107  108 2    
   214  107  109 am   BACKBONE|DICT|INTERRES
   215  109  110 1    
   216  109  230 1    
   217  110  111 1    
   218  110  112 1    
   219  110  231 1    
   220  111  232 1    
   221  111  233 1    
   222  111  234 1    
   223  112  113 2    
   224  112  114 am   BACKBONE|DICT|INTERRES
   225  114  115 1    
   226  114  235 1    
   227  115  116 1    
   228  115  117 1    
   229  115  236 1    
   230  116  237 1    
   231  116  238 1    
   232  116  239 1    
   233  117  118 2    
   234  117  119 am   BACKBONE|DICT|INTERRES
   235  119  120 1    
   236  119  240 1    
   237  120  121 1    
   238  120  124 1    
   239  120  241 1    
   240  121  122 am   BACKBONE|DICT|INTERRES
   241  121  123 2    
   242  122  242 1    
   243  122  243 1    
   244  124  125 1    
   245  124  244 1    
   246  124  245 1    
   247  125  126 1    
   248  126  246 1    
   249  126  247 1    
@<TRIPOS>SUBSTRUCTURE
     1 UNK         1 GROUP             0       ****    0 ROOT    
