@<TRIPOS>MOLECULE
3R540
247   249    1
SMALL
USER_CHARGES


@<TRIPOS>ATOM
      1 CA          0.3568  -10.6311  -49.0245 C.3       0 UNK        -0.1800 
      2 C           1.8136  -10.8650  -49.3916 C.2       0 UNK         0.5000 
      3 O           2.2956  -10.3026  -50.3752 O.2       0 UNK        -0.5000 
      4 N           2.5095  -11.6989  -48.6115 N.am      1 UNK        -0.5000 
      5 CA          3.9224  -12.0355  -48.8092 C.3       1 UNK         0.1400 
      6 C6          4.2825  -13.3972  -48.1678 C.3       23 UNK        -0.0398 
      7 S7          3.6517  -14.7988  -49.1463 S.3       23 UNK        -0.2404 
      8 C8          2.2357  -15.3779  -48.1609 C.3       23 UNK        -0.0205 
      9 C9          1.7312  -16.6998  -48.7195 C.ar      23 UNK        -0.0193 
     10 C10         0.8289  -16.7184  -49.7869 C.ar      23 UNK        -0.1150 
     11 C11         0.4309  -17.9311  -50.3594 C.ar      23 UNK        -0.0193 
     12 C12         0.9214  -19.1333  -49.8398 C.ar      23 UNK        -0.1150 
     13 C13         1.8159  -19.1268  -48.7654 C.ar      23 UNK        -0.0193 
     14 C14         2.2144  -17.9076  -48.2088 C.ar      23 UNK        -0.1150 
     15 C15         2.3971  -20.4265  -48.2311 C.3       23 UNK        -0.0205 
     16 S16         1.6383  -20.9013  -46.6498 S.3       23 UNK        -0.2404 
     17 C17         0.1231  -21.7632  -47.1932 C.3       23 UNK        -0.0398 
     18 CA          0.1209  -23.2638  -46.8132 C.3       11 UNK         0.1400 
     19 N           0.4154  -23.4846  -45.3945 N.am      11 UNK        -0.5000 
     20 C           0.7902  -24.6549  -44.8617 C.2       10 UNK         0.5000 
     21 O           0.9322  -25.6844  -45.5184 O.2       10 UNK        -0.5000 
     22 CA          0.9988  -24.6927  -43.3352 C.3       10 UNK         0.1400 
     23 CB          2.4483  -24.3265  -42.9848 C.3       10 UNK        -0.1800 
     24 N           0.0909  -23.8004  -42.6129 N.am      10 UNK        -0.5000 
     25 C          -1.2450  -23.9147  -42.5964 C.2       9 UNK         0.5000 
     26 O          -1.8547  -24.8392  -43.1332 O.2       9 UNK        -0.5000 
     27 CA         -2.0300  -22.7650  -41.9325 C.3       9 UNK         0.1400 
     28 CB         -2.2902  -23.0753  -40.4514 C.3       9 UNK        -0.1800 
     29 N          -1.3576  -21.4646  -42.0474 N.am      9 UNK        -0.5000 
     30 C          -1.0794  -20.8547  -43.2081 C.2       8 UNK         0.5000 
     31 O          -1.3959  -21.3168  -44.3063 O.2       8 UNK        -0.5000 
     32 CA         -0.2334  -19.5711  -43.1181 C.3       8 UNK         0.1400 
     33 CB          1.2307  -19.9231  -42.8051 C.3       8 UNK        -0.1800 
     34 N          -0.2642  -18.7973  -44.3591 N.am      8 UNK        -0.5000 
     35 C          -1.2846  -18.0261  -44.7492 C.2       7 UNK         0.5000 
     36 O          -2.3219  -17.8785  -44.0968 O.2       7 UNK        -0.5000 
     37 CA         -1.1129  -17.3065  -46.1024 C.3       7 UNK         0.1400 
     38 CB         -1.5993  -18.1915  -47.2554 C.3       7 UNK        -0.1800 
     39 N          -1.8505  -16.0457  -46.1531 N.am      7 UNK        -0.5000 
     40 C          -1.5392  -14.9551  -45.4467 C.2       6 UNK         0.5000 
     41 O          -0.5636  -14.8752  -44.6929 O.2       6 UNK        -0.5000 
     42 CA         -2.4813  -13.7537  -45.6122 C.3       6 UNK         0.1400 
     43 CB         -3.7426  -13.9124  -44.7476 C.3       6 UNK        -0.1800 
     44 N          -1.7596  -12.5624  -45.1927 N.am      6 UNK        -0.5000 
     45 C          -1.7097  -11.3947  -45.8387 C.2       5 UNK         0.5000 
     46 O          -2.4054  -11.1226  -46.8174 O.2       5 UNK        -0.5000 
     47 CA         -0.7009  -10.3555  -45.3082 C.3       5 UNK         0.1400 
     48 CB         -1.4306   -9.2129  -44.5857 C.3       5 UNK        -0.1800 
     49 N           0.2972  -10.9234  -44.3982 N.am      5 UNK        -0.5000 
     50 C           1.3148  -11.7183  -44.7519 C.2       4 UNK         0.5000 
     51 O           1.5638  -12.0439  -45.9154 O.2       4 UNK        -0.5000 
     52 CA          2.2392  -12.1649  -43.6025 C.3       4 UNK         0.1400 
     53 CB          3.0214  -13.4442  -43.9468 C.3       4 UNK        -0.1800 
     54 N           3.1870  -11.0971  -43.2995 N.am      4 UNK        -0.5000 
     55 C           2.8938   -9.9443  -42.6790 C.2       3 UNK         0.5000 
     56 O           1.8375   -9.7399  -42.0789 O.2       3 UNK        -0.5000 
     57 CA          3.9362   -8.8134  -42.8059 C.3       3 UNK         0.1400 
     58 CB          4.8682   -8.7950  -41.5852 C.3       3 UNK        -0.1800 
     59 N           4.7412   -8.9303  -44.0276 N.am      3 UNK        -0.5000 
     60 C           4.2608   -8.8268  -45.2764 C.2       2 UNK         0.5000 
     61 O           3.1073   -8.4785  -45.5347 O.2       2 UNK        -0.5000 
     62 CA          5.1814   -9.2622  -46.4283 C.3       2 UNK         0.1400 
     63 CB          6.5828   -9.7321  -45.9631 C.3       2 UNK        -0.1800 
     64 N           4.4718  -10.3254  -47.1382 N.am      2 UNK        -0.5000 
     65 C           4.8444  -10.9200  -48.2775 C.2       1 UNK         0.5000 
     66 O           5.8596  -10.6236  -48.9089 O.2       1 UNK        -0.5000 
     67 C          -1.2219  -23.9107  -47.2039 C.2       11 UNK         0.5000 
     68 O          -1.3700  -24.3744  -48.3356 O.2       11 UNK        -0.5000 
     69 N          -2.1777  -23.9368  -46.2641 N.am      12 UNK        -0.5000 
     70 CA         -3.4597  -24.6224  -46.4151 C.3       12 UNK         0.1400 
     71 CB         -4.4643  -24.0917  -45.3828 C.3       12 UNK        -0.1800 
     72 C          -3.2931  -26.1471  -46.3115 C.2       12 UNK         0.5000 
     73 O          -3.8773  -26.8704  -47.1164 O.2       12 UNK        -0.5000 
     74 N          -2.4503  -26.6070  -45.3743 N.am      13 UNK        -0.5000 
     75 CA         -2.0658  -28.0133  -45.2109 C.3       13 UNK         0.1400 
     76 CB         -1.2333  -28.1722  -43.9303 C.3       13 UNK        -0.1800 
     77 C          -1.3071  -28.5762  -46.4303 C.2       13 UNK         0.5000 
     78 O          -1.5101  -29.7352  -46.7923 O.2       13 UNK        -0.5000 
     79 N          -0.4908  -27.7287  -47.0726 N.am      14 UNK        -0.5000 
     80 CA          0.1905  -27.9969  -48.3425 C.3       14 UNK         0.1400 
     81 CB          1.3350  -26.9845  -48.5116 C.3       14 UNK        -0.1800 
     82 C          -0.7444  -27.9609  -49.5721 C.2       14 UNK         0.5000 
     83 O          -0.2907  -28.2667  -50.6753 O.2       14 UNK        -0.5000 
     84 N          -2.0150  -27.5802  -49.3701 N.am      15 UNK        -0.5000 
     85 CA         -3.0922  -27.4628  -50.3564 C.3       15 UNK         0.1400 
     86 CB         -3.3887  -28.8178  -51.0322 C.3       15 UNK        -0.1800 
     87 C          -2.8989  -26.3143  -51.3679 C.2       15 UNK         0.5000 
     88 O          -3.5423  -26.3203  -52.4181 O.2       15 UNK        -0.5000 
     89 N          -2.0548  -25.3299  -51.0292 N.am      16 UNK        -0.5000 
     90 CA         -1.8577  -24.1121  -51.8117 C.3       16 UNK         0.1400 
     91 CB         -0.4507  -23.5433  -51.5553 C.3       16 UNK        -0.1800 
     92 C          -2.9575  -23.1002  -51.4644 C.2       16 UNK         0.5000 
     93 O          -3.7886  -22.7797  -52.3119 O.2       16 UNK        -0.5000 
     94 N          -2.9938  -22.6780  -50.1929 N.am      17 UNK        -0.5000 
     95 CA         -3.9600  -21.7066  -49.6670 C.3       17 UNK         0.1400 
     96 CB         -3.4199  -21.1079  -48.3621 C.3       17 UNK        -0.1800 
     97 C          -5.3774  -22.2816  -49.4739 C.2       17 UNK         0.5000 
     98 O          -6.2987  -21.5294  -49.1561 O.2       17 UNK        -0.5000 
     99 N          -5.5348  -23.5968  -49.6808 N.am      18 UNK        -0.5000 
    100 CA        -6.8262  -24.2779  -49.7621 C.3       18 UNK         0.1400 
    101 CB        -6.5981  -25.7953  -49.7040 C.3       18 UNK        -0.1800 
    102 C         -7.6120  -23.8960  -51.0337 C.2       18 UNK         0.5000 
    103 O         -8.8427  -23.9385  -51.0154 O.2       18 UNK        -0.5000 
    104 N         -6.8975  -23.5160  -52.1031 N.am      19 UNK        -0.5000 
    105 CA        -7.4710  -22.9410  -53.3149 C.3       19 UNK         0.1400 
    106 CB        -6.5617  -23.2751  -54.5079 C.3       19 UNK        -0.1800 
    107 C         -7.5896  -21.4188  -53.1473 C.2       19 UNK         0.5000 
    108 O         -6.6867  -20.7954  -52.5845 O.2       19 UNK        -0.5000 
    109 N         -8.6675  -20.8345  -53.6863 N.am      20 UNK        -0.5000 
    110 CA        -8.9492  -19.3937  -53.6354 C.3       20 UNK         0.1400 
    111 CB       -10.3558  -19.1376  -54.1976 C.3       20 UNK        -0.1800 
    112 C         -7.9072  -18.5267  -54.3723 C.2       20 UNK         0.5000 
    113 O         -7.7140  -17.3657  -54.0106 O.2       20 UNK        -0.5000 
    114 N         -7.2411  -19.1156  -55.3743 N.am      21 UNK        -0.5000 
    115 CA        -6.1383  -18.5115  -56.1215 C.3       21 UNK         0.1400 
    116 CB        -6.0107  -19.2381  -57.4703 C.3       21 UNK        -0.1800 
    117 C         -4.7929  -18.5414  -55.3650 C.2       21 UNK         0.5000 
    118 O         -3.8536  -17.8757  -55.8019 O.2       21 UNK        -0.5000 
    119 N         -4.7060  -19.3140  -54.2706 N.am      22 UNK        -0.5000 
    120 CA        -3.4932  -19.5416  -53.4641 C.3       22 UNK         0.1400 
    121 C         -2.3937  -20.3945  -54.1778 C.2       22 UNK         0.5000 
    122 N         -2.6953  -21.0807  -55.2742 N.am      22 UNK        -0.7600 
    123 O         -1.2545  -20.4644  -53.7286 O.2       22 UNK        -0.5000 
    124 C124       -2.9580  -18.2258  -52.8266 C.3       23 UNK        -0.0398 
    125 S125       -2.1736  -18.4522  -51.1909 S.3       23 UNK        -0.2404 
    126 C126       -0.4724  -17.9394  -51.5822 C.3       23 UNK        -0.0205 
    127 H127        0.0092  -11.3648  -48.2978 H         1 UNK         0.0600 
    128 H128       -0.2742  -10.7120  -49.9096 H         1 UNK         0.0600 
    129 H129        0.2292   -9.6347  -48.6022 H         1 UNK         0.0600 
    130 H130        2.0743  -12.0717  -47.7715 H         1 UNK         0.3000 
    131 H131        4.1139  -12.1097  -49.8824 H         1 UNK         0.0600 
    132 H132        5.3654  -13.5242  -48.1113 H         1 UNK         0.0800 
    133 H133        3.9180  -13.4572  -47.1418 H         1 UNK         0.0800 
    134 H134        2.5315  -15.4978  -47.1174 H         1 UNK         0.0800 
    135 H135        1.4422  -14.6289  -48.1776 H         1 UNK         0.0800 
    136 H136        0.4689  -15.7850  -50.1964 H         1 UNK         0.1150 
    137 H137        0.6216  -20.0696  -50.2896 H         1 UNK         0.1150 
    138 H138        2.9237  -17.8999  -47.3930 H         1 UNK         0.1150 
    139 H139        2.2917  -21.2346  -48.9567 H         1 UNK         0.0800 
    140 H140        3.4696  -20.2989  -48.0772 H         1 UNK         0.0800 
    141 H141        0.0009  -21.6450  -48.2710 H         1 UNK         0.0800 
    142 H142       -0.7268  -21.2544  -46.7402 H         1 UNK         0.0800 
    143 H143        0.9015  -23.7555  -47.3973 H         1 UNK         0.0600 
    144 H144        0.2673  -22.6891  -44.7885 H         1 UNK         0.3000 
    145 H145        0.8100  -25.7129  -42.9960 H         1 UNK         0.0600 
    146 H146        2.6312  -24.4189  -41.9141 H         1 UNK         0.0600 
    147 H147        3.1512  -24.9891  -43.4918 H         1 UNK         0.0600 
    148 H148        2.6888  -23.3044  -43.2808 H         1 UNK         0.0600 
    149 H149        0.5090  -23.0134  -42.1401 H         1 UNK         0.3000 
    150 H150       -2.9931  -22.6897  -42.4419 H         1 UNK         0.0600 
    151 H151       -1.3614  -23.1374  -39.8829 H         1 UNK         0.0600 
    152 H152       -2.8092  -24.0281  -40.3379 H         1 UNK         0.0600 
    153 H153       -2.9158  -22.3098  -39.9918 H         1 UNK         0.0600 
    154 H154       -1.0630  -21.0336  -41.1828 H         1 UNK         0.3000 
    155 H155       -0.6275  -18.9531  -42.3086 H         1 UNK         0.0600 
    156 H156        1.6636  -20.5701  -43.5690 H         1 UNK         0.0600 
    157 H157        1.3189  -20.4407  -41.8493 H         1 UNK         0.0600 
    158 H158        1.8461  -19.0255  -42.7404 H         1 UNK         0.0600 
    159 H159        0.5230  -18.9210  -44.9792 H         1 UNK         0.3000 
    160 H160       -0.0542  -17.0855  -46.2542 H         1 UNK         0.0600 
    161 H161       -2.6241  -18.5282  -47.0980 H         1 UNK         0.0600 
    162 H162       -0.9671  -19.0709  -47.3582 H         1 UNK         0.0600 
    163 H163       -1.5628  -17.6612  -48.2065 H         1 UNK         0.0600 
    164 H164       -2.6874  -16.0429  -46.7170 H         1 UNK         0.3000 
    165 H165       -2.7632  -13.6778  -46.6647 H         1 UNK         0.0600 
    166 H166       -4.4034  -13.0521  -44.8550 H         1 UNK         0.0600 
    167 H167       -4.3098  -14.7971  -45.0390 H         1 UNK         0.0600 
    168 H168       -3.4945  -14.0144  -43.6903 H         1 UNK         0.0600 
    169 H169       -1.0970  -12.7240  -44.4460 H         1 UNK         0.3000 
    170 H170       -0.1758   -9.9344  -46.1672 H         1 UNK         0.0600 
    171 H171       -2.1574   -8.7345  -45.2435 H         1 UNK         0.0600 
    172 H172       -1.9680   -9.5712  -43.7068 H         1 UNK         0.0600 
    173 H173       -0.7310   -8.4420  -44.2613 H         1 UNK         0.0600 
    174 H174        0.2324  -10.6408  -43.4284 H         1 UNK         0.3000 
    175 H175        1.6255  -12.3685  -42.7224 H         1 UNK         0.0600 
    176 H176        2.3440  -14.2495  -44.2352 H         1 UNK         0.0600 
    177 H177        3.7163  -13.2864  -44.7716 H         1 UNK         0.0600 
    178 H178        3.5965  -13.7945  -43.0896 H         1 UNK         0.0600 
    179 H179        4.0837  -11.1624  -43.7564 H         1 UNK         0.3000 
    180 H180        3.3949   -7.8657  -42.8429 H         1 UNK         0.0600 
    181 H181        5.4473   -9.7159  -41.5057 H         1 UNK         0.0600 
    182 H182        4.2985   -8.6846  -40.6615 H         1 UNK         0.0600 
    183 H183        5.5679   -7.9606  -41.6356 H         1 UNK         0.0600 
    184 H184        5.7034   -9.2118  -43.9059 H         1 UNK         0.3000 
    185 H185        5.2946   -8.4077  -47.0978 H         1 UNK         0.0600 
    186 H186        7.0882   -8.9597  -45.3818 H         1 UNK         0.0600 
    187 H187        6.5282  -10.6351  -45.3537 H         1 UNK         0.0600 
    188 H188        7.2346   -9.9486  -46.8087 H         1 UNK         0.0600 
    189 H189        3.5781  -10.5789  -46.7358 H         1 UNK         0.3000 
    190 H190       -1.9842  -23.5172  -45.3648 H         1 UNK         0.3000 
    191 H191       -3.8552  -24.3998  -47.4080 H         1 UNK         0.0600 
    192 H192       -4.5988  -23.0145  -45.4828 H         1 UNK         0.0600 
    193 H193       -5.4418  -24.5554  -45.5204 H         1 UNK         0.0600 
    194 H194       -4.1464  -24.2960  -44.3606 H         1 UNK         0.0600 
    195 H195       -2.0609  -25.9483  -44.7059 H         1 UNK         0.3000 
    196 H196       -2.9827  -28.5946  -45.0945 H         1 UNK         0.0600 
    197 H197       -0.9970  -29.2211  -43.7474 H         1 UNK         0.0600 
    198 H198       -1.7736  -27.8027  -43.0585 H         1 UNK         0.0600 
    199 H199       -0.2897  -27.6312  -43.9945 H         1 UNK         0.0600 
    200 H200       -0.3043  -26.8267  -46.6474 H         1 UNK         0.3000 
    201 H201        0.6245  -28.9976  -48.2950 H         1 UNK         0.0600 
    202 H202        1.9025  -27.1791  -49.4225 H         1 UNK         0.0600 
    203 H203        2.0358  -27.0378  -47.6784 H         1 UNK         0.0600 
    204 H204        0.9604  -25.9625  -48.5713 H         1 UNK         0.0600 
    205 H205       -2.2914  -27.3513  -48.4229 H         1 UNK         0.3000 
    206 H206       -3.9782  -27.1969  -49.7813 H         1 UNK         0.0600 
    207 H207       -3.5223  -29.6065  -50.2918 H         1 UNK         0.0600 
    208 H208       -4.3062  -28.7688  -51.6198 H         1 UNK         0.0600 
    209 H209       -2.5876  -29.1206  -51.7067 H         1 UNK         0.0600 
    210 H210       -1.6124  -25.3579  -50.1170 H         1 UNK         0.3000 
    211 H211       -1.9335  -24.3427  -52.8767 H         1 UNK         0.0600 
    212 H212       -0.2800  -23.3063  -50.5055 H         1 UNK         0.0600 
    213 H213       -0.2941  -22.6270  -52.1259 H         1 UNK         0.0600 
    214 H214        0.3179  -24.2524  -51.8629 H         1 UNK         0.0600 
    215 H215       -2.3261  -23.0680  -49.5377 H         1 UNK         0.3000 
    216 H216       -4.0486  -20.8937  -50.3897 H         1 UNK         0.0600 
    217 H217       -4.0615  -20.2976  -48.0143 H         1 UNK         0.0600 
    218 H218       -2.4242  -20.6920  -48.5099 H         1 UNK         0.0600 
    219 H219       -3.3706  -21.8451  -47.5634 H         1 UNK         0.0600 
    220 H220       -4.7198  -24.1307  -49.9394 H         1 UNK         0.3000 
    221 H221       -7.4241  -23.9859  -48.8962 H         1 UNK         0.0600 
    222 H222       -6.0343  -26.1496  -50.5675 H         1 UNK         0.0600 
    223 H223       -6.0566  -26.0808  -48.8018 H         1 UNK         0.0600 
    224 H224       -7.5485  -26.3303  -49.6940 H         1 UNK         0.0600 
    225 H225       -5.8917  -23.4319  -52.0170 H         1 UNK         0.3000 
    226 H226       -8.4593  -23.3676  -53.4994 H         1 UNK         0.0600 
    227 H227       -6.9805  -22.8915  -55.4390 H         1 UNK         0.0600 
    228 H228       -5.5669  -22.8425  -54.3926 H         1 UNK         0.0600 
    229 H229       -6.4444  -24.3527  -54.6235 H         1 UNK         0.0600 
    230 H230       -9.3602  -21.4095  -54.1446 H         1 UNK         0.3000 
    231 H231       -8.9398  -19.0901  -52.5864 H         1 UNK         0.0600 
    232 H232      -10.4351  -19.4473  -55.2404 H         1 UNK         0.0600 
    233 H233      -10.6089  -18.0775  -54.1500 H         1 UNK         0.0600 
    234 H234      -11.1132  -19.6761  -53.6277 H         1 UNK         0.0600 
    235 H235       -7.4788  -20.0680  -55.6080 H         1 UNK         0.3000 
    236 H236       -6.3788  -17.4647  -56.3194 H         1 UNK         0.0600 
    237 H237       -6.9347  -19.1681  -58.0446 H         1 UNK         0.0600 
    238 H238       -5.2190  -18.7994  -58.0792 H         1 UNK         0.0600 
    239 H239       -5.7760  -20.2950  -57.3386 H         1 UNK         0.0600 
    240 H240       -5.5297  -19.8083  -53.9459 H         1 UNK         0.3000 
    241 H241       -3.8438  -20.1724  -52.6490 H         1 UNK         0.0600 
    242 H242       -3.6271  -21.0594  -55.6527 H         1 UNK         0.3800 
    243 H243       -1.9817  -21.6333  -55.7216 H         1 UNK         0.3800 
    244 H244       -2.2820  -17.7131  -53.5127 H         1 UNK         0.0800 
    245 H245       -3.7846  -17.5326  -52.6645 H         1 UNK         0.0800 
    246 H246       -0.0513  -18.6107  -52.3310 H         1 UNK         0.0800 
    247 H247       -0.4941  -16.9485  -52.0385 H         1 UNK         0.0800 
@<TRIPOS>BOND
     1    1    2 1    
     2    1  127 1    
     3    1  128 1    
     4    1  129 1    
     5    2    3 2    
     6    2    4 am   BACKBONE|DICT|INTERRES
     7    4    5 1    
     8    4  130 1    
     9    5    6 1    
    10    5   65 1    
    11    5  131 1    
    12    6    7 1    
    13    6  132 1    
    14    6  133 1    
    15    7    8 1    
    16    8    9 1    
    17    8  134 1    
    18    8  135 1    
    19    9   10 ar   
    20    9   14 ar   
    21   10   11 ar   
    22   10  136 1    
    23   11   12 ar   
    24   11  126 1    
    25   12   13 ar   
    26   12  137 1    
    27   13   14 ar   
    28   13   15 1    
    29   14  138 1    
    30   15   16 1    
    31   15  139 1    
    32   15  140 1    
    33   16   17 1    
    34   17   18 1    
    35   17  141 1    
    36   17  142 1    
    37   18   19 1    
    38   18   67 1    
    39   18  143 1    
    40   19   20 am   BACKBONE|DICT|INTERRES
    41   19  144 1    
    42   20   21 2    
    43   20   22 1    
    44   22   23 1    
    45   22   24 1    
    46   22  145 1    
    47   23  146 1    
    48   23  147 1    
    49   23  148 1    
    50   24   25 am   BACKBONE|DICT|INTERRES
    51   24  149 1    
    52   25   26 2    
    53   25   27 1    
    54   27   28 1    
    55   27   29 1    
    56   27  150 1    
    57   28  151 1    
    58   28  152 1    
    59   28  153 1    
    60   29   30 am   BACKBONE|DICT|INTERRES
    61   29  154 1    
    62   30   31 2    
    63   30   32 1    
    64   32   33 1    
    65   32   34 1    
    66   32  155 1    
    67   33  156 1    
    68   33  157 1    
    69   33  158 1    
    70   34   35 am   BACKBONE|DICT|INTERRES
    71   34  159 1    
    72   35   36 2    
    73   35   37 1    
    74   37   38 1    
    75   37   39 1    
    76   37  160 1    
    77   38  161 1    
    78   38  162 1    
    79   38  163 1    
    80   39   40 am   BACKBONE|DICT|INTERRES
    81   39  164 1    
    82   40   41 2    
    83   40   42 1    
    84   42   43 1    
    85   42   44 1    
    86   42  165 1    
    87   43  166 1    
    88   43  167 1    
    89   43  168 1    
    90   44   45 am   BACKBONE|DICT|INTERRES
    91   44  169 1    
    92   45   46 2    
    93   45   47 1    
    94   47   48 1    
    95   47   49 1    
    96   47  170 1    
    97   48  171 1    
    98   48  172 1    
    99   48  173 1    
   100   49   50 am   BACKBONE|DICT|INTERRES
   101   49  174 1    
   102   50   51 2    
   103   50   52 1    
   104   52   53 1    
   105   52   54 1    
   106   52  175 1    
   107   53  176 1    
   108   53  177 1    
   109   53  178 1    
   110   54   55 am   BACKBONE|DICT|INTERRES
   111   54  179 1    
   112   55   56 2    
   113   55   57 1    
   114   57   58 1    
   115   57   59 1    
   116   57  180 1    
   117   58  181 1    
   118   58  182 1    
   119   58  183 1    
   120   59   60 am   BACKBONE|DICT|INTERRES
   121   59  184 1    
   122   60   61 2    
   123   60   62 1    
   124   62   63 1    
   125   62   64 1    
   126   62  185 1    
   127   63  186 1    
   128   63  187 1    
   129   63  188 1    
   130   64   65 am   BACKBONE|DICT|INTERRES
   131   64  189 1    
   132   65   66 2    
   133   67   68 2    
   134   67   69 am   BACKBONE|DICT|INTERRES
   135   69   70 1    
   136   69  190 1    
   137   70   71 1    
   138   70   72 1    
   139   70  191 1    
   140   71  192 1    
   141   71  193 1    
   142   71  194 1    
   143   72   73 2    
   144   72   74 am   BACKBONE|DICT|INTERRES
   145   74   75 1    
   146   74  195 1    
   147   75   76 1    
   148   75   77 1    
   149   75  196 1    
   150   76  197 1    
   151   76  198 1    
   152   76  199 1    
   153   77   78 2    
   154   77   79 am   BACKBONE|DICT|INTERRES
   155   79   80 1    
   156   79  200 1    
   157   80   81 1    
   158   80   82 1    
   159   80  201 1    
   160   81  202 1    
   161   81  203 1    
   162   81  204 1    
   163   82   83 2    
   164   82   84 am   BACKBONE|DICT|INTERRES
   165   84   85 1    
   166   84  205 1    
   167   85   86 1    
   168   85   87 1    
   169   85  206 1    
   170   86  207 1    
   171   86  208 1    
   172   86  209 1    
   173   87   88 2    
   174   87   89 am   BACKBONE|DICT|INTERRES
   175   89   90 1    
   176   89  210 1    
   177   90   91 1    
   178   90   92 1    
   179   90  211 1    
   180   91  212 1    
   181   91  213 1    
   182   91  214 1    
   183   92   93 2    
   184   92   94 am   BACKBONE|DICT|INTERRES
   185   94   95 1    
   186   94  215 1    
   187   95   96 1    
   188   95   97 1    
   189   95  216 1    
   190   96  217 1    
   191   96  218 1    
   192   96  219 1    
   193   97   98 2    
   194   97   99 am   BACKBONE|DICT|INTERRES
   195   99  100 1    
   196   99  220 1    
   197  100  101 1    
   198  100  102 1    
   199  100  221 1    
   200  101  222 1    
   201  101  223 1    
   202  101  224 1    
   203  102  103 2    
   204  102  104 am   BACKBONE|DICT|INTERRES
   205  104  105 1    
   206  104  225 1    
   207  105  106 1    
   208  105  107 1    
   209  105  226 1    
   210  106  227 1    
   211  106  228 1    
   212  106  229 1    
   213  107  108 2    
   214  107  109 am   BACKBONE|DICT|INTERRES
   215  109  110 1    
   216  109  230 1    
   217  110  111 1    
   218  110  112 1    
   219  110  231 1    
   220  111  232 1    
   221  111  233 1    
   222  111  234 1    
   223  112  113 2    
   224  112  114 am   BACKBONE|DICT|INTERRES
   225  114  115 1    
   226  114  235 1    
   227  115  116 1    
   228  115  117 1    
   229  115  236 1    
   230  116  237 1    
   231  116  238 1    
   232  116  239 1    
   233  117  118 2    
   234  117  119 am   BACKBONE|DICT|INTERRES
   235  119  120 1    
   236  119  240 1    
   237  120  121 1    
   238  120  124 1    
   239  120  241 1    
   240  121  122 am   BACKBONE|DICT|INTERRES
   241  121  123 2    
   242  122  242 1    
   243  122  243 1    
   244  124  125 1    
   245  124  244 1    
   246  124  245 1    
   247  125  126 1    
   248  126  246 1    
   249  126  247 1    
@<TRIPOS>SUBSTRUCTURE
     1 UNK         1 GROUP             0       ****    0 ROOT    
