@<TRIPOS>MOLECULE
3R540
247   249    1
SMALL
USER_CHARGES


@<TRIPOS>ATOM
      1 CA          2.8736  -17.9554  -47.0336 C.3       0 UNK        -0.1800 
      2 C           3.3817  -16.5592  -47.3567 C.2       0 UNK         0.5000 
      3 O           4.3343  -16.4149  -48.1228 O.2       0 UNK        -0.5000 
      4 N           2.7568  -15.5335  -46.7638 N.am      1 UNK        -0.5000 
      5 CA          3.0041  -14.0933  -46.9449 C.3       1 UNK         0.1400 
      6 C6          2.8716  -13.5769  -48.4048 C.3       23 UNK        -0.0398 
      7 S7          1.3347  -14.1280  -49.2270 S.3       23 UNK        -0.2404 
      8 C8          2.0022  -15.0332  -50.6593 C.3       23 UNK        -0.0205 
      9 C9          1.0520  -16.1225  -51.1299 C.ar      23 UNK        -0.0193 
     10 C10        -0.0936  -15.8001  -51.8632 C.ar      23 UNK        -0.1150 
     11 C11        -0.9572  -16.8057  -52.3102 C.ar      23 UNK        -0.0193 
     12 C12        -0.6619  -18.1423  -52.0229 C.ar      23 UNK        -0.1150 
     13 C13         0.4733  -18.4755  -51.2807 C.ar      23 UNK        -0.0193 
     14 C14         1.3299  -17.4614  -50.8434 C.ar      23 UNK        -0.1150 
     15 C15         0.7717  -19.9294  -50.9463 C.3       23 UNK        -0.0205 
     16 S16         0.7643  -20.2225  -49.1513 S.3       23 UNK        -0.2404 
     17 C17        -0.9671  -19.8317  -48.7230 C.3       23 UNK        -0.0398 
     18 CA         -1.5493  -20.8476  -47.7126 C.3       11 UNK         0.1400 
     19 N          -2.5939  -20.2492  -46.8785 N.am      11 UNK        -0.5000 
     20 C          -3.0032  -20.7417  -45.7016 C.2       10 UNK         0.5000 
     21 O          -2.6124  -21.8216  -45.2546 O.2       10 UNK        -0.5000 
     22 CA         -4.0133  -19.9022  -44.8988 C.3       10 UNK         0.1400 
     23 CB         -3.8144  -20.0392  -43.3775 C.3       10 UNK        -0.1800 
     24 N          -3.9524  -18.4882  -45.2696 N.am      10 UNK        -0.5000 
     25 C          -5.0071  -17.6634  -45.3181 C.2       9 UNK         0.5000 
     26 O          -6.1596  -18.0292  -45.0810 O.2       9 UNK        -0.5000 
     27 CA         -4.7472  -16.1851  -45.6736 C.3       9 UNK         0.1400 
     28 CB         -5.4935  -15.2367  -44.7191 C.3       9 UNK        -0.1800 
     29 N          -3.3240  -15.8567  -45.6219 N.am      9 UNK        -0.5000 
     30 C          -2.5839  -15.4155  -46.6479 C.2       8 UNK         0.5000 
     31 O          -3.0344  -15.1885  -47.7693 O.2       8 UNK        -0.5000 
     32 CA         -1.0871  -15.1481  -46.3804 C.3       8 UNK         0.1400 
     33 CB         -0.8543  -13.6310  -46.2841 C.3       8 UNK        -0.1800 
     34 N          -0.5694  -15.7892  -45.1668 N.am      8 UNK        -0.5000 
     35 C          -0.5193  -17.1119  -44.9505 C.2       7 UNK         0.5000 
     36 O          -0.8523  -17.9490  -45.7846 O.2       7 UNK        -0.5000 
     37 CA         -0.0957  -17.5784  -43.5470 C.3       7 UNK         0.1400 
     38 CB          1.4015  -17.9225  -43.5138 C.3       7 UNK        -0.1800 
     39 N          -0.4045  -16.5958  -42.5054 N.am      7 UNK        -0.5000 
     40 C          -1.6442  -16.2349  -42.1374 C.2       6 UNK         0.5000 
     41 O          -2.6681  -16.6962  -42.6413 O.2       6 UNK        -0.5000 
     42 CA         -1.7483  -15.1342  -41.0660 C.3       6 UNK         0.1400 
     43 CB         -1.5874  -15.7296  -39.6593 C.3       6 UNK        -0.1800 
     44 N          -0.7493  -14.0829  -41.2661 N.am      6 UNK        -0.5000 
     45 C          -0.7699  -13.2028  -42.2781 C.2       5 UNK         0.5000 
     46 O          -1.6920  -13.1225  -43.0874 O.2       5 UNK        -0.5000 
     47 CA          0.4603  -12.2866  -42.4350 C.3       5 UNK         0.1400 
     48 CB          0.2264  -10.9429  -41.7292 C.3       5 UNK        -0.1800 
     49 N           1.6884  -12.8974  -41.9184 N.am      5 UNK        -0.5000 
     50 C           2.3011  -13.9494  -42.4752 C.2       4 UNK         0.5000 
     51 O           1.9383  -14.4800  -43.5299 O.2       4 UNK        -0.5000 
     52 CA          3.4548  -14.5587  -41.6685 C.3       4 UNK         0.1400 
     53 CB          2.8852  -15.4649  -40.5557 C.3       4 UNK        -0.1800 
     54 N           4.3088  -15.3206  -42.5726 N.am      4 UNK        -0.5000 
     55 C           5.4724  -15.9058  -42.2627 C.2       3 UNK         0.5000 
     56 O           5.9914  -15.8669  -41.1465 O.2       3 UNK        -0.5000 
     57 CA          6.1886  -16.6456  -43.4060 C.3       3 UNK         0.1400 
     58 CB          5.5165  -17.9999  -43.6827 C.3       3 UNK        -0.1800 
     59 N           6.2176  -15.8591  -44.6380 N.am      3 UNK        -0.5000 
     60 C           6.9478  -14.7488  -44.8210 C.2       2 UNK         0.5000 
     61 O           7.7237  -14.2903  -43.9819 O.2       2 UNK        -0.5000 
     62 CA          6.7766  -14.0268  -46.1701 C.3       2 UNK         0.1400 
     63 CB          7.8285  -14.5101  -47.1797 C.3       2 UNK        -0.1800 
     64 N           5.4435  -14.2314  -46.7356 N.am      2 UNK        -0.5000 
     65 C           4.3275  -13.6336  -46.3030 C.2       1 UNK         0.5000 
     66 O           4.3129  -12.7764  -45.4193 O.2       1 UNK        -0.5000 
     67 C          -2.0140  -22.1418  -48.4087 C.2       11 UNK         0.5000 
     68 O          -1.1745  -22.9581  -48.7827 O.2       11 UNK        -0.5000 
     69 N          -3.3346  -22.3454  -48.5250 N.am      12 UNK        -0.5000 
     70 CA         -3.9583  -23.5427  -49.0952 C.3       12 UNK         0.1400 
     71 CB         -5.4846  -23.3722  -49.0835 C.3       12 UNK        -0.1800 
     72 C          -3.5588  -24.8519  -48.3866 C.2       12 UNK         0.5000 
     73 O          -3.4837  -25.8899  -49.0433 O.2       12 UNK        -0.5000 
     74 N          -3.2732  -24.7771  -47.0792 N.am      13 UNK        -0.5000 
     75 CA         -2.7844  -25.8983  -46.2766 C.3       13 UNK         0.1400 
     76 CB         -2.9008  -25.5363  -44.7883 C.3       13 UNK        -0.1800 
     77 C          -1.3371  -26.2997  -46.6237 C.2       13 UNK         0.5000 
     78 O          -1.0059  -27.4835  -46.5566 O.2       13 UNK        -0.5000 
     79 N          -0.5075  -25.3151  -46.9940 N.am      14 UNK        -0.5000 
     80 CA          0.8864  -25.5095  -47.3937 C.3       14 UNK         0.1400 
     81 CB          1.6840  -24.2328  -47.0816 C.3       14 UNK        -0.1800 
     82 C           0.9998  -25.8691  -48.8844 C.2       14 UNK         0.5000 
     83 O           1.7925  -26.7385  -49.2471 O.2       14 UNK        -0.5000 
     84 N           0.1940  -25.1983  -49.7170 N.am      15 UNK        -0.5000 
     85 CA          0.1517  -25.3528  -51.1703 C.3       15 UNK         0.1400 
     86 CB         -0.5048  -24.0990  -51.7703 C.3       15 UNK        -0.1800 
     87 C          -0.5852  -26.6216  -51.6415 C.2       15 UNK         0.5000 
     88 O          -0.5164  -26.9389  -52.8281 O.2       15 UNK        -0.5000 
     89 N          -1.2930  -27.3037  -50.7283 N.am      16 UNK        -0.5000 
     90 CA         -2.1437  -28.4766  -50.9603 C.3       16 UNK         0.1400 
     91 CB         -1.3121  -29.6894  -51.4282 C.3       16 UNK        -0.1800 
     92 C          -3.3210  -28.1376  -51.8966 C.2       16 UNK         0.5000 
     93 O          -3.5013  -28.7667  -52.9402 O.2       16 UNK        -0.5000 
     94 N          -4.0738  -27.1046  -51.4959 N.am      17 UNK        -0.5000 
     95 CA         -5.2494  -26.5138  -52.1449 C.3       17 UNK         0.1400 
     96 CB         -6.3589  -27.5613  -52.3702 C.3       17 UNK        -0.1800 
     97 C          -4.9512  -25.6986  -53.4206 C.2       17 UNK         0.5000 
     98 O          -5.8860  -25.1534  -54.0084 O.2       17 UNK        -0.5000 
     99 N          -3.6765  -25.5690  -53.8140 N.am      18 UNK        -0.5000 
    100 CA        -3.2276  -24.7631  -54.9532 C.3       18 UNK         0.1400 
    101 CB        -1.9442  -25.3815  -55.5350 C.3       18 UNK        -0.1800 
    102 C         -3.0568  -23.2780  -54.5648 C.2       18 UNK         0.5000 
    103 O         -1.9792  -22.7069  -54.7394 O.2       18 UNK        -0.5000 
    104 N         -4.1258  -22.6816  -54.0308 N.am      19 UNK        -0.5000 
    105 CA        -4.2218  -21.2835  -53.6270 C.3       19 UNK         0.1400 
    106 CB        -3.7815  -21.1403  -52.1587 C.3       19 UNK        -0.1800 
    107 C         -5.6724  -20.8188  -53.8318 C.2       19 UNK         0.5000 
    108 O         -6.5801  -21.6532  -53.8932 O.2       19 UNK        -0.5000 
    109 N         -5.8616  -19.4995  -53.9407 N.am      20 UNK        -0.5000 
    110 CA        -7.1632  -18.8466  -54.0889 C.3       20 UNK         0.1400 
    111 CB        -6.9990  -17.6472  -55.0450 C.3       20 UNK        -0.1800 
    112 C         -7.7157  -18.4649  -52.6990 C.2       20 UNK         0.5000 
    113 O         -7.6479  -19.2750  -51.7721 O.2       20 UNK        -0.5000 
    114 N         -8.2051  -17.2250  -52.5433 N.am      21 UNK        -0.5000 
    115 CA        -8.6384  -16.6396  -51.2652 C.3       21 UNK         0.1400 
    116 CB        -9.2496  -15.2556  -51.5315 C.3       21 UNK        -0.1800 
    117 C         -7.5061  -16.5411  -50.2185 C.2       21 UNK         0.5000 
    118 O         -7.7789  -16.4933  -49.0189 O.2       21 UNK        -0.5000 
    119 N         -6.2597  -16.5514  -50.7030 N.am      22 UNK        -0.5000 
    120 CA        -5.0252  -16.7509  -49.9365 C.3       22 UNK         0.1400 
    121 C         -4.8543  -18.1704  -49.3132 C.2       22 UNK         0.5000 
    122 N         -5.6521  -19.1696  -49.6743 N.am      22 UNK        -0.7600 
    123 O         -3.9849  -18.3682  -48.4706 O.2       22 UNK        -0.5000 
    124 C124       -3.7863  -16.3464  -50.7770 C.3       23 UNK        -0.0398 
    125 S125       -3.7235  -17.1629  -52.4144 S.3       23 UNK        -0.2404 
    126 C126       -2.2013  -16.4465  -53.1124 C.3       23 UNK        -0.0205 
    127 H127        3.4127  -18.3694  -46.1825 H         1 UNK         0.0600 
    128 H128        1.8082  -17.9480  -46.8038 H         1 UNK         0.0600 
    129 H129        3.0259  -18.6168  -47.8861 H         1 UNK         0.0600 
    130 H130        2.0043  -15.7366  -46.1217 H         1 UNK         0.3000 
    131 H131        2.2226  -13.6037  -46.3674 H         1 UNK         0.0600 
    132 H132        2.8740  -12.4857  -48.4124 H         1 UNK         0.0800 
    133 H133        3.7352  -13.8754  -49.0002 H         1 UNK         0.0800 
    134 H134        2.1937  -14.3310  -51.4718 H         1 UNK         0.0800 
    135 H135        2.9654  -15.4781  -50.4056 H         1 UNK         0.0800 
    136 H136       -0.3098  -14.7639  -52.0829 H         1 UNK         0.1150 
    137 H137       -1.3268  -18.9217  -52.3679 H         1 UNK         0.1150 
    138 H138        2.2103  -17.7182  -50.2709 H         1 UNK         0.1150 
    139 H139        0.0531  -20.5993  -51.4214 H         1 UNK         0.0800 
    140 H140        1.7519  -20.1936  -51.3450 H         1 UNK         0.0800 
    141 H141       -1.5878  -19.7641  -49.6187 H         1 UNK         0.0800 
    142 H142       -0.9623  -18.8285  -48.2947 H         1 UNK         0.0800 
    143 H143       -0.7462  -21.1348  -47.0298 H         1 UNK         0.0600 
    144 H144       -3.0208  -19.3993  -47.2425 H         1 UNK         0.3000 
    145 H145       -4.9959  -20.3036  -45.1540 H         1 UNK         0.0600 
    146 H146       -4.5602  -19.4640  -42.8285 H         1 UNK         0.0600 
    147 H147       -3.9079  -21.0773  -43.0566 H         1 UNK         0.0600 
    148 H148       -2.8300  -19.6846  -43.0709 H         1 UNK         0.0600 
    149 H149       -3.0353  -18.1330  -45.5151 H         1 UNK         0.3000 
    150 H150       -5.1407  -16.0353  -46.6801 H         1 UNK         0.0600 
    151 H151       -6.5709  -15.4010  -44.7600 H         1 UNK         0.0600 
    152 H152       -5.3161  -14.1939  -44.9829 H         1 UNK         0.0600 
    153 H153       -5.1756  -15.3793  -43.6853 H         1 UNK         0.0600 
    154 H154       -2.8775  -16.0049  -44.7245 H         1 UNK         0.3000 
    155 H155       -0.5182  -15.5403  -47.2257 H         1 UNK         0.0600 
    156 H156        0.1152  -13.3887  -45.8558 H         1 UNK         0.0600 
    157 H157       -1.6108  -13.1454  -45.6678 H         1 UNK         0.0600 
    158 H158       -0.9056  -13.1710  -47.2714 H         1 UNK         0.0600 
    159 H159       -0.2752  -15.1732  -44.4212 H         1 UNK         0.3000 
    160 H160       -0.6555  -18.4886  -43.3225 H         1 UNK         0.0600 
    161 H161        2.0238  -17.0654  -43.7666 H         1 UNK         0.0600 
    162 H162        1.6317  -18.7138  -44.2283 H         1 UNK         0.0600 
    163 H163        1.7045  -18.2801  -42.5298 H         1 UNK         0.0600 
    164 H164        0.3810  -16.1368  -42.0717 H         1 UNK         0.3000 
    165 H165       -2.7425  -14.6875  -41.1380 H         1 UNK         0.0600 
    166 H166       -0.6020  -16.1754  -39.5176 H         1 UNK         0.0600 
    167 H167       -1.7249  -14.9681  -38.8914 H         1 UNK         0.0600 
    168 H168       -2.3293  -16.5088  -39.4792 H         1 UNK         0.0600 
    169 H169        0.0278  -14.0607  -40.6236 H         1 UNK         0.3000 
    170 H170        0.5958  -12.0950  -43.5018 H         1 UNK         0.0600 
    171 H171       -0.6697  -10.4522  -42.1117 H         1 UNK         0.0600 
    172 H172        0.0981  -11.0687  -40.6534 H         1 UNK         0.0600 
    173 H173        1.0621  -10.2618  -41.8911 H         1 UNK         0.0600 
    174 H174        2.0489  -12.5182  -41.0543 H         1 UNK         0.3000 
    175 H175        4.0421  -13.7505  -41.2284 H         1 UNK         0.0600 
    176 H176        3.6699  -15.8386  -39.8987 H         1 UNK         0.0600 
    177 H177        2.1816  -14.9235  -39.9225 H         1 UNK         0.0600 
    178 H178        2.3615  -16.3275  -40.9683 H         1 UNK         0.0600 
    179 H179        3.9588  -15.3664  -43.5204 H         1 UNK         0.3000 
    180 H180        7.2184  -16.8336  -43.0945 H         1 UNK         0.0600 
    181 H181        4.4830  -17.8809  -44.0084 H         1 UNK         0.0600 
    182 H182        5.5066  -18.6197  -42.7852 H         1 UNK         0.0600 
    183 H183        6.0499  -18.5553  -44.4544 H         1 UNK         0.0600 
    184 H184        5.6227  -16.1658  -45.3922 H         1 UNK         0.3000 
    185 H185        6.9273  -12.9584  -46.0011 H         1 UNK         0.0600 
    186 H186        7.7525  -13.9631  -48.1196 H         1 UNK         0.0600 
    187 H187        8.8380  -14.3571  -46.7957 H         1 UNK         0.0600 
    188 H188        7.7173  -15.5726  -47.4000 H         1 UNK         0.0600 
    189 H189        5.3410  -14.9628  -47.4350 H         1 UNK         0.3000 
    190 H190       -3.9507  -21.6359  -48.1596 H         1 UNK         0.3000 
    191 H191       -3.6292  -23.6246  -50.1328 H         1 UNK         0.0600 
    192 H192       -5.7948  -22.5087  -49.6715 H         1 UNK         0.0600 
    193 H193       -5.9803  -24.2455  -49.5088 H         1 UNK         0.0600 
    194 H194       -5.8660  -23.2422  -48.0700 H         1 UNK         0.0600 
    195 H195       -3.3402  -23.8812  -46.6157 H         1 UNK         0.3000 
    196 H196       -3.4242  -26.7624  -46.4687 H         1 UNK         0.0600 
    197 H197       -2.5618  -26.3594  -44.1578 H         1 UNK         0.0600 
    198 H198       -3.9339  -25.3217  -44.5143 H         1 UNK         0.0600 
    199 H199       -2.2994  -24.6610  -44.5386 H         1 UNK         0.0600 
    200 H200       -0.8758  -24.3783  -47.0870 H         1 UNK         0.3000 
    201 H201        1.3190  -26.3276  -46.8136 H         1 UNK         0.0600 
    202 H202        1.6455  -23.9949  -46.0185 H         1 UNK         0.0600 
    203 H203        1.3037  -23.3705  -47.6310 H         1 UNK         0.0600 
    204 H204        2.7341  -24.3544  -47.3499 H         1 UNK         0.0600 
    205 H205       -0.3845  -24.4526  -49.3329 H         1 UNK         0.3000 
    206 H206        1.1773  -25.4122  -51.5402 H         1 UNK         0.0600 
    207 H207        0.0021  -23.1913  -51.4420 H         1 UNK         0.0600 
    208 H208       -0.4579  -24.1162  -52.8588 H         1 UNK         0.0600 
    209 H209       -1.5543  -24.0165  -51.4858 H         1 UNK         0.0600 
    210 H210       -1.3205  -26.9251  -49.7917 H         1 UNK         0.3000 
    211 H211       -2.5812  -28.7343  -49.9944 H         1 UNK         0.0600 
    212 H212       -0.8739  -29.5321  -52.4140 H         1 UNK         0.0600 
    213 H213       -1.9327  -30.5841  -51.4882 H         1 UNK         0.0600 
    214 H214       -0.5014  -29.9022  -50.7314 H         1 UNK         0.0600 
    215 H215       -3.8140  -26.6651  -50.6128 H         1 UNK         0.3000 
    216 H216       -5.6358  -25.7908  -51.4258 H         1 UNK         0.0600 
    217 H217       -6.5743  -28.1120  -51.4546 H         1 UNK         0.0600 
    218 H218       -6.0889  -28.2822  -53.1421 H         1 UNK         0.0600 
    219 H219       -7.2875  -27.0842  -52.6857 H         1 UNK         0.0600 
    220 H220       -2.9582  -26.0448  -53.2869 H         1 UNK         0.3000 
    221 H221       -3.9859  -24.8023  -55.7380 H         1 UNK         0.0600 
    222 H222       -1.1120  -25.3244  -54.8345 H         1 UNK         0.0600 
    223 H223       -2.0925  -26.4301  -55.7933 H         1 UNK         0.0600 
    224 H224       -1.6402  -24.8627  -56.4449 H         1 UNK         0.0600 
    225 H225       -4.9988  -23.1984  -53.9721 H         1 UNK         0.3000 
    226 H226       -3.5752  -20.6737  -54.2619 H         1 UNK         0.0600 
    227 H227       -2.7611  -21.4951  -52.0110 H         1 UNK         0.0600 
    228 H228       -3.8116  -20.0999  -51.8364 H         1 UNK         0.0600 
    229 H229       -4.4330  -21.7053  -51.4936 H         1 UNK         0.0600 
    230 H230       -5.0682  -18.8837  -53.8269 H         1 UNK         0.3000 
    231 H231       -7.8786  -19.5375  -54.5394 H         1 UNK         0.0600 
    232 H232       -7.9573  -17.1732  -55.2604 H         1 UNK         0.0600 
    233 H233       -6.5863  -17.9685  -56.0016 H         1 UNK         0.0600 
    234 H234       -6.3289  -16.8888  -54.6374 H         1 UNK         0.0600 
    235 H235       -8.2312  -16.6138  -53.3469 H         1 UNK         0.3000 
    236 H236       -9.4137  -17.2848  -50.8470 H         1 UNK         0.0600 
    237 H237       -9.6080  -14.8022  -50.6063 H         1 UNK         0.0600 
    238 H238       -8.5218  -14.5725  -51.9713 H         1 UNK         0.0600 
    239 H239      -10.1009  -15.3232  -52.2092 H         1 UNK         0.0600 
    240 H240       -6.1452  -16.5850  -51.7046 H         1 UNK         0.3000 
    241 H241       -5.0805  -16.0685  -49.0888 H         1 UNK         0.0600 
    242 H242       -6.3715  -19.0490  -50.3811 H         1 UNK         0.3800 
    243 H243       -5.5440  -20.0667  -49.2389 H         1 UNK         0.3800 
    244 H244       -3.7964  -15.2675  -50.9364 H         1 UNK         0.0800 
    245 H245       -2.8639  -16.5534  -50.2305 H         1 UNK         0.0800 
    246 H246       -2.0768  -16.8101  -54.1330 H         1 UNK         0.0800 
    247 H247       -2.3217  -15.3643  -53.1824 H         1 UNK         0.0800 
@<TRIPOS>BOND
     1    1    2 1    
     2    1  127 1    
     3    1  128 1    
     4    1  129 1    
     5    2    3 2    
     6    2    4 am   BACKBONE|DICT|INTERRES
     7    4    5 1    
     8    4  130 1    
     9    5    6 1    
    10    5   65 1    
    11    5  131 1    
    12    6    7 1    
    13    6  132 1    
    14    6  133 1    
    15    7    8 1    
    16    8    9 1    
    17    8  134 1    
    18    8  135 1    
    19    9   10 ar   
    20    9   14 ar   
    21   10   11 ar   
    22   10  136 1    
    23   11   12 ar   
    24   11  126 1    
    25   12   13 ar   
    26   12  137 1    
    27   13   14 ar   
    28   13   15 1    
    29   14  138 1    
    30   15   16 1    
    31   15  139 1    
    32   15  140 1    
    33   16   17 1    
    34   17   18 1    
    35   17  141 1    
    36   17  142 1    
    37   18   19 1    
    38   18   67 1    
    39   18  143 1    
    40   19   20 am   BACKBONE|DICT|INTERRES
    41   19  144 1    
    42   20   21 2    
    43   20   22 1    
    44   22   23 1    
    45   22   24 1    
    46   22  145 1    
    47   23  146 1    
    48   23  147 1    
    49   23  148 1    
    50   24   25 am   BACKBONE|DICT|INTERRES
    51   24  149 1    
    52   25   26 2    
    53   25   27 1    
    54   27   28 1    
    55   27   29 1    
    56   27  150 1    
    57   28  151 1    
    58   28  152 1    
    59   28  153 1    
    60   29   30 am   BACKBONE|DICT|INTERRES
    61   29  154 1    
    62   30   31 2    
    63   30   32 1    
    64   32   33 1    
    65   32   34 1    
    66   32  155 1    
    67   33  156 1    
    68   33  157 1    
    69   33  158 1    
    70   34   35 am   BACKBONE|DICT|INTERRES
    71   34  159 1    
    72   35   36 2    
    73   35   37 1    
    74   37   38 1    
    75   37   39 1    
    76   37  160 1    
    77   38  161 1    
    78   38  162 1    
    79   38  163 1    
    80   39   40 am   BACKBONE|DICT|INTERRES
    81   39  164 1    
    82   40   41 2    
    83   40   42 1    
    84   42   43 1    
    85   42   44 1    
    86   42  165 1    
    87   43  166 1    
    88   43  167 1    
    89   43  168 1    
    90   44   45 am   BACKBONE|DICT|INTERRES
    91   44  169 1    
    92   45   46 2    
    93   45   47 1    
    94   47   48 1    
    95   47   49 1    
    96   47  170 1    
    97   48  171 1    
    98   48  172 1    
    99   48  173 1    
   100   49   50 am   BACKBONE|DICT|INTERRES
   101   49  174 1    
   102   50   51 2    
   103   50   52 1    
   104   52   53 1    
   105   52   54 1    
   106   52  175 1    
   107   53  176 1    
   108   53  177 1    
   109   53  178 1    
   110   54   55 am   BACKBONE|DICT|INTERRES
   111   54  179 1    
   112   55   56 2    
   113   55   57 1    
   114   57   58 1    
   115   57   59 1    
   116   57  180 1    
   117   58  181 1    
   118   58  182 1    
   119   58  183 1    
   120   59   60 am   BACKBONE|DICT|INTERRES
   121   59  184 1    
   122   60   61 2    
   123   60   62 1    
   124   62   63 1    
   125   62   64 1    
   126   62  185 1    
   127   63  186 1    
   128   63  187 1    
   129   63  188 1    
   130   64   65 am   BACKBONE|DICT|INTERRES
   131   64  189 1    
   132   65   66 2    
   133   67   68 2    
   134   67   69 am   BACKBONE|DICT|INTERRES
   135   69   70 1    
   136   69  190 1    
   137   70   71 1    
   138   70   72 1    
   139   70  191 1    
   140   71  192 1    
   141   71  193 1    
   142   71  194 1    
   143   72   73 2    
   144   72   74 am   BACKBONE|DICT|INTERRES
   145   74   75 1    
   146   74  195 1    
   147   75   76 1    
   148   75   77 1    
   149   75  196 1    
   150   76  197 1    
   151   76  198 1    
   152   76  199 1    
   153   77   78 2    
   154   77   79 am   BACKBONE|DICT|INTERRES
   155   79   80 1    
   156   79  200 1    
   157   80   81 1    
   158   80   82 1    
   159   80  201 1    
   160   81  202 1    
   161   81  203 1    
   162   81  204 1    
   163   82   83 2    
   164   82   84 am   BACKBONE|DICT|INTERRES
   165   84   85 1    
   166   84  205 1    
   167   85   86 1    
   168   85   87 1    
   169   85  206 1    
   170   86  207 1    
   171   86  208 1    
   172   86  209 1    
   173   87   88 2    
   174   87   89 am   BACKBONE|DICT|INTERRES
   175   89   90 1    
   176   89  210 1    
   177   90   91 1    
   178   90   92 1    
   179   90  211 1    
   180   91  212 1    
   181   91  213 1    
   182   91  214 1    
   183   92   93 2    
   184   92   94 am   BACKBONE|DICT|INTERRES
   185   94   95 1    
   186   94  215 1    
   187   95   96 1    
   188   95   97 1    
   189   95  216 1    
   190   96  217 1    
   191   96  218 1    
   192   96  219 1    
   193   97   98 2    
   194   97   99 am   BACKBONE|DICT|INTERRES
   195   99  100 1    
   196   99  220 1    
   197  100  101 1    
   198  100  102 1    
   199  100  221 1    
   200  101  222 1    
   201  101  223 1    
   202  101  224 1    
   203  102  103 2    
   204  102  104 am   BACKBONE|DICT|INTERRES
   205  104  105 1    
   206  104  225 1    
   207  105  106 1    
   208  105  107 1    
   209  105  226 1    
   210  106  227 1    
   211  106  228 1    
   212  106  229 1    
   213  107  108 2    
   214  107  109 am   BACKBONE|DICT|INTERRES
   215  109  110 1    
   216  109  230 1    
   217  110  111 1    
   218  110  112 1    
   219  110  231 1    
   220  111  232 1    
   221  111  233 1    
   222  111  234 1    
   223  112  113 2    
   224  112  114 am   BACKBONE|DICT|INTERRES
   225  114  115 1    
   226  114  235 1    
   227  115  116 1    
   228  115  117 1    
   229  115  236 1    
   230  116  237 1    
   231  116  238 1    
   232  116  239 1    
   233  117  118 2    
   234  117  119 am   BACKBONE|DICT|INTERRES
   235  119  120 1    
   236  119  240 1    
   237  120  121 1    
   238  120  124 1    
   239  120  241 1    
   240  121  122 am   BACKBONE|DICT|INTERRES
   241  121  123 2    
   242  122  242 1    
   243  122  243 1    
   244  124  125 1    
   245  124  244 1    
   246  124  245 1    
   247  125  126 1    
   248  126  246 1    
   249  126  247 1    
@<TRIPOS>SUBSTRUCTURE
     1 UNK         1 GROUP             0       ****    0 ROOT    
