@<TRIPOS>MOLECULE
3R540
247   249    1
SMALL
USER_CHARGES


@<TRIPOS>ATOM
      1 CA         -4.3797   -9.0815  -50.7442 C.3       0 UNK        -0.1800 
      2 C          -3.2641   -9.9024  -50.1124 C.2       0 UNK         0.5000 
      3 O          -2.1075   -9.4795  -50.1281 O.2       0 UNK        -0.5000 
      4 N          -3.6046  -11.0756  -49.5668 N.am      1 UNK        -0.5000 
      5 CA         -2.6899  -11.9659  -48.8465 C.3       1 UNK         0.1400 
      6 C6         -3.2398  -13.4143  -48.7778 C.3       23 UNK        -0.0398 
      7 S7         -4.8601  -13.5684  -47.9421 S.3       23 UNK        -0.2404 
      8 C8         -4.7679  -15.2747  -47.2932 C.3       23 UNK        -0.0205 
      9 C9         -4.7293  -16.3856  -48.3458 C.ar      23 UNK        -0.0193 
     10 C10        -5.1150  -16.1811  -49.6779 C.ar      23 UNK        -0.1150 
     11 C11        -5.0545  -17.2203  -50.6087 C.ar      23 UNK        -0.0193 
     12 C12        -4.6404  -18.4888  -50.1974 C.ar      23 UNK        -0.1150 
     13 C13        -4.2753  -18.7177  -48.8684 C.ar      23 UNK        -0.0193 
     14 C14        -4.3114  -17.6615  -47.9532 C.ar      23 UNK        -0.1150 
     15 C15        -3.8184  -20.1012  -48.4364 C.3       23 UNK        -0.0205 
     16 S16        -5.1254  -21.0140  -47.5621 S.3       23 UNK        -0.2404 
     17 C17        -4.5833  -20.8500  -45.8261 C.3       23 UNK        -0.0398 
     18 CA         -3.5810  -21.9417  -45.3629 C.3       11 UNK         0.1400 
     19 N          -2.9699  -21.5666  -44.0796 N.am      11 UNK        -0.5000 
     20 C          -2.1676  -22.3111  -43.3029 C.2       10 UNK         0.5000 
     21 O          -1.8804  -23.4855  -43.5320 O.2       10 UNK        -0.5000 
     22 CA         -1.5935  -21.6043  -42.0659 C.3       10 UNK         0.1400 
     23 CB         -0.5592  -22.4538  -41.3051 C.3       10 UNK        -0.1800 
     24 N          -0.9680  -20.3568  -42.4889 N.am      10 UNK        -0.5000 
     25 C          -1.2287  -19.1472  -41.9813 C.2       9 UNK         0.5000 
     26 O          -2.0351  -18.9421  -41.0737 O.2       9 UNK        -0.5000 
     27 CA         -0.4629  -17.9600  -42.5916 C.3       9 UNK         0.1400 
     28 CB          0.8497  -17.7358  -41.8250 C.3       9 UNK        -0.1800 
     29 N          -0.1691  -18.1148  -44.0187 N.am      9 UNK        -0.5000 
     30 C          -1.0905  -18.1423  -44.9942 C.2       8 UNK         0.5000 
     31 O          -2.3038  -18.1155  -44.7895 O.2       8 UNK        -0.5000 
     32 CA         -0.5737  -18.2117  -46.4394 C.3       8 UNK         0.1400 
     33 CB         -0.1161  -16.8229  -46.9101 C.3       8 UNK        -0.1800 
     34 N           0.5387  -19.1502  -46.5565 N.am      8 UNK        -0.5000 
     35 C           0.4660  -20.3714  -47.1044 C.2       7 UNK         0.5000 
     36 O          -0.5414  -20.8402  -47.6357 O.2       7 UNK        -0.5000 
     37 CA          1.7508  -21.2197  -47.0667 C.3       7 UNK         0.1400 
     38 CB          2.5742  -20.9820  -48.3426 C.3       7 UNK        -0.1800 
     39 N           2.6018  -20.9700  -45.9032 N.am      7 UNK        -0.5000 
     40 C           2.2328  -21.0886  -44.6198 C.2       6 UNK         0.5000 
     41 O           1.1189  -21.4592  -44.2530 O.2       6 UNK        -0.5000 
     42 CA          3.2685  -20.6526  -43.5670 C.3       6 UNK         0.1400 
     43 CB          4.1145  -21.8547  -43.1229 C.3       6 UNK        -0.1800 
     44 N           4.1582  -19.5699  -44.0078 N.am      6 UNK        -0.5000 
     45 C           3.7705  -18.3700  -44.4624 C.2       5 UNK         0.5000 
     46 O           2.5907  -18.0361  -44.6171 O.2       5 UNK        -0.5000 
     47 CA          4.8893  -17.4012  -44.8592 C.3       5 UNK         0.1400 
     48 CB          5.4232  -17.7311  -46.2643 C.3       5 UNK        -0.1800 
     49 N           4.3532  -16.0469  -44.8415 N.am      5 UNK        -0.5000 
     50 C           5.0573  -14.9269  -44.6484 C.2       4 UNK         0.5000 
     51 O           6.2781  -14.9072  -44.4855 O.2       4 UNK        -0.5000 
     52 CA          4.2715  -13.6021  -44.6375 C.3       4 UNK         0.1400 
     53 CB          4.3862  -12.8983  -45.9986 C.3       4 UNK        -0.1800 
     54 N           2.8532  -13.7747  -44.3214 N.am      4 UNK        -0.5000 
     55 C           2.3469  -13.9824  -43.1005 C.2       3 UNK         0.5000 
     56 O           3.0423  -14.0684  -42.0873 O.2       3 UNK        -0.5000 
     57 CA          0.8059  -14.0871  -43.0047 C.3       3 UNK         0.1400 
     58 CB          0.3014  -14.1272  -41.5501 C.3       3 UNK        -0.1800 
     59 N           0.1170  -12.9963  -43.7016 N.am      3 UNK        -0.5000 
     60 C          -0.0345  -12.8885  -45.0258 C.2       2 UNK         0.5000 
     61 O           0.4142  -13.7077  -45.8330 O.2       2 UNK        -0.5000 
     62 CA         -0.7662  -11.6416  -45.5349 C.3       2 UNK         0.1400 
     63 CB          0.1677  -10.4192  -45.5500 C.3       2 UNK        -0.1800 
     64 N          -1.2342  -11.9187  -46.8862 N.am      2 UNK        -0.5000 
     65 C          -2.3347  -11.4132  -47.4475 C.2       1 UNK         0.5000 
     66 O          -3.0591  -10.5778  -46.8981 O.2       1 UNK        -0.5000 
     67 C          -4.2213  -23.3498  -45.3696 C.2       11 UNK         0.5000 
     68 O          -3.9702  -24.1265  -46.2921 O.2       11 UNK        -0.5000 
     69 N          -4.9988  -23.6674  -44.3246 N.am      12 UNK        -0.5000 
     70 CA         -5.6813  -24.9533  -44.1667 C.3       12 UNK         0.1400 
     71 CB         -6.6935  -24.8512  -43.0158 C.3       12 UNK        -0.1800 
     72 C          -4.7199  -26.1356  -43.9391 C.2       12 UNK         0.5000 
     73 O          -4.9484  -27.2147  -44.4861 O.2       12 UNK        -0.5000 
     74 N          -3.6563  -25.9109  -43.1556 N.am      13 UNK        -0.5000 
     75 CA         -2.6229  -26.9064  -42.8593 C.3       13 UNK         0.1400 
     76 CB         -1.8591  -26.4891  -41.5939 C.3       13 UNK        -0.1800 
     77 C          -1.6538  -27.0967  -44.0389 C.2       13 UNK         0.5000 
     78 O          -1.2106  -28.2167  -44.2936 O.2       13 UNK        -0.5000 
     79 N          -1.3705  -26.0004  -44.7536 N.am      14 UNK        -0.5000 
     80 CA         -0.5417  -25.9567  -45.9573 C.3       14 UNK         0.1400 
     81 CB         -0.1185  -24.5004  -46.2028 C.3       14 UNK        -0.1800 
     82 C          -1.2332  -26.5324  -47.2104 C.2       14 UNK         0.5000 
     83 O          -0.5743  -26.6705  -48.2407 O.2       14 UNK        -0.5000 
     84 N          -2.5376  -26.8317  -47.1133 N.am      15 UNK        -0.5000 
     85 CA         -3.4210  -27.3221  -48.1761 C.3       15 UNK         0.1400 
     86 CB         -2.9929  -28.7261  -48.6524 C.3       15 UNK        -0.1800 
     87 C          -3.5722  -26.3028  -49.3244 C.2       15 UNK         0.5000 
     88 O          -3.5462  -26.6740  -50.4991 O.2       15 UNK        -0.5000 
     89 N          -3.7297  -25.0286  -48.9400 N.am      16 UNK        -0.5000 
     90 CA         -3.9216  -23.8523  -49.7871 C.3       16 UNK         0.1400 
     91 CB         -5.2818  -23.9097  -50.5116 C.3       16 UNK        -0.1800 
     92 C          -2.7377  -23.5625  -50.7288 C.2       16 UNK         0.5000 
     93 O          -2.9466  -23.1628  -51.8733 O.2       16 UNK        -0.5000 
     94 N          -1.5078  -23.7424  -50.2267 N.am      17 UNK        -0.5000 
     95 CA         -0.2590  -23.5657  -50.9759 C.3       17 UNK         0.1400 
     96 CB          0.9297  -23.8990  -50.0640 C.3       17 UNK        -0.1800 
     97 C          -0.0830  -22.1715  -51.6129 C.2       17 UNK         0.5000 
     98 O           0.4157  -22.0796  -52.7353 O.2       17 UNK        -0.5000 
     99 N          -0.5288  -21.1166  -50.9142 N.am      18 UNK        -0.5000 
    100 CA        -0.4938  -19.7376  -51.4098 C.3       18 UNK         0.1400 
    101 CB        -0.6476  -18.7560  -50.2396 C.3       18 UNK        -0.1800 
    102 C         -1.5179  -19.4312  -52.5210 C.2       18 UNK         0.5000 
    103 O         -1.3735  -18.4044  -53.1844 O.2       18 UNK        -0.5000 
    104 N         -2.5054  -20.3117  -52.7588 N.am      19 UNK        -0.5000 
    105 CA        -3.5188  -20.1302  -53.8072 C.3       19 UNK         0.1400 
    106 CB        -4.6260  -21.1835  -53.6717 C.3       19 UNK        -0.1800 
    107 C         -2.9388  -20.1242  -55.2355 C.2       19 UNK         0.5000 
    108 O         -3.5439  -19.5353  -56.1321 O.2       19 UNK        -0.5000 
    109 N         -1.7497  -20.7186  -55.4089 N.am      20 UNK        -0.5000 
    110 CA        -0.9477  -20.6506  -56.6300 C.3       20 UNK         0.1400 
    111 CB         0.2423  -21.6126  -56.4967 C.3       20 UNK        -0.1800 
    112 C         -0.4569  -19.2249  -56.9600 C.2       20 UNK         0.5000 
    113 O         -0.2689  -18.9153  -58.1370 O.2       20 UNK        -0.5000 
    114 N         -0.2726  -18.3822  -55.9321 N.am      21 UNK        -0.5000 
    115 CA         0.0500  -16.9634  -56.0817 C.3       21 UNK         0.1400 
    116 CB         0.8532  -16.4819  -54.8629 C.3       21 UNK        -0.1800 
    117 C         -1.2209  -16.1160  -56.2711 C.2       21 UNK         0.5000 
    118 O         -1.1822  -15.1377  -57.0186 O.2       21 UNK        -0.5000 
    119 N         -2.3193  -16.5042  -55.6061 N.am      22 UNK        -0.5000 
    120 CA        -3.6439  -15.8723  -55.7424 C.3       22 UNK         0.1400 
    121 C         -4.2624  -16.0424  -57.1584 C.2       22 UNK         0.5000 
    122 N         -4.1799  -17.2237  -57.7586 N.am      22 UNK        -0.7600 
    123 O         -4.8203  -15.0992  -57.7124 O.2       22 UNK        -0.5000 
    124 C124       -4.6575  -16.3558  -54.6736 C.3       23 UNK        -0.0398 
    125 S125       -4.0507  -16.1993  -52.9627 S.3       23 UNK        -0.2404 
    126 C126       -5.4308  -16.9666  -52.0587 C.3       23 UNK        -0.0205 
    127 H127       -5.3451   -9.5826  -50.6677 H         1 UNK         0.0600 
    128 H128       -4.1686   -8.9101  -51.7998 H         1 UNK         0.0600 
    129 H129       -4.4592   -8.1135  -50.2494 H         1 UNK         0.0600 
    130 H130       -4.5754  -11.3539  -49.5483 H         1 UNK         0.3000 
    131 H131       -1.7588  -12.0040  -49.4166 H         1 UNK         0.0600 
    132 H132       -3.3449  -13.8065  -49.7903 H         1 UNK         0.0800 
    133 H133       -2.5181  -14.0706  -48.2882 H         1 UNK         0.0800 
    134 H134       -5.6366  -15.4427  -46.6556 H         1 UNK         0.0800 
    135 H135       -3.8928  -15.3527  -46.6457 H         1 UNK         0.0800 
    136 H136       -5.4537  -15.2116  -50.0114 H         1 UNK         0.1150 
    137 H137       -4.5980  -19.2968  -50.9138 H         1 UNK         0.1150 
    138 H138       -4.0196  -17.8344  -46.9272 H         1 UNK         0.1150 
    139 H139       -2.9392  -20.0190  -47.8020 H         1 UNK         0.0800 
    140 H140       -3.5053  -20.6778  -49.3072 H         1 UNK         0.0800 
    141 H141       -5.4709  -20.8526  -45.1913 H         1 UNK         0.0800 
    142 H142       -4.1429  -19.8609  -45.7022 H         1 UNK         0.0800 
    143 H143       -2.7589  -21.9674  -46.0812 H         1 UNK         0.0600 
    144 H144       -3.1137  -20.6073  -43.7966 H         1 UNK         0.3000 
    145 H145       -2.4340  -21.4110  -41.3966 H         1 UNK         0.0600 
    146 H146       -0.1432  -21.9041  -40.4607 H         1 UNK         0.0600 
    147 H147       -1.0163  -23.3593  -40.9067 H         1 UNK         0.0600 
    148 H148        0.2686  -22.7545  -41.9486 H         1 UNK         0.0600 
    149 H149       -0.2947  -20.4498  -43.2440 H         1 UNK         0.3000 
    150 H150       -1.0825  -17.0680  -42.4776 H         1 UNK         0.0600 
    151 H151        1.4688  -18.6312  -41.8179 H         1 UNK         0.0600 
    152 H152        0.6518  -17.4714  -40.7856 H         1 UNK         0.0600 
    153 H153        1.4415  -16.9323  -42.2609 H         1 UNK         0.0600 
    154 H154        0.8160  -18.1279  -44.2711 H         1 UNK         0.3000 
    155 H155       -1.4018  -18.5203  -47.0774 H         1 UNK         0.0600 
    156 H156        0.7226  -16.4514  -46.3198 H         1 UNK         0.0600 
    157 H157       -0.9248  -16.0954  -46.8266 H         1 UNK         0.0600 
    158 H158        0.1949  -16.8425  -47.9542 H         1 UNK         0.0600 
    159 H159        1.4079  -18.8708  -46.1178 H         1 UNK         0.3000 
    160 H160        1.4509  -22.2663  -47.0352 H         1 UNK         0.0600 
    161 H161        2.9814  -19.9706  -48.3745 H         1 UNK         0.0600 
    162 H162        1.9664  -21.1128  -49.2385 H         1 UNK         0.0600 
    163 H163        3.4067  -21.6824  -48.4109 H         1 UNK         0.0600 
    164 H164        3.5398  -20.6510  -46.0941 H         1 UNK         0.3000 
    165 H165        2.7161  -20.2943  -42.6984 H         1 UNK         0.0600 
    166 H166        4.7821  -21.5869  -42.3038 H         1 UNK         0.0600 
    167 H167        4.7231  -22.2431  -43.9405 H         1 UNK         0.0600 
    168 H168        3.4805  -22.6693  -42.7695 H         1 UNK         0.0600 
    169 H169        5.1477  -19.7576  -43.9317 H         1 UNK         0.3000 
    170 H170        5.6945  -17.4849  -44.1263 H         1 UNK         0.0600 
    171 H171        5.8297  -18.7423  -46.3050 H         1 UNK         0.0600 
    172 H172        4.6380  -17.6606  -47.0183 H         1 UNK         0.0600 
    173 H173        6.2242  -17.0503  -46.5526 H         1 UNK         0.0600 
    174 H174        3.3461  -15.9949  -44.9210 H         1 UNK         0.3000 
    175 H175        4.7216  -12.9571  -43.8799 H         1 UNK         0.0600 
    176 H176        3.9397  -13.4925  -46.7970 H         1 UNK         0.0600 
    177 H177        3.8886  -11.9283  -45.9840 H         1 UNK         0.0600 
    178 H178        5.4301  -12.7236  -46.2626 H         1 UNK         0.0600 
    179 H179        2.1979  -13.7280  -45.0962 H         1 UNK         0.3000 
    180 H180        0.5248  -15.0290  -43.4804 H         1 UNK         0.0600 
    181 H181        0.5134  -13.1942  -41.0268 H         1 UNK         0.0600 
    182 H182        0.7733  -14.9307  -40.9846 H         1 UNK         0.0600 
    183 H183       -0.7748  -14.2969  -41.5117 H         1 UNK         0.0600 
    184 H184       -0.2421  -12.2582  -43.1132 H         1 UNK         0.3000 
    185 H185       -1.6175  -11.4509  -44.8777 H         1 UNK         0.0600 
    186 H186       -0.3494   -9.5324  -45.9169 H         1 UNK         0.0600 
    187 H187        0.5328  -10.1899  -44.5483 H         1 UNK         0.0600 
    188 H188        1.0374  -10.5865  -46.1870 H         1 UNK         0.0600 
    189 H189       -0.7038  -12.6433  -47.3548 H         1 UNK         0.3000 
    190 H190       -5.1370  -22.9845  -43.5944 H         1 UNK         0.3000 
    191 H191       -6.2351  -25.1533  -45.0867 H         1 UNK         0.0600 
    192 H192       -7.2340  -25.7899  -42.8868 H         1 UNK         0.0600 
    193 H193       -7.4346  -24.0756  -43.2100 H         1 UNK         0.0600 
    194 H194       -6.2055  -24.6205  -42.0681 H         1 UNK         0.0600 
    195 H195       -3.4923  -24.9740  -42.8144 H         1 UNK         0.3000 
    196 H196       -3.1074  -27.8652  -42.6624 H         1 UNK         0.0600 
    197 H197       -1.3182  -25.5546  -41.7417 H         1 UNK         0.0600 
    198 H198       -2.5342  -26.3588  -40.7480 H         1 UNK         0.0600 
    199 H199       -1.1279  -27.2483  -41.3136 H         1 UNK         0.0600 
    200 H200       -1.7265  -25.1063  -44.4217 H         1 UNK         0.3000 
    201 H201        0.3572  -26.5498  -45.7780 H         1 UNK         0.0600 
    202 H202       -0.9751  -23.8605  -46.4190 H         1 UNK         0.0600 
    203 H203        0.5657  -24.4375  -47.0483 H         1 UNK         0.0600 
    204 H204        0.3968  -24.0849  -45.3362 H         1 UNK         0.0600 
    205 H205       -2.9868  -26.6412  -46.2282 H         1 UNK         0.3000 
    206 H206       -4.4098  -27.4181  -47.7251 H         1 UNK         0.0600 
    207 H207       -2.9030  -29.4158  -47.8132 H         1 UNK         0.0600 
    208 H208       -3.7292  -29.1452  -49.3390 H         1 UNK         0.0600 
    209 H209       -2.0360  -28.7058  -49.1745 H         1 UNK         0.0600 
    210 H210       -3.7434  -24.8335  -47.9393 H         1 UNK         0.3000 
    211 H211       -3.9527  -23.0127  -49.0992 H         1 UNK         0.0600 
    212 H212       -5.4946  -22.9680  -51.0179 H         1 UNK         0.0600 
    213 H213       -6.0949  -24.0864  -49.8075 H         1 UNK         0.0600 
    214 H214       -5.3078  -24.6995  -51.2628 H         1 UNK         0.0600 
    215 H215       -1.4231  -24.0989  -49.2864 H         1 UNK         0.3000 
    216 H216       -0.2695  -24.2899  -51.7929 H         1 UNK         0.0600 
    217 H217        0.9205  -23.2895  -49.1621 H         1 UNK         0.0600 
    218 H218        1.8795  -23.7262  -50.5719 H         1 UNK         0.0600 
    219 H219        0.9116  -24.9456  -49.7608 H         1 UNK         0.0600 
    220 H220       -0.9005  -21.2624  -49.9849 H         1 UNK         0.3000 
    221 H221        0.4913  -19.5634  -51.8481 H         1 UNK         0.0600 
    222 H222        0.2063  -18.8188  -49.5668 H         1 UNK         0.0600 
    223 H223       -1.5489  -18.9511  -49.6627 H         1 UNK         0.0600 
    224 H224       -0.7011  -17.7241  -50.5897 H         1 UNK         0.0600 
    225 H225       -2.5418  -21.1828  -52.2405 H         1 UNK         0.3000 
    226 H226       -3.9729  -19.1543  -53.6422 H         1 UNK         0.0600 
    227 H227       -4.2593  -22.1851  -53.8967 H         1 UNK         0.0600 
    228 H228       -5.0447  -21.1916  -52.6657 H         1 UNK         0.0600 
    229 H229       -5.4443  -20.9757  -54.3622 H         1 UNK         0.0600 
    230 H230       -1.3252  -21.1770  -54.6143 H         1 UNK         0.3000 
    231 H231       -1.5710  -20.9864  -57.4614 H         1 UNK         0.0600 
    232 H232        0.8867  -21.3408  -55.6594 H         1 UNK         0.0600 
    233 H233        0.8545  -21.6057  -57.3995 H         1 UNK         0.0600 
    234 H234       -0.0944  -22.6377  -56.3407 H         1 UNK         0.0600 
    235 H235       -0.4922  -18.6907  -54.9920 H         1 UNK         0.3000 
    236 H236        0.6781  -16.8287  -56.9649 H         1 UNK         0.0600 
    237 H237        1.7503  -17.0838  -54.7181 H         1 UNK         0.0600 
    238 H238        1.1730  -15.4477  -54.9955 H         1 UNK         0.0600 
    239 H239        0.2679  -16.5244  -53.9444 H         1 UNK         0.0600 
    240 H240       -2.2511  -17.2797  -54.9610 H         1 UNK         0.3000 
    241 H241       -3.4982  -14.8015  -55.5870 H         1 UNK         0.0600 
    242 H242       -4.5743  -17.3438  -58.6777 H         1 UNK         0.3800 
    243 H243       -3.7950  -18.0264  -57.2672 H         1 UNK         0.3800 
    244 H244       -4.9285  -17.3968  -54.8537 H         1 UNK         0.0800 
    245 H245       -5.5841  -15.7840  -54.7518 H         1 UNK         0.0800 
    246 H246       -5.7182  -17.9023  -52.5401 H         1 UNK         0.0800 
    247 H247       -6.3037  -16.3140  -52.1084 H         1 UNK         0.0800 
@<TRIPOS>BOND
     1    1    2 1    
     2    1  127 1    
     3    1  128 1    
     4    1  129 1    
     5    2    3 2    
     6    2    4 am   BACKBONE|DICT|INTERRES
     7    4    5 1    
     8    4  130 1    
     9    5    6 1    
    10    5   65 1    
    11    5  131 1    
    12    6    7 1    
    13    6  132 1    
    14    6  133 1    
    15    7    8 1    
    16    8    9 1    
    17    8  134 1    
    18    8  135 1    
    19    9   10 ar   
    20    9   14 ar   
    21   10   11 ar   
    22   10  136 1    
    23   11   12 ar   
    24   11  126 1    
    25   12   13 ar   
    26   12  137 1    
    27   13   14 ar   
    28   13   15 1    
    29   14  138 1    
    30   15   16 1    
    31   15  139 1    
    32   15  140 1    
    33   16   17 1    
    34   17   18 1    
    35   17  141 1    
    36   17  142 1    
    37   18   19 1    
    38   18   67 1    
    39   18  143 1    
    40   19   20 am   BACKBONE|DICT|INTERRES
    41   19  144 1    
    42   20   21 2    
    43   20   22 1    
    44   22   23 1    
    45   22   24 1    
    46   22  145 1    
    47   23  146 1    
    48   23  147 1    
    49   23  148 1    
    50   24   25 am   BACKBONE|DICT|INTERRES
    51   24  149 1    
    52   25   26 2    
    53   25   27 1    
    54   27   28 1    
    55   27   29 1    
    56   27  150 1    
    57   28  151 1    
    58   28  152 1    
    59   28  153 1    
    60   29   30 am   BACKBONE|DICT|INTERRES
    61   29  154 1    
    62   30   31 2    
    63   30   32 1    
    64   32   33 1    
    65   32   34 1    
    66   32  155 1    
    67   33  156 1    
    68   33  157 1    
    69   33  158 1    
    70   34   35 am   BACKBONE|DICT|INTERRES
    71   34  159 1    
    72   35   36 2    
    73   35   37 1    
    74   37   38 1    
    75   37   39 1    
    76   37  160 1    
    77   38  161 1    
    78   38  162 1    
    79   38  163 1    
    80   39   40 am   BACKBONE|DICT|INTERRES
    81   39  164 1    
    82   40   41 2    
    83   40   42 1    
    84   42   43 1    
    85   42   44 1    
    86   42  165 1    
    87   43  166 1    
    88   43  167 1    
    89   43  168 1    
    90   44   45 am   BACKBONE|DICT|INTERRES
    91   44  169 1    
    92   45   46 2    
    93   45   47 1    
    94   47   48 1    
    95   47   49 1    
    96   47  170 1    
    97   48  171 1    
    98   48  172 1    
    99   48  173 1    
   100   49   50 am   BACKBONE|DICT|INTERRES
   101   49  174 1    
   102   50   51 2    
   103   50   52 1    
   104   52   53 1    
   105   52   54 1    
   106   52  175 1    
   107   53  176 1    
   108   53  177 1    
   109   53  178 1    
   110   54   55 am   BACKBONE|DICT|INTERRES
   111   54  179 1    
   112   55   56 2    
   113   55   57 1    
   114   57   58 1    
   115   57   59 1    
   116   57  180 1    
   117   58  181 1    
   118   58  182 1    
   119   58  183 1    
   120   59   60 am   BACKBONE|DICT|INTERRES
   121   59  184 1    
   122   60   61 2    
   123   60   62 1    
   124   62   63 1    
   125   62   64 1    
   126   62  185 1    
   127   63  186 1    
   128   63  187 1    
   129   63  188 1    
   130   64   65 am   BACKBONE|DICT|INTERRES
   131   64  189 1    
   132   65   66 2    
   133   67   68 2    
   134   67   69 am   BACKBONE|DICT|INTERRES
   135   69   70 1    
   136   69  190 1    
   137   70   71 1    
   138   70   72 1    
   139   70  191 1    
   140   71  192 1    
   141   71  193 1    
   142   71  194 1    
   143   72   73 2    
   144   72   74 am   BACKBONE|DICT|INTERRES
   145   74   75 1    
   146   74  195 1    
   147   75   76 1    
   148   75   77 1    
   149   75  196 1    
   150   76  197 1    
   151   76  198 1    
   152   76  199 1    
   153   77   78 2    
   154   77   79 am   BACKBONE|DICT|INTERRES
   155   79   80 1    
   156   79  200 1    
   157   80   81 1    
   158   80   82 1    
   159   80  201 1    
   160   81  202 1    
   161   81  203 1    
   162   81  204 1    
   163   82   83 2    
   164   82   84 am   BACKBONE|DICT|INTERRES
   165   84   85 1    
   166   84  205 1    
   167   85   86 1    
   168   85   87 1    
   169   85  206 1    
   170   86  207 1    
   171   86  208 1    
   172   86  209 1    
   173   87   88 2    
   174   87   89 am   BACKBONE|DICT|INTERRES
   175   89   90 1    
   176   89  210 1    
   177   90   91 1    
   178   90   92 1    
   179   90  211 1    
   180   91  212 1    
   181   91  213 1    
   182   91  214 1    
   183   92   93 2    
   184   92   94 am   BACKBONE|DICT|INTERRES
   185   94   95 1    
   186   94  215 1    
   187   95   96 1    
   188   95   97 1    
   189   95  216 1    
   190   96  217 1    
   191   96  218 1    
   192   96  219 1    
   193   97   98 2    
   194   97   99 am   BACKBONE|DICT|INTERRES
   195   99  100 1    
   196   99  220 1    
   197  100  101 1    
   198  100  102 1    
   199  100  221 1    
   200  101  222 1    
   201  101  223 1    
   202  101  224 1    
   203  102  103 2    
   204  102  104 am   BACKBONE|DICT|INTERRES
   205  104  105 1    
   206  104  225 1    
   207  105  106 1    
   208  105  107 1    
   209  105  226 1    
   210  106  227 1    
   211  106  228 1    
   212  106  229 1    
   213  107  108 2    
   214  107  109 am   BACKBONE|DICT|INTERRES
   215  109  110 1    
   216  109  230 1    
   217  110  111 1    
   218  110  112 1    
   219  110  231 1    
   220  111  232 1    
   221  111  233 1    
   222  111  234 1    
   223  112  113 2    
   224  112  114 am   BACKBONE|DICT|INTERRES
   225  114  115 1    
   226  114  235 1    
   227  115  116 1    
   228  115  117 1    
   229  115  236 1    
   230  116  237 1    
   231  116  238 1    
   232  116  239 1    
   233  117  118 2    
   234  117  119 am   BACKBONE|DICT|INTERRES
   235  119  120 1    
   236  119  240 1    
   237  120  121 1    
   238  120  124 1    
   239  120  241 1    
   240  121  122 am   BACKBONE|DICT|INTERRES
   241  121  123 2    
   242  122  242 1    
   243  122  243 1    
   244  124  125 1    
   245  124  244 1    
   246  124  245 1    
   247  125  126 1    
   248  126  246 1    
   249  126  247 1    
@<TRIPOS>SUBSTRUCTURE
     1 UNK         1 GROUP             0       ****    0 ROOT    
