@<TRIPOS>MOLECULE
3R540
247   249    1
SMALL
USER_CHARGES


@<TRIPOS>ATOM
      1 CA          5.4958  -16.0442  -51.6554 C.3       0 UNK        -0.1800 
      2 C           4.8114  -14.8154  -51.0762 C.2       0 UNK         0.5000 
      3 O           5.4796  -13.8289  -50.7640 O.2       0 UNK        -0.5000 
      4 N           3.4840  -14.8677  -50.9375 N.am      1 UNK        -0.5000 
      5 CA          2.6505  -13.7923  -50.4079 C.3       1 UNK         0.1400 
      6 C6          2.7670  -13.6307  -48.8650 C.3       23 UNK        -0.0398 
      7 S7          1.9004  -14.8792  -47.8456 S.3       23 UNK        -0.2404 
      8 C8          3.2519  -15.9828  -47.3068 C.3       23 UNK        -0.0205 
      9 C9          3.5681  -17.1623  -48.2278 C.ar      23 UNK        -0.0193 
     10 C10         2.7657  -17.5167  -49.3212 C.ar      23 UNK        -0.1150 
     11 C11         3.0835  -18.6199  -50.1156 C.ar      23 UNK        -0.0193 
     12 C12         4.2098  -19.3850  -49.8110 C.ar      23 UNK        -0.1150 
     13 C13         4.9981  -19.0722  -48.7004 C.ar      23 UNK        -0.0193 
     14 C14         4.6793  -17.9550  -47.9240 C.ar      23 UNK        -0.1150 
     15 C15         6.1756  -19.9594  -48.3224 C.3       23 UNK        -0.0205 
     16 S16         5.7057  -21.2174  -47.0872 S.3       23 UNK        -0.2404 
     17 C17         4.4838  -22.1839  -48.0351 C.3       23 UNK        -0.0398 
     18 CA          3.9740  -23.4466  -47.3007 C.3       11 UNK         0.1400 
     19 N           3.3018  -23.1175  -46.0454 N.am      11 UNK        -0.5000 
     20 C           3.4269  -23.8056  -44.9041 C.2       10 UNK         0.5000 
     21 O           4.1392  -24.8024  -44.7778 O.2       10 UNK        -0.5000 
     22 CA          2.6173  -23.3002  -43.6925 C.3       10 UNK         0.1400 
     23 CB          3.4904  -22.4073  -42.7981 C.3       10 UNK        -0.1800 
     24 N           1.4123  -22.5617  -44.0736 N.am      10 UNK        -0.5000 
     25 C           0.3436  -23.1155  -44.6631 C.2       9 UNK         0.5000 
     26 O           0.2423  -24.3185  -44.8991 O.2       9 UNK        -0.5000 
     27 CA         -0.7865  -22.1717  -45.1101 C.3       9 UNK         0.1400 
     28 CB         -1.9075  -22.1496  -44.0607 C.3       9 UNK        -0.1800 
     29 N          -0.3467  -20.8031  -45.3985 N.am      9 UNK        -0.5000 
     30 C           0.5380  -20.4713  -46.3504 C.2       8 UNK         0.5000 
     31 O           1.1029  -21.2981  -47.0682 O.2       8 UNK        -0.5000 
     32 CA          0.8748  -18.9815  -46.5227 C.3       8 UNK         0.1400 
     33 CB         -0.0538  -18.3378  -47.5576 C.3       8 UNK        -0.1800 
     34 N           0.8302  -18.1967  -45.2893 N.am      8 UNK        -0.5000 
     35 C           1.6472  -18.3727  -44.2415 C.2       7 UNK         0.5000 
     36 O           2.4650  -19.2886  -44.1546 O.2       7 UNK        -0.5000 
     37 CA          1.5197  -17.3560  -43.0966 C.3       7 UNK         0.1400 
     38 CB          2.1565  -16.0108  -43.4824 C.3       7 UNK        -0.1800 
     39 N           0.1174  -17.1469  -42.7476 N.am      7 UNK        -0.5000 
     40 C          -0.5474  -17.8697  -41.8360 C.2       6 UNK         0.5000 
     41 O          -0.0210  -18.7255  -41.1238 O.2       6 UNK        -0.5000 
     42 CA         -2.0608  -17.6054  -41.6996 C.3       6 UNK         0.1400 
     43 CB         -2.3284  -16.5719  -40.5950 C.3       6 UNK        -0.1800 
     44 N          -2.6976  -17.1536  -42.9387 N.am      6 UNK        -0.5000 
     45 C          -2.7660  -17.8707  -44.0686 C.2       5 UNK         0.5000 
     46 O          -2.2953  -18.9994  -44.1903 O.2       5 UNK        -0.5000 
     47 CA         -3.4185  -17.1887  -45.2838 C.3       5 UNK         0.1400 
     48 CB         -4.9381  -17.4060  -45.2728 C.3       5 UNK        -0.1800 
     49 N          -3.1413  -15.7558  -45.3882 N.am      5 UNK        -0.5000 
     50 C          -1.9347  -15.1761  -45.4144 C.2       4 UNK         0.5000 
     51 O          -0.8762  -15.7974  -45.2924 O.2       4 UNK        -0.5000 
     52 CA         -1.9362  -13.6461  -45.6094 C.3       4 UNK         0.1400 
     53 CB         -0.5475  -13.0179  -45.4059 C.3       4 UNK        -0.1800 
     54 N          -2.4458  -13.2601  -46.9270 N.am      4 UNK        -0.5000 
     55 C          -3.7251  -13.2782  -47.3201 C.2       3 UNK         0.5000 
     56 O          -4.6458  -13.6362  -46.5834 O.2       3 UNK        -0.5000 
     57 CA         -4.0573  -12.8366  -48.7630 C.3       3 UNK         0.1400 
     58 CB         -4.5131  -11.3651  -48.7862 C.3       3 UNK        -0.1800 
     59 N          -3.0241  -13.0779  -49.7844 N.am      3 UNK        -0.5000 
     60 C          -1.8016  -12.5401  -49.8910 C.2       2 UNK         0.5000 
     61 O          -1.3012  -11.7839  -49.0548 O.2       2 UNK        -0.5000 
     62 CA         -1.0100  -12.8931  -51.1582 C.3       2 UNK         0.1400 
     63 CB         -1.2584  -11.8456  -52.2542 C.3       2 UNK        -0.1800 
     64 N           0.4129  -12.9111  -50.8343 N.am      2 UNK        -0.5000 
     65 C           1.2052  -13.9838  -50.9034 C.2       1 UNK         0.5000 
     66 O           0.8368  -15.0799  -51.3405 O.2       1 UNK        -0.5000 
     67 C           3.0141  -24.2200  -48.2228 C.2       11 UNK         0.5000 
     68 O           3.3713  -25.2877  -48.7218 O.2       11 UNK        -0.5000 
     69 N           1.8315  -23.6396  -48.4686 N.am      12 UNK        -0.5000 
     70 CA          0.9063  -24.0658  -49.5178 C.3       12 UNK         0.1400 
     71 CB          0.0878  -22.8437  -49.9669 C.3       12 UNK        -0.1800 
     72 C          -0.0271  -25.2178  -49.1081 C.2       12 UNK         0.5000 
     73 O          -0.5265  -25.9128  -49.9944 O.2       12 UNK        -0.5000 
     74 N          -0.2589  -25.3885  -47.7963 N.am      13 UNK        -0.5000 
     75 CA         -1.2428  -26.2931  -47.1841 C.3       13 UNK         0.1400 
     76 CB         -0.9030  -27.7679  -47.4915 C.3       13 UNK        -0.1800 
     77 C          -2.6997  -25.9278  -47.5535 C.2       13 UNK         0.5000 
     78 O          -2.9435  -24.8791  -48.1566 O.2       13 UNK        -0.5000 
     79 N          -3.6558  -26.7752  -47.1410 N.am      14 UNK        -0.5000 
     80 CA         -5.0958  -26.6932  -47.4365 C.3       14 UNK         0.1400 
     81 CB         -5.3475  -27.0672  -48.9122 C.3       14 UNK        -0.1800 
     82 C          -5.7352  -25.3399  -47.0512 C.2       14 UNK         0.5000 
     83 O          -6.5294  -24.7887  -47.8162 O.2       14 UNK        -0.5000 
     84 N          -5.3259  -24.8043  -45.8902 N.am      15 UNK        -0.5000 
     85 CA         -5.6745  -23.4767  -45.3665 C.3       15 UNK         0.1400 
     86 CB         -7.1656  -23.4178  -44.9723 C.3       15 UNK        -0.1800 
     87 C          -5.2617  -22.3390  -46.3257 C.2       15 UNK         0.5000 
     88 O          -6.0363  -21.4103  -46.5524 O.2       15 UNK        -0.5000 
     89 N          -4.0571  -22.4659  -46.9016 N.am      16 UNK        -0.5000 
     90 CA         -3.4716  -21.6105  -47.9386 C.3       16 UNK         0.1400 
     91 CB         -3.2867  -20.1669  -47.4393 C.3       16 UNK        -0.1800 
     92 C          -4.2618  -21.6853  -49.2560 C.2       16 UNK         0.5000 
     93 O          -4.5616  -20.6505  -49.8540 O.2       16 UNK        -0.5000 
     94 N          -4.6139  -22.9159  -49.6543 N.am      17 UNK        -0.5000 
     95 CA         -5.4752  -23.2582  -50.7907 C.3       17 UNK         0.1400 
     96 CB         -4.7343  -23.0026  -52.1192 C.3       17 UNK        -0.1800 
     97 C          -6.8464  -22.5520  -50.7078 C.2       17 UNK         0.5000 
     98 O          -7.2598  -21.8823  -51.6552 O.2       17 UNK        -0.5000 
     99 N          -7.4973  -22.6908  -49.5432 N.am      18 UNK        -0.5000 
    100 CA        -8.7432  -22.0321  -49.1374 C.3       18 UNK         0.1400 
    101 CB        -9.9330  -22.5401  -49.9783 C.3       18 UNK        -0.1800 
    102 C         -8.6178  -20.4922  -49.1199 C.2       18 UNK         0.5000 
    103 O         -9.4330  -19.7905  -49.7218 O.2       18 UNK        -0.5000 
    104 N         -7.5844  -20.0068  -48.4178 N.am      19 UNK        -0.5000 
    105 CA        -7.2323  -18.6042  -48.1762 C.3       19 UNK         0.1400 
    106 CB        -8.3018  -17.9164  -47.3030 C.3       19 UNK        -0.1800 
    107 C         -6.8782  -17.7970  -49.4436 C.2       19 UNK         0.5000 
    108 O         -7.0185  -16.5726  -49.4482 O.2       19 UNK        -0.5000 
    109 N         -6.4071  -18.4841  -50.4902 N.am      20 UNK        -0.5000 
    110 CA        -5.9560  -17.8779  -51.7408 C.3       20 UNK         0.1400 
    111 CB        -6.1317  -18.8920  -52.8804 C.3       20 UNK        -0.1800 
    112 C         -4.4920  -17.4103  -51.6638 C.2       20 UNK         0.5000 
    113 O         -4.1515  -16.4003  -52.2816 O.2       20 UNK        -0.5000 
    114 N         -3.6595  -18.1556  -50.9197 N.am      21 UNK        -0.5000 
    115 CA        -2.2002  -18.0353  -50.8475 C.3       21 UNK         0.1400 
    116 CB        -1.7827  -16.7227  -50.1534 C.3       21 UNK        -0.1800 
    117 C         -1.5588  -18.2890  -52.2303 C.2       21 UNK         0.5000 
    118 O         -1.9145  -19.2886  -52.8591 O.2       21 UNK        -0.5000 
    119 N         -0.6332  -17.4334  -52.6841 N.am      22 UNK        -0.5000 
    120 CA         0.0449  -17.5931  -53.9846 C.3       22 UNK         0.1400 
    121 C          0.3552  -16.2694  -54.7371 C.2       22 UNK         0.5000 
    122 N          0.3831  -15.1147  -54.0872 N.am      22 UNK        -0.7600 
    123 O          0.5454  -16.2868  -55.9505 O.2       22 UNK        -0.5000 
    124 C124        1.2746  -18.5357  -53.9012 C.3       23 UNK        -0.0398 
    125 S125        2.5642  -17.9640  -52.7406 S.3       23 UNK        -0.2404 
    126 C126        2.1950  -18.9920  -51.2885 C.3       23 UNK        -0.0205 
    127 H127        5.2999  -16.9182  -51.0355 H         1 UNK         0.0600 
    128 H128        6.5751  -15.9007  -51.7050 H         1 UNK         0.0600 
    129 H129        5.1329  -16.2440  -52.6634 H         1 UNK         0.0600 
    130 H130        2.9648  -15.6864  -51.2329 H         1 UNK         0.3000 
    131 H131        3.0031  -12.8656  -50.8661 H         1 UNK         0.0600 
    132 H132        3.8151  -13.5829  -48.5692 H         1 UNK         0.0800 
    133 H133        2.3551  -12.6615  -48.5807 H         1 UNK         0.0800 
    134 H134        4.1555  -15.3964  -47.1368 H         1 UNK         0.0800 
    135 H135        2.9703  -16.3926  -46.3374 H         1 UNK         0.0800 
    136 H136        1.8855  -16.9430  -49.5687 H         1 UNK         0.1150 
    137 H137        4.4550  -20.2434  -50.4203 H         1 UNK         0.1150 
    138 H138        5.2880  -17.7156  -47.0632 H         1 UNK         0.1150 
    139 H139        6.5831  -20.4504  -49.2075 H         1 UNK         0.0800 
    140 H140        6.9819  -19.3474  -47.9157 H         1 UNK         0.0800 
    141 H141        4.9383  -22.4566  -48.9895 H         1 UNK         0.0800 
    142 H142        3.6438  -21.5272  -48.2649 H         1 UNK         0.0800 
    143 H143        4.8363  -24.0879  -47.1059 H         1 UNK         0.0600 
    144 H144        2.6706  -22.3266  -46.0712 H         1 UNK         0.3000 
    145 H145        2.3115  -24.1724  -43.1110 H         1 UNK         0.0600 
    146 H146        2.9422  -22.0707  -41.9180 H         1 UNK         0.0600 
    147 H147        4.3698  -22.9485  -42.4467 H         1 UNK         0.0600 
    148 H148        3.8419  -21.5245  -43.3335 H         1 UNK         0.0600 
    149 H149        1.4325  -21.5585  -43.9451 H         1 UNK         0.3000 
    150 H150       -1.1956  -22.5841  -46.0341 H         1 UNK         0.0600 
    151 H151       -2.2404  -23.1593  -43.8171 H         1 UNK         0.0600 
    152 H152       -2.7778  -21.6036  -44.4230 H         1 UNK         0.0600 
    153 H153       -1.5789  -21.6767  -43.1343 H         1 UNK         0.0600 
    154 H154       -0.8049  -20.0634  -44.8726 H         1 UNK         0.3000 
    155 H155        1.8958  -18.9364  -46.9030 H         1 UNK         0.0600 
    156 H156       -0.0371  -18.8884  -48.4987 H         1 UNK         0.0600 
    157 H157        0.2467  -17.3134  -47.7700 H         1 UNK         0.0600 
    158 H158       -1.0805  -18.3044  -47.2021 H         1 UNK         0.0600 
    159 H159        0.1969  -17.4019  -45.2836 H         1 UNK         0.3000 
    160 H160        2.0641  -17.7470  -42.2342 H         1 UNK         0.0600 
    161 H161        1.6578  -15.5519  -44.3371 H         1 UNK         0.0600 
    162 H162        3.2074  -16.1384  -43.7449 H         1 UNK         0.0600 
    163 H163        2.1122  -15.3042  -42.6537 H         1 UNK         0.0600 
    164 H164       -0.4007  -16.5047  -43.3345 H         1 UNK         0.3000 
    165 H165       -2.5314  -18.5472  -41.4096 H         1 UNK         0.0600 
    166 H166       -3.3976  -16.4403  -40.4275 H         1 UNK         0.0600 
    167 H167       -1.8894  -16.8894  -39.6482 H         1 UNK         0.0600 
    168 H168       -1.9037  -15.5985  -40.8437 H         1 UNK         0.0600 
    169 H169       -3.0985  -16.2274  -42.9343 H         1 UNK         0.3000 
    170 H170       -3.0157  -17.6539  -46.1824 H         1 UNK         0.0600 
    171 H171       -5.1831  -18.4693  -45.2634 H         1 UNK         0.0600 
    172 H172       -5.4028  -16.9539  -44.3958 H         1 UNK         0.0600 
    173 H173       -5.4024  -16.9688  -46.1566 H         1 UNK         0.0600 
    174 H174       -3.9400  -15.1515  -45.5567 H         1 UNK         0.3000 
    175 H175       -2.5967  -13.2275  -44.8474 H         1 UNK         0.0600 
    176 H176        0.1546  -13.3404  -46.1727 H         1 UNK         0.0600 
    177 H177       -0.5997  -11.9297  -45.4404 H         1 UNK         0.0600 
    178 H178       -0.1278  -13.2932  -44.4375 H         1 UNK         0.0600 
    179 H179       -1.7665  -12.9005  -47.5904 H         1 UNK         0.3000 
    180 H180       -4.9103  -13.4440  -49.0705 H         1 UNK         0.0600 
    181 H181       -3.7167  -10.6874  -48.4774 H         1 UNK         0.0600 
    182 H182       -5.3542  -11.2068  -48.1099 H         1 UNK         0.0600 
    183 H183       -4.8389  -11.0685  -49.7832 H         1 UNK         0.0600 
    184 H184       -3.3168  -13.7068  -50.5196 H         1 UNK         0.3000 
    185 H185       -1.3413  -13.8628  -51.5305 H         1 UNK         0.0600 
    186 H186       -2.3140  -11.8065  -52.5261 H         1 UNK         0.0600 
    187 H187       -0.9640  -10.8458  -51.9322 H         1 UNK         0.0600 
    188 H188       -0.6989  -12.0842  -53.1589 H         1 UNK         0.0600 
    189 H189        0.7588  -12.0657  -50.4015 H         1 UNK         0.3000 
    190 H190        1.5981  -22.7690  -47.9943 H         1 UNK         0.3000 
    191 H191        1.4850  -24.4110  -50.3774 H         1 UNK         0.0600 
    192 H192        0.7324  -22.0705  -50.3855 H         1 UNK         0.0600 
    193 H193       -0.6392  -23.1130  -50.7344 H         1 UNK         0.0600 
    194 H194       -0.4591  -22.4036  -49.1343 H         1 UNK         0.0600 
    195 H195        0.2135  -24.7724  -47.1483 H         1 UNK         0.3000 
    196 H196       -1.1571  -26.1532  -46.1067 H         1 UNK         0.0600 
    197 H197       -1.4722  -28.4476  -46.8571 H         1 UNK         0.0600 
    198 H198        0.1521  -27.9735  -47.3101 H         1 UNK         0.0600 
    199 H199       -1.1210  -28.0302  -48.5272 H         1 UNK         0.0600 
    200 H200       -3.3712  -27.5915  -46.6179 H         1 UNK         0.3000 
    201 H201       -5.5864  -27.4450  -46.8168 H         1 UNK         0.0600 
    202 H202       -4.9453  -28.0542  -49.1406 H         1 UNK         0.0600 
    203 H203       -4.8841  -26.3538  -49.5939 H         1 UNK         0.0600 
    204 H204       -6.4143  -27.0940  -49.1375 H         1 UNK         0.0600 
    205 H205       -4.6667  -25.3350  -45.3385 H         1 UNK         0.3000 
    206 H206       -5.0873  -23.3357  -44.4580 H         1 UNK         0.0600 
    207 H207       -7.4235  -24.2233  -44.2850 H         1 UNK         0.0600 
    208 H208       -7.3997  -22.4776  -44.4716 H         1 UNK         0.0600 
    209 H209       -7.8203  -23.4955  -45.8407 H         1 UNK         0.0600 
    210 H210       -3.5554  -23.3285  -46.7382 H         1 UNK         0.3000 
    211 H211       -2.4831  -22.0166  -48.1486 H         1 UNK         0.0600 
    212 H212       -4.2381  -19.6659  -47.2715 H         1 UNK         0.0600 
    213 H213       -2.7364  -19.5746  -48.1675 H         1 UNK         0.0600 
    214 H214       -2.7306  -20.1449  -46.5063 H         1 UNK         0.0600 
    215 H215       -4.2852  -23.6977  -49.0956 H         1 UNK         0.3000 
    216 H216       -5.6755  -24.3280  -50.7226 H         1 UNK         0.0600 
    217 H217       -3.7993  -23.5614  -52.1597 H         1 UNK         0.0600 
    218 H218       -4.4973  -21.9475  -52.2569 H         1 UNK         0.0600 
    219 H219       -5.3383  -23.3173  -52.9709 H         1 UNK         0.0600 
    220 H220       -7.0777  -23.2987  -48.8425 H         1 UNK         0.3000 
    221 H221       -8.9216  -22.3345  -48.1043 H         1 UNK         0.0600 
    222 H222       -9.8482  -22.2462  -51.0248 H         1 UNK         0.0600 
    223 H223      -10.0061  -23.6269  -49.9399 H         1 UNK         0.0600 
    224 H224      -10.8744  -22.1381  -49.6023 H         1 UNK         0.0600 
    225 H225       -6.9876  -20.6706  -47.9271 H         1 UNK         0.3000 
    226 H226       -6.3141  -18.6395  -47.5924 H         1 UNK         0.0600 
    227 H227       -8.4977  -18.4903  -46.3972 H         1 UNK         0.0600 
    228 H228       -7.9757  -16.9239  -46.9900 H         1 UNK         0.0600 
    229 H229       -9.2446  -17.7979  -47.8376 H         1 UNK         0.0600 
    230 H230       -6.2564  -19.4812  -50.3866 H         1 UNK         0.3000 
    231 H231       -6.5771  -17.0083  -51.9658 H         1 UNK         0.0600 
    232 H232       -5.5294  -19.7863  -52.7172 H         1 UNK         0.0600 
    233 H233       -5.8307  -18.4625  -53.8367 H         1 UNK         0.0600 
    234 H234       -7.1722  -19.2036  -52.9740 H         1 UNK         0.0600 
    235 H235       -4.0427  -19.0008  -50.5009 H         1 UNK         0.3000 
    236 H236       -1.8618  -18.8581  -50.2182 H         1 UNK         0.0600 
    237 H237       -2.2641  -16.6240  -49.1802 H         1 UNK         0.0600 
    238 H238       -0.7074  -16.6942  -49.9798 H         1 UNK         0.0600 
    239 H239       -2.0512  -15.8502  -50.7443 H         1 UNK         0.0600 
    240 H240       -0.3477  -16.6399  -52.1232 H         1 UNK         0.3000 
    241 H241       -0.6649  -18.0822  -54.6550 H         1 UNK         0.0600 
    242 H242        0.5695  -14.2724  -54.6064 H         1 UNK         0.3800 
    243 H243        0.3786  -15.0883  -53.0721 H         1 UNK         0.3800 
    244 H244        1.7301  -18.6541  -54.8857 H         1 UNK         0.0800 
    245 H245        0.9500  -19.5364  -53.6133 H         1 UNK         0.0800 
    246 H246        2.3229  -20.0446  -51.5457 H         1 UNK         0.0800 
    247 H247        1.1505  -18.8682  -51.0023 H         1 UNK         0.0800 
@<TRIPOS>BOND
     1    1    2 1    
     2    1  127 1    
     3    1  128 1    
     4    1  129 1    
     5    2    3 2    
     6    2    4 am   BACKBONE|DICT|INTERRES
     7    4    5 1    
     8    4  130 1    
     9    5    6 1    
    10    5   65 1    
    11    5  131 1    
    12    6    7 1    
    13    6  132 1    
    14    6  133 1    
    15    7    8 1    
    16    8    9 1    
    17    8  134 1    
    18    8  135 1    
    19    9   10 ar   
    20    9   14 ar   
    21   10   11 ar   
    22   10  136 1    
    23   11   12 ar   
    24   11  126 1    
    25   12   13 ar   
    26   12  137 1    
    27   13   14 ar   
    28   13   15 1    
    29   14  138 1    
    30   15   16 1    
    31   15  139 1    
    32   15  140 1    
    33   16   17 1    
    34   17   18 1    
    35   17  141 1    
    36   17  142 1    
    37   18   19 1    
    38   18   67 1    
    39   18  143 1    
    40   19   20 am   BACKBONE|DICT|INTERRES
    41   19  144 1    
    42   20   21 2    
    43   20   22 1    
    44   22   23 1    
    45   22   24 1    
    46   22  145 1    
    47   23  146 1    
    48   23  147 1    
    49   23  148 1    
    50   24   25 am   BACKBONE|DICT|INTERRES
    51   24  149 1    
    52   25   26 2    
    53   25   27 1    
    54   27   28 1    
    55   27   29 1    
    56   27  150 1    
    57   28  151 1    
    58   28  152 1    
    59   28  153 1    
    60   29   30 am   BACKBONE|DICT|INTERRES
    61   29  154 1    
    62   30   31 2    
    63   30   32 1    
    64   32   33 1    
    65   32   34 1    
    66   32  155 1    
    67   33  156 1    
    68   33  157 1    
    69   33  158 1    
    70   34   35 am   BACKBONE|DICT|INTERRES
    71   34  159 1    
    72   35   36 2    
    73   35   37 1    
    74   37   38 1    
    75   37   39 1    
    76   37  160 1    
    77   38  161 1    
    78   38  162 1    
    79   38  163 1    
    80   39   40 am   BACKBONE|DICT|INTERRES
    81   39  164 1    
    82   40   41 2    
    83   40   42 1    
    84   42   43 1    
    85   42   44 1    
    86   42  165 1    
    87   43  166 1    
    88   43  167 1    
    89   43  168 1    
    90   44   45 am   BACKBONE|DICT|INTERRES
    91   44  169 1    
    92   45   46 2    
    93   45   47 1    
    94   47   48 1    
    95   47   49 1    
    96   47  170 1    
    97   48  171 1    
    98   48  172 1    
    99   48  173 1    
   100   49   50 am   BACKBONE|DICT|INTERRES
   101   49  174 1    
   102   50   51 2    
   103   50   52 1    
   104   52   53 1    
   105   52   54 1    
   106   52  175 1    
   107   53  176 1    
   108   53  177 1    
   109   53  178 1    
   110   54   55 am   BACKBONE|DICT|INTERRES
   111   54  179 1    
   112   55   56 2    
   113   55   57 1    
   114   57   58 1    
   115   57   59 1    
   116   57  180 1    
   117   58  181 1    
   118   58  182 1    
   119   58  183 1    
   120   59   60 am   BACKBONE|DICT|INTERRES
   121   59  184 1    
   122   60   61 2    
   123   60   62 1    
   124   62   63 1    
   125   62   64 1    
   126   62  185 1    
   127   63  186 1    
   128   63  187 1    
   129   63  188 1    
   130   64   65 am   BACKBONE|DICT|INTERRES
   131   64  189 1    
   132   65   66 2    
   133   67   68 2    
   134   67   69 am   BACKBONE|DICT|INTERRES
   135   69   70 1    
   136   69  190 1    
   137   70   71 1    
   138   70   72 1    
   139   70  191 1    
   140   71  192 1    
   141   71  193 1    
   142   71  194 1    
   143   72   73 2    
   144   72   74 am   BACKBONE|DICT|INTERRES
   145   74   75 1    
   146   74  195 1    
   147   75   76 1    
   148   75   77 1    
   149   75  196 1    
   150   76  197 1    
   151   76  198 1    
   152   76  199 1    
   153   77   78 2    
   154   77   79 am   BACKBONE|DICT|INTERRES
   155   79   80 1    
   156   79  200 1    
   157   80   81 1    
   158   80   82 1    
   159   80  201 1    
   160   81  202 1    
   161   81  203 1    
   162   81  204 1    
   163   82   83 2    
   164   82   84 am   BACKBONE|DICT|INTERRES
   165   84   85 1    
   166   84  205 1    
   167   85   86 1    
   168   85   87 1    
   169   85  206 1    
   170   86  207 1    
   171   86  208 1    
   172   86  209 1    
   173   87   88 2    
   174   87   89 am   BACKBONE|DICT|INTERRES
   175   89   90 1    
   176   89  210 1    
   177   90   91 1    
   178   90   92 1    
   179   90  211 1    
   180   91  212 1    
   181   91  213 1    
   182   91  214 1    
   183   92   93 2    
   184   92   94 am   BACKBONE|DICT|INTERRES
   185   94   95 1    
   186   94  215 1    
   187   95   96 1    
   188   95   97 1    
   189   95  216 1    
   190   96  217 1    
   191   96  218 1    
   192   96  219 1    
   193   97   98 2    
   194   97   99 am   BACKBONE|DICT|INTERRES
   195   99  100 1    
   196   99  220 1    
   197  100  101 1    
   198  100  102 1    
   199  100  221 1    
   200  101  222 1    
   201  101  223 1    
   202  101  224 1    
   203  102  103 2    
   204  102  104 am   BACKBONE|DICT|INTERRES
   205  104  105 1    
   206  104  225 1    
   207  105  106 1    
   208  105  107 1    
   209  105  226 1    
   210  106  227 1    
   211  106  228 1    
   212  106  229 1    
   213  107  108 2    
   214  107  109 am   BACKBONE|DICT|INTERRES
   215  109  110 1    
   216  109  230 1    
   217  110  111 1    
   218  110  112 1    
   219  110  231 1    
   220  111  232 1    
   221  111  233 1    
   222  111  234 1    
   223  112  113 2    
   224  112  114 am   BACKBONE|DICT|INTERRES
   225  114  115 1    
   226  114  235 1    
   227  115  116 1    
   228  115  117 1    
   229  115  236 1    
   230  116  237 1    
   231  116  238 1    
   232  116  239 1    
   233  117  118 2    
   234  117  119 am   BACKBONE|DICT|INTERRES
   235  119  120 1    
   236  119  240 1    
   237  120  121 1    
   238  120  124 1    
   239  120  241 1    
   240  121  122 am   BACKBONE|DICT|INTERRES
   241  121  123 2    
   242  122  242 1    
   243  122  243 1    
   244  124  125 1    
   245  124  244 1    
   246  124  245 1    
   247  125  126 1    
   248  126  246 1    
   249  126  247 1    
@<TRIPOS>SUBSTRUCTURE
     1 UNK         1 GROUP             0       ****    0 ROOT    
