@<TRIPOS>MOLECULE
3R540
247   249    1
SMALL
USER_CHARGES


@<TRIPOS>ATOM
      1 CA          2.9558   -9.7968  -51.0021 C.3       0 UNK        -0.1800 
      2 C           2.5668  -10.5897  -49.7619 C.2       0 UNK         0.5000 
      3 O           1.4357  -10.4692  -49.2914 O.2       0 UNK        -0.5000 
      4 N           3.5004  -11.3976  -49.2386 N.am      1 UNK        -0.5000 
      5 CA          3.3543  -12.2301  -48.0368 C.3       1 UNK         0.1400 
      6 C6          2.2946  -13.3546  -48.2055 C.3       23 UNK        -0.0398 
      7 S7          2.7629  -14.8692  -47.3022 S.3       23 UNK        -0.2404 
      8 C8          3.8172  -15.7260  -48.5246 C.3       23 UNK        -0.0205 
      9 C9          3.0860  -16.8111  -49.3105 C.ar      23 UNK        -0.0193 
     10 C10         2.1019  -16.4735  -50.2439 C.ar      23 UNK        -0.1150 
     11 C11         1.4463  -17.4591  -50.9896 C.ar      23 UNK        -0.0193 
     12 C12         1.8180  -18.7974  -50.8251 C.ar      23 UNK        -0.1150 
     13 C13         2.8304  -19.1508  -49.9270 C.ar      23 UNK        -0.0193 
     14 C14         3.4431  -18.1557  -49.1571 C.ar      23 UNK        -0.1150 
     15 C15         3.3245  -20.5914  -49.8528 C.3       23 UNK        -0.0205 
     16 S16         2.7033  -21.4957  -48.4018 S.3       23 UNK        -0.2404 
     17 C17         0.9597  -21.7514  -48.8607 C.3       23 UNK        -0.0398 
     18 CA          0.2226  -22.7250  -47.9091 C.3       11 UNK         0.1400 
     19 N           0.1013  -22.2104  -46.5410 N.am      11 UNK        -0.5000 
     20 C          -0.3806  -22.9014  -45.4980 C.2       10 UNK         0.5000 
     21 O          -0.7428  -24.0759  -45.5657 O.2       10 UNK        -0.5000 
     22 CA         -0.5296  -22.1464  -44.1637 C.3       10 UNK         0.1400 
     23 CB          0.8167  -22.0379  -43.4326 C.3       10 UNK        -0.1800 
     24 N          -1.1179  -20.8166  -44.3293 N.am      10 UNK        -0.5000 
     25 C          -2.3668  -20.5938  -44.7643 C.2       9 UNK         0.5000 
     26 O          -3.1672  -21.4895  -45.0315 O.2       9 UNK        -0.5000 
     27 CA         -2.7805  -19.1274  -44.9848 C.3       9 UNK         0.1400 
     28 CB         -3.1613  -18.4557  -43.6571 C.3       9 UNK        -0.1800 
     29 N          -1.7438  -18.3428  -45.6525 N.am      9 UNK        -0.5000 
     30 C          -1.2629  -18.6040  -46.8766 C.2       8 UNK         0.5000 
     31 O          -1.6745  -19.5110  -47.5982 O.2       8 UNK        -0.5000 
     32 CA         -0.0837  -17.7381  -47.3465 C.3       8 UNK         0.1400 
     33 CB         -0.5892  -16.3619  -47.8050 C.3       8 UNK        -0.1800 
     34 N           0.9477  -17.5851  -46.3154 N.am      8 UNK        -0.5000 
     35 C           1.6160  -18.6032  -45.7518 C.2       7 UNK         0.5000 
     36 O           1.4384  -19.7801  -46.0482 O.2       7 UNK        -0.5000 
     37 CA          2.5813  -18.2701  -44.6020 C.3       7 UNK         0.1400 
     38 CB          3.9476  -17.7949  -45.1157 C.3       7 UNK        -0.1800 
     39 N           2.0128  -17.2851  -43.6855 N.am      7 UNK        -0.5000 
     40 C           0.9597  -17.5296  -42.8923 C.2       6 UNK         0.5000 
     41 O           0.4071  -18.6267  -42.8025 O.2       6 UNK        -0.5000 
     42 CA          0.4033  -16.3303  -42.1100 C.3       6 UNK         0.1400 
     43 CB          1.1943  -16.1075  -40.8128 C.3       6 UNK        -0.1800 
     44 N           0.4063  -15.1015  -42.9054 N.am      6 UNK        -0.5000 
     45 C          -0.3871  -14.8883  -43.9675 C.2       5 UNK         0.5000 
     46 O          -1.1589  -15.7435  -44.4037 O.2       5 UNK        -0.5000 
     47 CA         -0.2977  -13.5100  -44.6659 C.3       5 UNK         0.1400 
     48 CB         -1.6358  -13.0733  -45.2968 C.3       5 UNK        -0.1800 
     49 N           0.2454  -12.4492  -43.8099 N.am      5 UNK        -0.5000 
     50 C          -0.2425  -12.0229  -42.6331 C.2       4 UNK         0.5000 
     51 O          -1.3303  -12.3805  -42.1783 O.2       4 UNK        -0.5000 
     52 CA          0.6479  -11.0674  -41.8049 C.3       4 UNK         0.1400 
     53 CB          0.4889  -11.3009  -40.2882 C.3       4 UNK        -0.1800 
     54 N           2.0731  -11.0901  -42.1619 N.am      4 UNK        -0.5000 
     55 C           2.9160  -12.1334  -42.1778 C.2       3 UNK         0.5000 
     56 O           2.5695  -13.2898  -41.9296 O.2       3 UNK        -0.5000 
     57 CA          4.3753  -11.8272  -42.5905 C.3       3 UNK         0.1400 
     58 CB          5.2432  -13.0967  -42.6675 C.3       3 UNK        -0.1800 
     59 N           4.4533  -11.1326  -43.8790 N.am      3 UNK        -0.5000 
     60 C           4.1312   -9.8526  -44.1108 C.2       2 UNK         0.5000 
     61 O           3.8072   -9.0678  -43.2178 O.2       2 UNK        -0.5000 
     62 CA          4.1250   -9.3649  -45.5742 C.3       2 UNK         0.1400 
     63 CB          5.3228   -8.4385  -45.8349 C.3       2 UNK        -0.1800 
     64 N           4.1157  -10.4169  -46.5968 N.am      2 UNK        -0.5000 
     65 C           3.1763  -11.3594  -46.7708 C.2       1 UNK         0.5000 
     66 O           2.2230  -11.5265  -46.0069 O.2       1 UNK        -0.5000 
     67 C          -1.1500  -23.1115  -48.4930 C.2       11 UNK         0.5000 
     68 O          -1.2865  -24.2084  -49.0349 O.2       11 UNK        -0.5000 
     69 N          -2.1470  -22.2282  -48.3392 N.am      12 UNK        -0.5000 
     70 CA         -3.5273  -22.4571  -48.7634 C.3       12 UNK         0.1400 
     71 CB         -4.3490  -21.1750  -48.5721 C.3       12 UNK        -0.1800 
     72 C          -4.1821  -23.6390  -48.0293 C.2       12 UNK         0.5000 
     73 O          -4.8430  -24.4515  -48.6736 O.2       12 UNK        -0.5000 
     74 N          -3.9611  -23.7400  -46.7103 N.am      13 UNK        -0.5000 
     75 CA         -4.4326  -24.8448  -45.8742 C.3       13 UNK         0.1400 
     76 CB         -4.1789  -24.5285  -44.3929 C.3       13 UNK        -0.1800 
     77 C          -3.8030  -26.1940  -46.2624 C.2       13 UNK         0.5000 
     78 O          -4.5262  -27.1833  -46.3809 O.2       13 UNK        -0.5000 
     79 N          -2.4835  -26.2054  -46.5022 N.am      14 UNK        -0.5000 
     80 CA         -1.7308  -27.3744  -46.9677 C.3       14 UNK         0.1400 
     81 CB         -0.2284  -27.0549  -46.9560 C.3       14 UNK        -0.1800 
     82 C          -2.1738  -27.8588  -48.3620 C.2       14 UNK         0.5000 
     83 O          -2.2248  -29.0654  -48.6022 O.2       14 UNK        -0.5000 
     84 N          -2.5257  -26.9093  -49.2373 N.am      15 UNK        -0.5000 
     85 CA         -3.0875  -27.1471  -50.5667 C.3       15 UNK         0.1400 
     86 CB         -2.7810  -25.9237  -51.4424 C.3       15 UNK        -0.1800 
     87 C          -4.6036  -27.4412  -50.5560 C.2       15 UNK         0.5000 
     88 O          -5.1769  -27.6368  -51.6281 O.2       15 UNK        -0.5000 
     89 N          -5.2404  -27.4345  -49.3734 N.am      16 UNK        -0.5000 
     90 CA         -6.6745  -27.6428  -49.1301 C.3       16 UNK         0.1400 
     91 CB         -7.0552  -29.1128  -49.4016 C.3       16 UNK        -0.1800 
     92 C          -7.5771  -26.6399  -49.8851 C.2       16 UNK         0.5000 
     93 O          -8.6764  -26.9951  -50.3134 O.2       16 UNK        -0.5000 
     94 N          -7.0707  -25.4101  -50.0569 N.am      17 UNK        -0.5000 
     95 CA         -7.6381  -24.2801  -50.7993 C.3       17 UNK         0.1400 
     96 CB         -8.9478  -23.7957  -50.1447 C.3       17 UNK        -0.1800 
     97 C          -7.7911  -24.5124  -52.3201 C.2       17 UNK         0.5000 
     98 O          -8.4083  -23.6843  -52.9923 O.2       17 UNK        -0.5000 
     99 N          -7.2139  -25.5991  -52.8564 N.am      18 UNK        -0.5000 
    100 CA        -7.2130  -25.9112  -54.2893 C.3       18 UNK         0.1400 
    101 CB        -6.9905  -27.4200  -54.4762 C.3       18 UNK        -0.1800 
    102 C         -6.1530  -25.1073  -55.0681 C.2       18 UNK         0.5000 
    103 O         -6.2475  -24.9988  -56.2915 O.2       18 UNK        -0.5000 
    104 N         -5.1717  -24.5571  -54.3477 N.am      19 UNK        -0.5000 
    105 CA        -4.0975  -23.7045  -54.8346 C.3       19 UNK         0.1400 
    106 CB        -2.9693  -24.5720  -55.4248 C.3       19 UNK        -0.1800 
    107 C         -3.6001  -22.8509  -53.6577 C.2       19 UNK         0.5000 
    108 O         -4.0334  -23.0616  -52.5219 O.2       19 UNK        -0.5000 
    109 N         -2.7036  -21.9000  -53.9541 N.am      20 UNK        -0.5000 
    110 CA        -1.9713  -21.0374  -53.0131 C.3       20 UNK         0.1400 
    111 CB        -1.0386  -21.8801  -52.1214 C.3       20 UNK        -0.1800 
    112 C         -2.8359  -20.0664  -52.1784 C.2       20 UNK         0.5000 
    113 O         -2.3076  -19.4022  -51.2863 O.2       20 UNK        -0.5000 
    114 N         -4.1307  -19.9512  -52.4993 N.am      21 UNK        -0.5000 
    115 CA        -5.0986  -19.0605  -51.8589 C.3       21 UNK         0.1400 
    116 CB        -6.5092  -19.6447  -52.0607 C.3       21 UNK        -0.1800 
    117 C         -4.9602  -17.6133  -52.3773 C.2       21 UNK         0.5000 
    118 O         -5.9054  -17.0573  -52.9395 O.2       21 UNK        -0.5000 
    119 N         -3.7633  -17.0425  -52.2039 N.am      22 UNK        -0.5000 
    120 CA        -3.3891  -15.6854  -52.6307 C.3       22 UNK         0.1400 
    121 C         -3.9533  -14.5309  -51.7482 C.2       22 UNK         0.5000 
    122 N         -4.5560  -14.8029  -50.5966 N.am      22 UNK        -0.7600 
    123 O         -3.8578  -13.3660  -52.1263 O.2       22 UNK        -0.5000 
    124 C124       -1.8581  -15.5621  -52.8493 C.3       23 UNK        -0.0398 
    125 S125       -0.8659  -15.9304  -51.3587 S.3       23 UNK        -0.2404 
    126 C126        0.3877  -17.0771  -52.0205 C.3       23 UNK        -0.0205 
    127 H127        2.8720   -8.7280  -50.8050 H         1 UNK         0.0600 
    128 H128        3.9797  -10.0057  -51.3140 H         1 UNK         0.0600 
    129 H129        2.2911  -10.0449  -51.8300 H         1 UNK         0.0600 
    130 H130        4.4058  -11.4429  -49.6863 H         1 UNK         0.3000 
    131 H131        4.3293  -12.7080  -47.9250 H         1 UNK         0.0600 
    132 H132        1.3020  -13.0313  -47.8871 H         1 UNK         0.0800 
    133 H133        2.1847  -13.6057  -49.2590 H         1 UNK         0.0800 
    134 H134        4.2481  -15.0052  -49.2208 H         1 UNK         0.0800 
    135 H135        4.6628  -16.1607  -47.9897 H         1 UNK         0.0800 
    136 H136        1.8385  -15.4388  -50.3968 H         1 UNK         0.1150 
    137 H137        1.3449  -19.5616  -51.4247 H         1 UNK         0.1150 
    138 H138        4.2262  -18.4294  -48.4643 H         1 UNK         0.1150 
    139 H139        3.0606  -21.1360  -50.7607 H         1 UNK         0.0800 
    140 H140        4.4148  -20.5893  -49.8148 H         1 UNK         0.0800 
    141 H141        0.9525  -22.1471  -49.8770 H         1 UNK         0.0800 
    142 H142        0.4561  -20.7836  -48.8943 H         1 UNK         0.0800 
    143 H143        0.8102  -23.6438  -47.8518 H         1 UNK         0.0600 
    144 H144        0.4382  -21.2610  -46.3874 H         1 UNK         0.3000 
    145 H145       -1.2047  -22.7270  -43.5318 H         1 UNK         0.0600 
    146 H146        0.7005  -21.5541  -42.4626 H         1 UNK         0.0600 
    147 H147        1.2433  -23.0259  -43.2555 H         1 UNK         0.0600 
    148 H148        1.5455  -21.4655  -44.0056 H         1 UNK         0.0600 
    149 H149       -0.5243  -20.0234  -44.1138 H         1 UNK         0.3000 
    150 H150       -3.6609  -19.1260  -45.6307 H         1 UNK         0.0600 
    151 H151       -3.9540  -19.0096  -43.1526 H         1 UNK         0.0600 
    152 H152       -3.5248  -17.4409  -43.8197 H         1 UNK         0.0600 
    153 H153       -2.3130  -18.4000  -42.9747 H         1 UNK         0.0600 
    154 H154       -1.3748  -17.5448  -45.1431 H         1 UNK         0.3000 
    155 H155        0.3726  -18.2380  -48.2029 H         1 UNK         0.0600 
    156 H156        0.1903  -15.7977  -48.3124 H         1 UNK         0.0600 
    157 H157       -0.9499  -15.7599  -46.9742 H         1 UNK         0.0600 
    158 H158       -1.4163  -16.4686  -48.5076 H         1 UNK         0.0600 
    159 H159        1.1513  -16.6447  -46.0144 H         1 UNK         0.3000 
    160 H160        2.7471  -19.1930  -44.0418 H         1 UNK         0.0600 
    161 H161        3.8892  -16.8139  -45.5812 H         1 UNK         0.0600 
    162 H162        4.3503  -18.4885  -45.8549 H         1 UNK         0.0600 
    163 H163        4.6701  -17.7318  -44.3020 H         1 UNK         0.0600 
    164 H164        2.4021  -16.3540  -43.7023 H         1 UNK         0.3000 
    165 H165       -0.6310  -16.5569  -41.8422 H         1 UNK         0.0600 
    166 H166        2.2431  -15.8845  -41.0126 H         1 UNK         0.0600 
    167 H167        0.7810  -15.2793  -40.2368 H         1 UNK         0.0600 
    168 H168        1.1618  -16.9947  -40.1791 H         1 UNK         0.0600 
    169 H169        1.0407  -14.3674  -42.6036 H         1 UNK         0.3000 
    170 H170        0.4197  -13.6367  -45.4774 H         1 UNK         0.0600 
    171 H171       -1.9713  -13.7893  -46.0473 H         1 UNK         0.0600 
    172 H172       -2.4274  -12.9899  -44.5519 H         1 UNK         0.0600 
    173 H173       -1.5383  -12.1085  -45.7944 H         1 UNK         0.0600 
    174 H174        1.1303  -12.0673  -44.1227 H         1 UNK         0.3000 
    175 H175        0.2947  -10.0594  -42.0260 H         1 UNK         0.0600 
    176 H176        1.1088  -10.6109  -39.7156 H         1 UNK         0.0600 
    177 H177       -0.5426  -11.1453  -39.9700 H         1 UNK         0.0600 
    178 H178        0.7693  -12.3165  -40.0063 H         1 UNK         0.0600 
    179 H179        2.4714  -10.1923  -42.4238 H         1 UNK         0.3000 
    180 H180        4.7975  -11.1797  -41.8194 H         1 UNK         0.0600 
    181 H181        4.8747  -13.7912  -43.4238 H         1 UNK         0.0600 
    182 H182        5.2521  -13.6240  -41.7126 H         1 UNK         0.0600 
    183 H183        6.2777  -12.8535  -42.9106 H         1 UNK         0.0600 
    184 H184        4.6770  -11.7056  -44.6787 H         1 UNK         0.3000 
    185 H185        3.2109   -8.7825  -45.7055 H         1 UNK         0.0600 
    186 H186        5.2709   -7.9951  -46.8296 H         1 UNK         0.0600 
    187 H187        5.3479   -7.6169  -45.1175 H         1 UNK         0.0600 
    188 H188        6.2696   -8.9741  -45.7532 H         1 UNK         0.0600 
    189 H189        4.8548  -10.3611  -47.2826 H         1 UNK         0.3000 
    190 H190       -1.9481  -21.3230  -47.9171 H         1 UNK         0.3000 
    191 H191       -3.5113  -22.6928  -49.8292 H         1 UNK         0.0600 
    192 H192       -3.8951  -20.3392  -49.1032 H         1 UNK         0.0600 
    193 H193       -5.3619  -21.2985  -48.9574 H         1 UNK         0.0600 
    194 H194       -4.4239  -20.8968  -47.5204 H         1 UNK         0.0600 
    195 H195       -3.4467  -23.0015  -46.2384 H         1 UNK         0.3000 
    196 H196       -5.5115  -24.9310  -46.0192 H         1 UNK         0.0600 
    197 H197       -4.5273  -25.3408  -43.7540 H         1 UNK         0.0600 
    198 H198       -4.7080  -23.6257  -44.0876 H         1 UNK         0.0600 
    199 H199       -3.1187  -24.3798  -44.1874 H         1 UNK         0.0600 
    200 H200       -1.9482  -25.3551  -46.3440 H         1 UNK         0.3000 
    201 H201       -1.9111  -28.1883  -46.2626 H         1 UNK         0.0600 
    202 H202        0.1105  -26.7931  -45.9534 H         1 UNK         0.0600 
    203 H203        0.0107  -26.2213  -47.6171 H         1 UNK         0.0600 
    204 H204        0.3576  -27.9144  -47.2838 H         1 UNK         0.0600 
    205 H205       -2.3920  -25.9374  -48.9761 H         1 UNK         0.3000 
    206 H206       -2.5949  -28.0142  -51.0110 H         1 UNK         0.0600 
    207 H207       -1.7074  -25.7562  -51.5286 H         1 UNK         0.0600 
    208 H208       -3.1734  -26.0471  -52.4520 H         1 UNK         0.0600 
    209 H209       -3.2245  -25.0214  -51.0216 H         1 UNK         0.0600 
    210 H210       -4.6935  -27.2314  -48.5457 H         1 UNK         0.3000 
    211 H211       -6.8334  -27.4503  -48.0682 H         1 UNK         0.0600 
    212 H212       -6.9732  -29.3628  -50.4600 H         1 UNK         0.0600 
    213 H213       -8.0824  -29.3151  -49.0957 H         1 UNK         0.0600 
    214 H214       -6.4124  -29.7949  -48.8449 H         1 UNK         0.0600 
    215 H215       -6.1661  -25.2160  -49.6271 H         1 UNK         0.3000 
    216 H216       -6.9082  -23.4750  -50.7006 H         1 UNK         0.0600 
    217 H217       -8.8104  -23.6107  -49.0792 H         1 UNK         0.0600 
    218 H218       -9.7516  -24.5232  -50.2591 H         1 UNK         0.0600 
    219 H219       -9.2881  -22.8611  -50.5925 H         1 UNK         0.0600 
    220 H220       -6.7101  -26.2410  -52.2542 H         1 UNK         0.3000 
    221 H221       -8.1914  -25.6611  -54.7051 H         1 UNK         0.0600 
    222 H222       -5.9959  -27.7247  -54.1494 H         1 UNK         0.0600 
    223 H223       -7.7221  -28.0011  -53.9144 H         1 UNK         0.0600 
    224 H224       -7.0878  -27.7000  -55.5259 H         1 UNK         0.0600 
    225 H225       -5.1985  -24.6387  -53.3387 H         1 UNK         0.3000 
    226 H226       -4.4894  -23.0332  -55.6016 H         1 UNK         0.0600 
    227 H227       -3.3338  -25.1932  -56.2431 H         1 UNK         0.0600 
    228 H228       -2.1634  -23.9564  -55.8251 H         1 UNK         0.0600 
    229 H229       -2.5352  -25.2324  -54.6733 H         1 UNK         0.0600 
    230 H230       -2.4414  -21.7861  -54.9237 H         1 UNK         0.3000 
    231 H231       -1.3370  -20.3987  -53.6293 H         1 UNK         0.0600 
    232 H232       -0.4163  -21.2377  -51.4996 H         1 UNK         0.0600 
    233 H233       -0.3700  -22.4987  -52.7199 H         1 UNK         0.0600 
    234 H234       -1.5982  -22.5379  -51.4566 H         1 UNK         0.0600 
    235 H235       -4.4779  -20.5193  -53.2571 H         1 UNK         0.3000 
    236 H236       -4.9039  -19.0343  -50.7853 H         1 UNK         0.0600 
    237 H237       -7.2619  -19.0314  -51.5635 H         1 UNK         0.0600 
    238 H238       -6.7751  -19.7028  -53.1172 H         1 UNK         0.0600 
    239 H239       -6.5825  -20.6492  -51.6419 H         1 UNK         0.0600 
    240 H240       -3.0402  -17.5814  -51.7368 H         1 UNK         0.3000 
    241 H241       -3.8475  -15.5309  -53.6096 H         1 UNK         0.0600 
    242 H242       -4.6364  -15.7532  -50.2744 H         1 UNK         0.3800 
    243 H243       -4.9238  -14.0488  -50.0383 H         1 UNK         0.3800 
    244 H244       -1.5598  -16.2375  -53.6522 H         1 UNK         0.0800 
    245 H245       -1.5972  -14.5619  -53.1997 H         1 UNK         0.0800 
    246 H246       -0.1185  -17.9674  -52.3970 H         1 UNK         0.0800 
    247 H247        0.8856  -16.6122  -52.8725 H         1 UNK         0.0800 
@<TRIPOS>BOND
     1    1    2 1    
     2    1  127 1    
     3    1  128 1    
     4    1  129 1    
     5    2    3 2    
     6    2    4 am   BACKBONE|DICT|INTERRES
     7    4    5 1    
     8    4  130 1    
     9    5    6 1    
    10    5   65 1    
    11    5  131 1    
    12    6    7 1    
    13    6  132 1    
    14    6  133 1    
    15    7    8 1    
    16    8    9 1    
    17    8  134 1    
    18    8  135 1    
    19    9   10 ar   
    20    9   14 ar   
    21   10   11 ar   
    22   10  136 1    
    23   11   12 ar   
    24   11  126 1    
    25   12   13 ar   
    26   12  137 1    
    27   13   14 ar   
    28   13   15 1    
    29   14  138 1    
    30   15   16 1    
    31   15  139 1    
    32   15  140 1    
    33   16   17 1    
    34   17   18 1    
    35   17  141 1    
    36   17  142 1    
    37   18   19 1    
    38   18   67 1    
    39   18  143 1    
    40   19   20 am   BACKBONE|DICT|INTERRES
    41   19  144 1    
    42   20   21 2    
    43   20   22 1    
    44   22   23 1    
    45   22   24 1    
    46   22  145 1    
    47   23  146 1    
    48   23  147 1    
    49   23  148 1    
    50   24   25 am   BACKBONE|DICT|INTERRES
    51   24  149 1    
    52   25   26 2    
    53   25   27 1    
    54   27   28 1    
    55   27   29 1    
    56   27  150 1    
    57   28  151 1    
    58   28  152 1    
    59   28  153 1    
    60   29   30 am   BACKBONE|DICT|INTERRES
    61   29  154 1    
    62   30   31 2    
    63   30   32 1    
    64   32   33 1    
    65   32   34 1    
    66   32  155 1    
    67   33  156 1    
    68   33  157 1    
    69   33  158 1    
    70   34   35 am   BACKBONE|DICT|INTERRES
    71   34  159 1    
    72   35   36 2    
    73   35   37 1    
    74   37   38 1    
    75   37   39 1    
    76   37  160 1    
    77   38  161 1    
    78   38  162 1    
    79   38  163 1    
    80   39   40 am   BACKBONE|DICT|INTERRES
    81   39  164 1    
    82   40   41 2    
    83   40   42 1    
    84   42   43 1    
    85   42   44 1    
    86   42  165 1    
    87   43  166 1    
    88   43  167 1    
    89   43  168 1    
    90   44   45 am   BACKBONE|DICT|INTERRES
    91   44  169 1    
    92   45   46 2    
    93   45   47 1    
    94   47   48 1    
    95   47   49 1    
    96   47  170 1    
    97   48  171 1    
    98   48  172 1    
    99   48  173 1    
   100   49   50 am   BACKBONE|DICT|INTERRES
   101   49  174 1    
   102   50   51 2    
   103   50   52 1    
   104   52   53 1    
   105   52   54 1    
   106   52  175 1    
   107   53  176 1    
   108   53  177 1    
   109   53  178 1    
   110   54   55 am   BACKBONE|DICT|INTERRES
   111   54  179 1    
   112   55   56 2    
   113   55   57 1    
   114   57   58 1    
   115   57   59 1    
   116   57  180 1    
   117   58  181 1    
   118   58  182 1    
   119   58  183 1    
   120   59   60 am   BACKBONE|DICT|INTERRES
   121   59  184 1    
   122   60   61 2    
   123   60   62 1    
   124   62   63 1    
   125   62   64 1    
   126   62  185 1    
   127   63  186 1    
   128   63  187 1    
   129   63  188 1    
   130   64   65 am   BACKBONE|DICT|INTERRES
   131   64  189 1    
   132   65   66 2    
   133   67   68 2    
   134   67   69 am   BACKBONE|DICT|INTERRES
   135   69   70 1    
   136   69  190 1    
   137   70   71 1    
   138   70   72 1    
   139   70  191 1    
   140   71  192 1    
   141   71  193 1    
   142   71  194 1    
   143   72   73 2    
   144   72   74 am   BACKBONE|DICT|INTERRES
   145   74   75 1    
   146   74  195 1    
   147   75   76 1    
   148   75   77 1    
   149   75  196 1    
   150   76  197 1    
   151   76  198 1    
   152   76  199 1    
   153   77   78 2    
   154   77   79 am   BACKBONE|DICT|INTERRES
   155   79   80 1    
   156   79  200 1    
   157   80   81 1    
   158   80   82 1    
   159   80  201 1    
   160   81  202 1    
   161   81  203 1    
   162   81  204 1    
   163   82   83 2    
   164   82   84 am   BACKBONE|DICT|INTERRES
   165   84   85 1    
   166   84  205 1    
   167   85   86 1    
   168   85   87 1    
   169   85  206 1    
   170   86  207 1    
   171   86  208 1    
   172   86  209 1    
   173   87   88 2    
   174   87   89 am   BACKBONE|DICT|INTERRES
   175   89   90 1    
   176   89  210 1    
   177   90   91 1    
   178   90   92 1    
   179   90  211 1    
   180   91  212 1    
   181   91  213 1    
   182   91  214 1    
   183   92   93 2    
   184   92   94 am   BACKBONE|DICT|INTERRES
   185   94   95 1    
   186   94  215 1    
   187   95   96 1    
   188   95   97 1    
   189   95  216 1    
   190   96  217 1    
   191   96  218 1    
   192   96  219 1    
   193   97   98 2    
   194   97   99 am   BACKBONE|DICT|INTERRES
   195   99  100 1    
   196   99  220 1    
   197  100  101 1    
   198  100  102 1    
   199  100  221 1    
   200  101  222 1    
   201  101  223 1    
   202  101  224 1    
   203  102  103 2    
   204  102  104 am   BACKBONE|DICT|INTERRES
   205  104  105 1    
   206  104  225 1    
   207  105  106 1    
   208  105  107 1    
   209  105  226 1    
   210  106  227 1    
   211  106  228 1    
   212  106  229 1    
   213  107  108 2    
   214  107  109 am   BACKBONE|DICT|INTERRES
   215  109  110 1    
   216  109  230 1    
   217  110  111 1    
   218  110  112 1    
   219  110  231 1    
   220  111  232 1    
   221  111  233 1    
   222  111  234 1    
   223  112  113 2    
   224  112  114 am   BACKBONE|DICT|INTERRES
   225  114  115 1    
   226  114  235 1    
   227  115  116 1    
   228  115  117 1    
   229  115  236 1    
   230  116  237 1    
   231  116  238 1    
   232  116  239 1    
   233  117  118 2    
   234  117  119 am   BACKBONE|DICT|INTERRES
   235  119  120 1    
   236  119  240 1    
   237  120  121 1    
   238  120  124 1    
   239  120  241 1    
   240  121  122 am   BACKBONE|DICT|INTERRES
   241  121  123 2    
   242  122  242 1    
   243  122  243 1    
   244  124  125 1    
   245  124  244 1    
   246  124  245 1    
   247  125  126 1    
   248  126  246 1    
   249  126  247 1    
@<TRIPOS>SUBSTRUCTURE
     1 UNK         1 GROUP             0       ****    0 ROOT    
