@<TRIPOS>MOLECULE
3R540
247   249    1
SMALL
USER_CHARGES


@<TRIPOS>ATOM
      1 CA         -4.9406  -11.6903  -48.8999 C.3       0 UNK        -0.1800 
      2 C          -3.4913  -12.0325  -49.2167 C.2       0 UNK         0.5000 
      3 O          -2.9990  -11.6794  -50.2888 O.2       0 UNK        -0.5000 
      4 N          -2.8112  -12.7229  -48.2933 N.am      1 UNK        -0.5000 
      5 CA         -1.3941  -13.0831  -48.3950 C.3       1 UNK         0.1400 
      6 C6         -1.0313  -14.2155  -47.4001 C.3       23 UNK        -0.0398 
      7 S7          0.3755  -15.2276  -47.9752 S.3       23 UNK        -0.2404 
      8 C8         -0.5248  -16.6155  -48.7308 C.3       23 UNK        -0.0205 
      9 C9          0.4103  -17.6113  -49.3982 C.ar      23 UNK        -0.0193 
     10 C10         0.5642  -17.6220  -50.7872 C.ar      23 UNK        -0.1150 
     11 C11         1.3905  -18.5647  -51.4094 C.ar      23 UNK        -0.0193 
     12 C12         2.0935  -19.4802  -50.6168 C.ar      23 UNK        -0.1150 
     13 C13         1.9538  -19.4761  -49.2264 C.ar      23 UNK        -0.0193 
     14 C14         1.1077  -18.5405  -48.6255 C.ar      23 UNK        -0.1150 
     15 C15         2.7246  -20.4747  -48.3739 C.3       23 UNK        -0.0205 
     16 S16         1.9995  -22.1430  -48.4277 S.3       23 UNK        -0.2404 
     17 C17         0.2998  -21.8528  -47.8329 C.3       23 UNK        -0.0398 
     18 CA         -0.1421  -22.9076  -46.7848 C.3       11 UNK         0.1400 
     19 N           0.4846  -22.6453  -45.4862 N.am      11 UNK        -0.5000 
     20 C           0.8380  -23.5534  -44.5709 C.2       10 UNK         0.5000 
     21 O           0.6587  -24.7638  -44.7029 O.2       10 UNK        -0.5000 
     22 CA          1.4449  -23.0009  -43.2679 C.3       10 UNK         0.1400 
     23 CB          2.9122  -22.5920  -43.4716 C.3       10 UNK        -0.1800 
     24 N           0.6839  -21.8598  -42.7532 N.am      10 UNK        -0.5000 
     25 C          -0.5182  -21.9577  -42.1675 C.2       9 UNK         0.5000 
     26 O          -1.0838  -23.0303  -41.9557 O.2       9 UNK        -0.5000 
     27 CA         -1.2139  -20.6442  -41.7588 C.3       9 UNK         0.1400 
     28 CB         -0.7544  -20.1966  -40.3631 C.3       9 UNK        -0.1800 
     29 N          -0.9823  -19.5593  -42.7104 N.am      9 UNK        -0.5000 
     30 C          -1.4812  -19.5128  -43.9530 C.2       8 UNK         0.5000 
     31 O          -2.2676  -20.3402  -44.4094 O.2       8 UNK        -0.5000 
     32 CA         -0.9840  -18.3674  -44.8540 C.3       8 UNK         0.1400 
     33 CB         -1.8653  -17.1202  -44.6933 C.3       8 UNK        -0.1800 
     34 N           0.4157  -18.0121  -44.6060 N.am      8 UNK        -0.5000 
     35 C           1.4535  -18.8363  -44.8068 C.2       7 UNK         0.5000 
     36 O           1.3342  -19.9850  -45.2237 O.2       7 UNK        -0.5000 
     37 CA          2.8515  -18.3035  -44.4580 C.3       7 UNK         0.1400 
     38 CB          3.4187  -17.4786  -45.6223 C.3       7 UNK        -0.1800 
     39 N           2.8348  -17.5074  -43.2299 N.am      7 UNK        -0.5000 
     40 C           2.6749  -18.0412  -42.0101 C.2       6 UNK         0.5000 
     41 O           2.5603  -19.2500  -41.8031 O.2       6 UNK        -0.5000 
     42 CA          2.5854  -17.0558  -40.8304 C.3       6 UNK         0.1400 
     43 CB          3.9857  -16.5912  -40.4031 C.3       6 UNK        -0.1800 
     44 N           1.7502  -15.8825  -41.1006 N.am      6 UNK        -0.5000 
     45 C           0.4553  -15.9080  -41.4388 C.2       5 UNK         0.5000 
     46 O          -0.1662  -16.9521  -41.6345 O.2       5 UNK        -0.5000 
     47 CA         -0.2845  -14.5637  -41.6081 C.3       5 UNK         0.1400 
     48 CB         -1.1536  -14.2649  -40.3725 C.3       5 UNK        -0.1800 
     49 N           0.5458  -13.4006  -41.9584 N.am      5 UNK        -0.5000 
     50 C           1.4938  -12.7778  -41.2451 C.2       4 UNK         0.5000 
     51 O           1.8994  -13.1778  -40.1530 O.2       4 UNK        -0.5000 
     52 CA          2.1182  -11.5238  -41.8962 C.3       4 UNK         0.1400 
     53 CB          3.1179  -10.8100  -40.9683 C.3       4 UNK        -0.1800 
     54 N           2.7945  -11.8444  -43.1548 N.am      4 UNK        -0.5000 
     55 C           2.1896  -12.0752  -44.3257 C.2       3 UNK         0.5000 
     56 O           0.9659  -12.0395  -44.4812 O.2       3 UNK        -0.5000 
     57 CA          3.1049  -12.4972  -45.4869 C.3       3 UNK         0.1400 
     58 CB          3.3467  -14.0106  -45.4227 C.3       3 UNK        -0.1800 
     59 N           2.5119  -12.1799  -46.7829 N.am      3 UNK        -0.5000 
     60 C           2.4661  -10.9576  -47.3289 C.2       2 UNK         0.5000 
     61 O           2.9904   -9.9631  -46.8252 O.2       2 UNK        -0.5000 
     62 CA          1.7131  -10.8250  -48.6682 C.3       2 UNK         0.1400 
     63 CB          2.6946  -10.9075  -49.8473 C.3       2 UNK        -0.1800 
     64 N           0.6777  -11.8478  -48.8378 N.am      2 UNK        -0.5000 
     65 C          -0.4938  -11.8458  -48.1891 C.2       1 UNK         0.5000 
     66 O          -0.8558  -10.9388  -47.4348 O.2       1 UNK        -0.5000 
     67 C          -1.6824  -23.0056  -46.6817 C.2       11 UNK         0.5000 
     68 O          -2.3696  -22.7657  -47.6746 O.2       11 UNK        -0.5000 
     69 N          -2.2193  -23.3556  -45.5047 N.am      12 UNK        -0.5000 
     70 CA         -3.6580  -23.4716  -45.2514 C.3       12 UNK         0.1400 
     71 CB         -3.8992  -23.5469  -43.7369 C.3       12 UNK        -0.1800 
     72 C          -4.3191  -24.6689  -45.9634 C.2       12 UNK         0.5000 
     73 O          -5.5237  -24.6278  -46.2144 O.2       12 UNK        -0.5000 
     74 N          -3.5277  -25.6992  -46.2838 N.am      13 UNK        -0.5000 
     75 CA         -3.9356  -26.8715  -47.0536 C.3       13 UNK         0.1400 
     76 CB         -3.4768  -28.1356  -46.3107 C.3       13 UNK        -0.1800 
     77 C          -3.2927  -26.8113  -48.4470 C.2       13 UNK         0.5000 
     78 O          -2.1771  -26.3001  -48.5783 O.2       13 UNK        -0.5000 
     79 N          -4.0040  -27.3447  -49.4514 N.am      14 UNK        -0.5000 
     80 CA         -3.6579  -27.4649  -50.8782 C.3       14 UNK         0.1400 
     81 CB         -2.4129  -28.3493  -51.0821 C.3       14 UNK        -0.1800 
     82 C          -3.5131  -26.1204  -51.6177 C.2       14 UNK         0.5000 
     83 O          -4.1765  -25.9034  -52.6314 O.2       14 UNK        -0.5000 
     84 N          -2.6601  -25.2385  -51.0907 N.am      15 UNK        -0.5000 
     85 CA         -2.4695  -23.8630  -51.5391 C.3       15 UNK         0.1400 
     86 CB         -1.1452  -23.3426  -50.9668 C.3       15 UNK        -0.1800 
     87 C          -3.6365  -22.9484  -51.1338 C.2       15 UNK         0.5000 
     88 O          -3.9664  -22.0236  -51.8800 O.2       15 UNK        -0.5000 
     89 N          -4.2200  -23.2279  -49.9584 N.am      16 UNK        -0.5000 
     90 CA         -5.3316  -22.5288  -49.3048 C.3       16 UNK         0.1400 
     91 CB         -6.6583  -22.8639  -50.0116 C.3       16 UNK        -0.1800 
     92 C          -5.0897  -21.0125  -49.1648 C.2       16 UNK         0.5000 
     93 O          -5.9848  -20.2154  -49.4410 O.2       16 UNK        -0.5000 
     94 N          -3.8532  -20.6419  -48.8023 N.am      17 UNK        -0.5000 
     95 CA         -3.3335  -19.2710  -48.7182 C.3       17 UNK         0.1400 
     96 CB         -3.9315  -18.5475  -47.4954 C.3       17 UNK        -0.1800 
     97 C          -3.5019  -18.4739  -50.0346 C.2       17 UNK         0.5000 
     98 O          -3.7934  -17.2783  -50.0014 O.2       17 UNK        -0.5000 
     99 N          -3.3271  -19.1761  -51.1635 N.am      18 UNK        -0.5000 
    100 CA        -3.4886  -18.7295  -52.5502 C.3       18 UNK         0.1400 
    101 CB        -2.6355  -17.4883  -52.8821 C.3       18 UNK        -0.1800 
    102 C         -4.9479  -18.6077  -53.0279 C.2       18 UNK         0.5000 
    103 O         -5.1791  -18.0709  -54.1124 O.2       18 UNK        -0.5000 
    104 N         -5.9080  -19.1600  -52.2715 N.am      19 UNK        -0.5000 
    105 CA        -7.2786  -19.3684  -52.7490 C.3       19 UNK         0.1400 
    106 CB        -8.2390  -19.4792  -51.5553 C.3       19 UNK        -0.1800 
    107 C         -7.3966  -20.6087  -53.6604 C.2       19 UNK         0.5000 
    108 O         -8.3865  -20.7231  -54.3847 O.2       19 UNK        -0.5000 
    109 N         -6.4027  -21.5074  -53.6118 N.am      20 UNK        -0.5000 
    110 CA        -6.3146  -22.7183  -54.4194 C.3       20 UNK         0.1400 
    111 CB        -6.5992  -23.9465  -53.5360 C.3       20 UNK        -0.1800 
    112 C         -4.9615  -22.7396  -55.1539 C.2       20 UNK         0.5000 
    113 O         -4.7004  -21.8189  -55.9305 O.2       20 UNK        -0.5000 
    114 N         -4.1362  -23.7769  -54.9407 N.am      21 UNK        -0.5000 
    115 CA        -2.9748  -24.1156  -55.7761 C.3       21 UNK         0.1400 
    116 CB        -2.3751  -25.4507  -55.3065 C.3       21 UNK        -0.1800 
    117 C         -1.8707  -23.0441  -55.8982 C.2       21 UNK         0.5000 
    118 O         -1.1488  -23.0588  -56.8964 O.2       21 UNK        -0.5000 
    119 N         -1.7554  -22.1411  -54.9141 N.am      22 UNK        -0.5000 
    120 CA        -0.8258  -20.9947  -54.9562 C.3       22 UNK         0.1400 
    121 C         -1.4425  -19.7087  -55.5856 C.2       22 UNK         0.5000 
    122 N         -2.7001  -19.7071  -56.0136 N.am      22 UNK        -0.7600 
    123 O         -0.7676  -18.6907  -55.7016 O.2       22 UNK        -0.5000 
    124 C124       -0.1679  -20.7373  -53.5706 C.3       23 UNK        -0.0398 
    125 S125        1.5754  -20.2072  -53.6954 S.3       23 UNK        -0.2404 
    126 C126        1.5498  -18.5491  -52.9288 C.3       23 UNK        -0.0205 
    127 H127       -5.6006  -12.1162  -49.6556 H         1 UNK         0.0600 
    128 H128       -5.0782  -10.6090  -48.8956 H         1 UNK         0.0600 
    129 H129       -5.2453  -12.0757  -47.9266 H         1 UNK         0.0600 
    130 H130       -3.2609  -12.9463  -47.4173 H         1 UNK         0.3000 
    131 H131       -1.2373  -13.4530  -49.4111 H         1 UNK         0.0600 
    132 H132       -0.8061  -13.8218  -46.4065 H         1 UNK         0.0800 
    133 H133       -1.8870  -14.8779  -47.2617 H         1 UNK         0.0800 
    134 H134       -1.1060  -17.1246  -47.9617 H         1 UNK         0.0800 
    135 H135       -1.2422  -16.2272  -49.4558 H         1 UNK         0.0800 
    136 H136        0.0421  -16.8871  -51.3818 H         1 UNK         0.1150 
    137 H137        2.7516  -20.2018  -51.0799 H         1 UNK         0.1150 
    138 H138        0.9914  -18.5287  -47.5533 H         1 UNK         0.1150 
    139 H139        3.7555  -20.5285  -48.7262 H         1 UNK         0.0800 
    140 H140        2.7791  -20.1440  -47.3384 H         1 UNK         0.0800 
    141 H141       -0.3299  -21.8483  -48.7201 H         1 UNK         0.0800 
    142 H142        0.2035  -20.8532  -47.4119 H         1 UNK         0.0800 
    143 H143        0.1821  -23.8884  -47.1393 H         1 UNK         0.0600 
    144 H144        0.6991  -21.6678  -45.2961 H         1 UNK         0.3000 
    145 H145        1.4195  -23.7974  -42.5211 H         1 UNK         0.0600 
    146 H146        3.3526  -22.2301  -42.5423 H         1 UNK         0.0600 
    147 H147        3.5091  -23.4410  -43.8068 H         1 UNK         0.0600 
    148 H148        3.0168  -21.8047  -44.2182 H         1 UNK         0.0600 
    149 H149        1.0870  -20.9423  -42.8882 H         1 UNK         0.3000 
    150 H150       -2.2882  -20.8355  -41.7182 H         1 UNK         0.0600 
    151 H151       -0.9416  -20.9743  -39.6217 H         1 UNK         0.0600 
    152 H152       -1.2888  -19.3027  -40.0407 H         1 UNK         0.0600 
    153 H153        0.3126  -19.9721  -40.3431 H         1 UNK         0.0600 
    154 H154       -0.4083  -18.7846  -42.3924 H         1 UNK         0.3000 
    155 H155       -1.0615  -18.7081  -45.8887 H         1 UNK         0.0600 
    156 H156       -1.8431  -16.7370  -43.6738 H         1 UNK         0.0600 
    157 H157       -2.9059  -17.3438  -44.9290 H         1 UNK         0.0600 
    158 H158       -1.5427  -16.3213  -45.3590 H         1 UNK         0.0600 
    159 H159        0.5901  -17.1004  -44.2129 H         1 UNK         0.3000 
    160 H160        3.5118  -19.1593  -44.3001 H         1 UNK         0.0600 
    161 H161        2.7051  -16.7372  -45.9796 H         1 UNK         0.0600 
    162 H162        3.6572  -18.1204  -46.4701 H         1 UNK         0.0600 
    163 H163        4.3377  -16.9646  -45.3407 H         1 UNK         0.0600 
    164 H164        2.9198  -16.5061  -43.3177 H         1 UNK         0.3000 
    165 H165        2.1338  -17.5909  -39.9926 H         1 UNK         0.0600 
    166 H166        4.4736  -16.0082  -41.1851 H         1 UNK         0.0600 
    167 H167        4.6287  -17.4429  -40.1772 H         1 UNK         0.0600 
    168 H168        3.9385  -15.9737  -39.5058 H         1 UNK         0.0600 
    169 H169        2.1463  -14.9750  -40.8802 H         1 UNK         0.3000 
    170 H170       -0.9597  -14.6986  -42.4542 H         1 UNK         0.0600 
    171 H171       -1.8484  -15.0831  -40.1779 H         1 UNK         0.0600 
    172 H172       -0.5510  -14.1305  -39.4738 H         1 UNK         0.0600 
    173 H173       -1.7480  -13.3628  -40.5170 H         1 UNK         0.0600 
    174 H174        0.3626  -13.0066  -42.8774 H         1 UNK         0.3000 
    175 H175        1.3029  -10.8267  -42.1013 H         1 UNK         0.0600 
    176 H176        3.9730  -11.4440  -40.7304 H         1 UNK         0.0600 
    177 H177        3.4958   -9.8954  -41.4256 H         1 UNK         0.0600 
    178 H178        2.6451  -10.5281  -40.0266 H         1 UNK         0.0600 
    179 H179        3.7988  -11.9372  -43.1019 H         1 UNK         0.3000 
    180 H180        4.0619  -11.9787  -45.3980 H         1 UNK         0.0600 
    181 H181        2.4032  -14.5560  -45.4574 H         1 UNK         0.0600 
    182 H182        3.8567  -14.2911  -44.5003 H         1 UNK         0.0600 
    183 H183        3.9658  -14.3508  -46.2532 H         1 UNK         0.0600 
    184 H184        2.0206  -12.9289  -47.2472 H         1 UNK         0.3000 
    185 H185        1.2396   -9.8409  -48.6871 H         1 UNK         0.0600 
    186 H186        3.4671  -10.1416  -49.7664 H         1 UNK         0.0600 
    187 H187        3.1954  -11.8757  -49.8883 H         1 UNK         0.0600 
    188 H188        2.1836  -10.7524  -50.7977 H         1 UNK         0.0600 
    189 H189        0.9060  -12.6256  -49.4406 H         1 UNK         0.3000 
    190 H190       -1.6031  -23.5271  -44.7234 H         1 UNK         0.3000 
    191 H191       -4.1390  -22.5648  -45.6247 H         1 UNK         0.0600 
    192 H192       -3.5485  -22.6424  -43.2403 H         1 UNK         0.0600 
    193 H193       -4.9619  -23.6461  -43.5120 H         1 UNK         0.0600 
    194 H194       -3.3856  -24.3983  -43.2887 H         1 UNK         0.0600 
    195 H195       -2.5372  -25.6147  -46.1040 H         1 UNK         0.3000 
    196 H196       -5.0215  -26.9050  -47.1631 H         1 UNK         0.0600 
    197 H197       -3.7694  -29.0362  -46.8521 H         1 UNK         0.0600 
    198 H198       -3.9255  -28.1928  -45.3188 H         1 UNK         0.0600 
    199 H199       -2.3930  -28.1621  -46.1896 H         1 UNK         0.0600 
    200 H200       -4.9150  -27.7168  -49.2204 H         1 UNK         0.3000 
    201 H201       -4.4993  -27.9817  -51.3425 H         1 UNK         0.0600 
    202 H202       -2.5538  -29.3342  -50.6371 H         1 UNK         0.0600 
    203 H203       -1.5182  -27.9087  -50.6417 H         1 UNK         0.0600 
    204 H204       -2.2123  -28.4982  -52.1438 H         1 UNK         0.0600 
    205 H205       -2.1911  -25.5147  -50.2305 H         1 UNK         0.3000 
    206 H206       -2.4053  -23.8443  -52.6264 H         1 UNK         0.0600 
    207 H207       -0.2958  -23.7517  -51.5139 H         1 UNK         0.0600 
    208 H208       -1.0800  -22.2554  -51.0172 H         1 UNK         0.0600 
    209 H209       -1.0288  -23.6305  -49.9225 H         1 UNK         0.0600 
    210 H210       -3.7989  -23.9626  -49.4084 H         1 UNK         0.3000 
    211 H211       -5.3894  -22.9196  -48.2894 H         1 UNK         0.0600 
    212 H212       -6.6970  -22.4375  -51.0122 H         1 UNK         0.0600 
    213 H213       -7.5086  -22.4694  -49.4545 H         1 UNK         0.0600 
    214 H214       -6.7987  -23.9412  -50.0992 H         1 UNK         0.0600 
    215 H215       -3.2050  -21.3860  -48.5492 H         1 UNK         0.3000 
    216 H216       -2.2587  -19.3629  -48.5551 H         1 UNK         0.0600 
    217 H217       -3.4779  -17.5659  -47.3571 H         1 UNK         0.0600 
    218 H218       -3.7623  -19.1175  -46.5817 H         1 UNK         0.0600 
    219 H219       -5.0062  -18.3975  -47.6019 H         1 UNK         0.0600 
    220 H220       -3.1773  -20.1724  -51.0658 H         1 UNK         0.3000 
    221 H221       -3.0898  -19.5507  -53.1441 H         1 UNK         0.0600 
    222 H222       -2.9542  -16.6035  -52.3323 H         1 UNK         0.0600 
    223 H223       -1.5879  -17.6726  -52.6613 H         1 UNK         0.0600 
    224 H224       -2.6917  -17.2443  -53.9434 H         1 UNK         0.0600 
    225 H225       -5.6784  -19.5500  -51.3635 H         1 UNK         0.3000 
    226 H226       -7.5847  -18.4988  -53.3344 H         1 UNK         0.0600 
    227 H227       -8.1206  -18.6395  -50.8702 H         1 UNK         0.0600 
    228 H228       -9.2760  -19.4812  -51.8926 H         1 UNK         0.0600 
    229 H229       -8.0824  -20.3986  -50.9923 H         1 UNK         0.0600 
    230 H230       -5.6128  -21.3364  -52.9998 H         1 UNK         0.3000 
    231 H231       -7.0697  -22.7019  -55.2075 H         1 UNK         0.0600 
    232 H232       -5.9150  -24.0039  -52.6917 H         1 UNK         0.0600 
    233 H233       -6.5197  -24.8757  -54.1016 H         1 UNK         0.0600 
    234 H234       -7.6106  -23.9050  -53.1318 H         1 UNK         0.0600 
    235 H235       -4.3995  -24.4732  -54.2515 H         1 UNK         0.3000 
    236 H236       -3.3612  -24.2710  -56.7855 H         1 UNK         0.0600 
    237 H237       -3.1269  -26.2400  -55.2920 H         1 UNK         0.0600 
    238 H238       -1.5786  -25.7774  -55.9762 H         1 UNK         0.0600 
    239 H239       -1.9467  -25.3762  -54.3076 H         1 UNK         0.0600 
    240 H240       -2.4243  -22.1617  -54.1588 H         1 UNK         0.3000 
    241 H241       -0.0162  -21.2623  -55.6374 H         1 UNK         0.0600 
    242 H242       -3.0764  -18.8641  -56.4162 H         1 UNK         0.3800 
    243 H243       -3.2880  -20.5346  -55.9651 H         1 UNK         0.3800 
    244 H244       -0.7434  -20.0374  -52.9643 H         1 UNK         0.0800 
    245 H245       -0.1385  -21.6668  -53.0054 H         1 UNK         0.0800 
    246 H246        0.7613  -17.9585  -53.3977 H         1 UNK         0.0800 
    247 H247        2.4885  -18.0469  -53.1652 H         1 UNK         0.0800 
@<TRIPOS>BOND
     1    1    2 1    
     2    1  127 1    
     3    1  128 1    
     4    1  129 1    
     5    2    3 2    
     6    2    4 am   BACKBONE|DICT|INTERRES
     7    4    5 1    
     8    4  130 1    
     9    5    6 1    
    10    5   65 1    
    11    5  131 1    
    12    6    7 1    
    13    6  132 1    
    14    6  133 1    
    15    7    8 1    
    16    8    9 1    
    17    8  134 1    
    18    8  135 1    
    19    9   10 ar   
    20    9   14 ar   
    21   10   11 ar   
    22   10  136 1    
    23   11   12 ar   
    24   11  126 1    
    25   12   13 ar   
    26   12  137 1    
    27   13   14 ar   
    28   13   15 1    
    29   14  138 1    
    30   15   16 1    
    31   15  139 1    
    32   15  140 1    
    33   16   17 1    
    34   17   18 1    
    35   17  141 1    
    36   17  142 1    
    37   18   19 1    
    38   18   67 1    
    39   18  143 1    
    40   19   20 am   BACKBONE|DICT|INTERRES
    41   19  144 1    
    42   20   21 2    
    43   20   22 1    
    44   22   23 1    
    45   22   24 1    
    46   22  145 1    
    47   23  146 1    
    48   23  147 1    
    49   23  148 1    
    50   24   25 am   BACKBONE|DICT|INTERRES
    51   24  149 1    
    52   25   26 2    
    53   25   27 1    
    54   27   28 1    
    55   27   29 1    
    56   27  150 1    
    57   28  151 1    
    58   28  152 1    
    59   28  153 1    
    60   29   30 am   BACKBONE|DICT|INTERRES
    61   29  154 1    
    62   30   31 2    
    63   30   32 1    
    64   32   33 1    
    65   32   34 1    
    66   32  155 1    
    67   33  156 1    
    68   33  157 1    
    69   33  158 1    
    70   34   35 am   BACKBONE|DICT|INTERRES
    71   34  159 1    
    72   35   36 2    
    73   35   37 1    
    74   37   38 1    
    75   37   39 1    
    76   37  160 1    
    77   38  161 1    
    78   38  162 1    
    79   38  163 1    
    80   39   40 am   BACKBONE|DICT|INTERRES
    81   39  164 1    
    82   40   41 2    
    83   40   42 1    
    84   42   43 1    
    85   42   44 1    
    86   42  165 1    
    87   43  166 1    
    88   43  167 1    
    89   43  168 1    
    90   44   45 am   BACKBONE|DICT|INTERRES
    91   44  169 1    
    92   45   46 2    
    93   45   47 1    
    94   47   48 1    
    95   47   49 1    
    96   47  170 1    
    97   48  171 1    
    98   48  172 1    
    99   48  173 1    
   100   49   50 am   BACKBONE|DICT|INTERRES
   101   49  174 1    
   102   50   51 2    
   103   50   52 1    
   104   52   53 1    
   105   52   54 1    
   106   52  175 1    
   107   53  176 1    
   108   53  177 1    
   109   53  178 1    
   110   54   55 am   BACKBONE|DICT|INTERRES
   111   54  179 1    
   112   55   56 2    
   113   55   57 1    
   114   57   58 1    
   115   57   59 1    
   116   57  180 1    
   117   58  181 1    
   118   58  182 1    
   119   58  183 1    
   120   59   60 am   BACKBONE|DICT|INTERRES
   121   59  184 1    
   122   60   61 2    
   123   60   62 1    
   124   62   63 1    
   125   62   64 1    
   126   62  185 1    
   127   63  186 1    
   128   63  187 1    
   129   63  188 1    
   130   64   65 am   BACKBONE|DICT|INTERRES
   131   64  189 1    
   132   65   66 2    
   133   67   68 2    
   134   67   69 am   BACKBONE|DICT|INTERRES
   135   69   70 1    
   136   69  190 1    
   137   70   71 1    
   138   70   72 1    
   139   70  191 1    
   140   71  192 1    
   141   71  193 1    
   142   71  194 1    
   143   72   73 2    
   144   72   74 am   BACKBONE|DICT|INTERRES
   145   74   75 1    
   146   74  195 1    
   147   75   76 1    
   148   75   77 1    
   149   75  196 1    
   150   76  197 1    
   151   76  198 1    
   152   76  199 1    
   153   77   78 2    
   154   77   79 am   BACKBONE|DICT|INTERRES
   155   79   80 1    
   156   79  200 1    
   157   80   81 1    
   158   80   82 1    
   159   80  201 1    
   160   81  202 1    
   161   81  203 1    
   162   81  204 1    
   163   82   83 2    
   164   82   84 am   BACKBONE|DICT|INTERRES
   165   84   85 1    
   166   84  205 1    
   167   85   86 1    
   168   85   87 1    
   169   85  206 1    
   170   86  207 1    
   171   86  208 1    
   172   86  209 1    
   173   87   88 2    
   174   87   89 am   BACKBONE|DICT|INTERRES
   175   89   90 1    
   176   89  210 1    
   177   90   91 1    
   178   90   92 1    
   179   90  211 1    
   180   91  212 1    
   181   91  213 1    
   182   91  214 1    
   183   92   93 2    
   184   92   94 am   BACKBONE|DICT|INTERRES
   185   94   95 1    
   186   94  215 1    
   187   95   96 1    
   188   95   97 1    
   189   95  216 1    
   190   96  217 1    
   191   96  218 1    
   192   96  219 1    
   193   97   98 2    
   194   97   99 am   BACKBONE|DICT|INTERRES
   195   99  100 1    
   196   99  220 1    
   197  100  101 1    
   198  100  102 1    
   199  100  221 1    
   200  101  222 1    
   201  101  223 1    
   202  101  224 1    
   203  102  103 2    
   204  102  104 am   BACKBONE|DICT|INTERRES
   205  104  105 1    
   206  104  225 1    
   207  105  106 1    
   208  105  107 1    
   209  105  226 1    
   210  106  227 1    
   211  106  228 1    
   212  106  229 1    
   213  107  108 2    
   214  107  109 am   BACKBONE|DICT|INTERRES
   215  109  110 1    
   216  109  230 1    
   217  110  111 1    
   218  110  112 1    
   219  110  231 1    
   220  111  232 1    
   221  111  233 1    
   222  111  234 1    
   223  112  113 2    
   224  112  114 am   BACKBONE|DICT|INTERRES
   225  114  115 1    
   226  114  235 1    
   227  115  116 1    
   228  115  117 1    
   229  115  236 1    
   230  116  237 1    
   231  116  238 1    
   232  116  239 1    
   233  117  118 2    
   234  117  119 am   BACKBONE|DICT|INTERRES
   235  119  120 1    
   236  119  240 1    
   237  120  121 1    
   238  120  124 1    
   239  120  241 1    
   240  121  122 am   BACKBONE|DICT|INTERRES
   241  121  123 2    
   242  122  242 1    
   243  122  243 1    
   244  124  125 1    
   245  124  244 1    
   246  124  245 1    
   247  125  126 1    
   248  126  246 1    
   249  126  247 1    
@<TRIPOS>SUBSTRUCTURE
     1 UNK         1 GROUP             0       ****    0 ROOT    
