@<TRIPOS>MOLECULE
3R540
247   249    1
SMALL
USER_CHARGES


@<TRIPOS>ATOM
      1 CA         -0.9352  -11.2221  -49.9983 C.3       0 UNK        -0.1800 
      2 C          -1.4991  -12.3484  -50.8632 C.2       0 UNK         0.5000 
      3 O          -2.0840  -12.0705  -51.9085 O.2       0 UNK        -0.5000 
      4 N          -1.3396  -13.6248  -50.4893 N.am      1 UNK        -0.5000 
      5 CA         -0.7547  -14.1179  -49.2374 C.3       1 UNK         0.1400 
      6 C6         -0.3048  -15.5938  -49.3664 C.3       23 UNK        -0.0398 
      7 S7         -1.6289  -16.7660  -49.8391 S.3       23 UNK        -0.2404 
      8 C8         -1.0275  -17.4191  -51.4343 C.3       23 UNK        -0.0205 
      9 C9          0.3285  -18.1293  -51.4183 C.ar      23 UNK        -0.0193 
     10 C10         0.9507  -18.3712  -52.6458 C.ar      23 UNK        -0.1150 
     11 C11         2.1976  -18.9981  -52.7122 C.ar      23 UNK        -0.0193 
     12 C12         2.8437  -19.3639  -51.5301 C.ar      23 UNK        -0.1150 
     13 C13         2.2353  -19.1377  -50.2933 C.ar      23 UNK        -0.0193 
     14 C14         0.9712  -18.5419  -50.2425 C.ar      23 UNK        -0.1150 
     15 C15         2.9588  -19.5124  -49.0120 C.3       23 UNK        -0.0205 
     16 S16         2.7714  -21.2839  -48.6351 S.3       23 UNK        -0.2404 
     17 C17         2.2161  -21.2426  -46.8969 C.3       23 UNK        -0.0398 
     18 CA          0.8671  -21.9572  -46.6549 C.3       11 UNK         0.1400 
     19 N           0.5991  -22.0828  -45.2217 N.am      11 UNK        -0.5000 
     20 C          -0.3849  -22.8128  -44.6816 C.2       10 UNK         0.5000 
     21 O          -1.1617  -23.5070  -45.3364 O.2       10 UNK        -0.5000 
     22 CA         -0.5582  -22.7082  -43.1558 C.3       10 UNK         0.1400 
     23 CB          0.4711  -23.5835  -42.4256 C.3       10 UNK        -0.1800 
     24 N          -0.4597  -21.3292  -42.6746 N.am      10 UNK        -0.5000 
     25 C          -1.3059  -20.3463  -43.0159 C.2       9 UNK         0.5000 
     26 O          -2.2844  -20.5061  -43.7440 O.2       9 UNK        -0.5000 
     27 CA         -0.9781  -18.9384  -42.4924 C.3       9 UNK         0.1400 
     28 CB         -1.3497  -18.8162  -41.0065 C.3       9 UNK        -0.1800 
     29 N           0.4303  -18.5903  -42.6760 N.am      9 UNK        -0.5000 
     30 C           1.0574  -18.4987  -43.8575 C.2       8 UNK         0.5000 
     31 O           0.5055  -18.6612  -44.9426 O.2       8 UNK        -0.5000 
     32 CA          2.5733  -18.2478  -43.8205 C.3       8 UNK         0.1400 
     33 CB          2.8819  -16.7538  -43.6437 C.3       8 UNK        -0.1800 
     34 N           3.2275  -19.0257  -42.7682 N.am      8 UNK        -0.5000 
     35 C           3.3272  -20.3632  -42.7707 C.2       7 UNK         0.5000 
     36 O           2.9055  -21.0793  -43.6791 O.2       7 UNK        -0.5000 
     37 CA          3.9674  -21.0080  -41.5286 C.3       7 UNK         0.1400 
     38 CB          5.4997  -20.9697  -41.6256 C.3       7 UNK        -0.1800 
     39 N           3.5414  -20.3625  -40.2860 N.am      7 UNK        -0.5000 
     40 C           2.2940  -20.4160  -39.7977 C.2       6 UNK         0.5000 
     41 O           1.3805  -21.0515  -40.3248 O.2       6 UNK        -0.5000 
     42 CA          2.0115  -19.5706  -38.5396 C.3       6 UNK         0.1400 
     43 CB          2.4078  -20.3391  -37.2703 C.3       6 UNK        -0.1800 
     44 N           2.6838  -18.2650  -38.5521 N.am      6 UNK        -0.5000 
     45 C           2.4662  -17.3194  -39.4745 C.2       5 UNK         0.5000 
     46 O           1.6830  -17.4623  -40.4183 O.2       5 UNK        -0.5000 
     47 CA          3.2735  -16.0177  -39.3583 C.3       5 UNK         0.1400 
     48 CB          4.7556  -16.2500  -39.7046 C.3       5 UNK        -0.1800 
     49 N           2.6865  -15.0767  -40.3009 N.am      5 UNK        -0.5000 
     50 C           2.7960  -13.7468  -40.3250 C.2       4 UNK         0.5000 
     51 O           3.4810  -13.0990  -39.5328 O.2       4 UNK        -0.5000 
     52 CA          1.9961  -13.0187  -41.4275 C.3       4 UNK         0.1400 
     53 CB          2.9193  -12.6359  -42.5943 C.3       4 UNK        -0.1800 
     54 N           0.8804  -13.8116  -41.9573 N.am      4 UNK        -0.5000 
     55 C          -0.2466  -14.0997  -41.2947 C.2       3 UNK         0.5000 
     56 O          -0.4987  -13.6659  -40.1694 O.2       3 UNK        -0.5000 
     57 CA         -1.2502  -15.0225  -42.0202 C.3       3 UNK         0.1400 
     58 CB         -2.4583  -15.3900  -41.1388 C.3       3 UNK        -0.1800 
     59 N          -1.7522  -14.4409  -43.2652 N.am      3 UNK        -0.5000 
     60 C          -1.0833  -14.3418  -44.4192 C.2       2 UNK         0.5000 
     61 O           0.0751  -14.7369  -44.5804 O.2       2 UNK        -0.5000 
     62 CA         -1.8342  -13.6572  -45.5695 C.3       2 UNK         0.1400 
     63 CB         -1.9536  -12.1406  -45.3275 C.3       2 UNK        -0.1800 
     64 N          -1.1304  -13.8955  -46.8251 N.am      2 UNK        -0.5000 
     65 C          -1.7004  -13.8973  -48.0345 C.2       1 UNK         0.5000 
     66 O          -2.9079  -13.7199  -48.2172 O.2       1 UNK        -0.5000 
     67 C          -0.3126  -21.2945  -47.4017 C.2       11 UNK         0.5000 
     68 O          -0.7595  -21.8249  -48.4190 O.2       11 UNK        -0.5000 
     69 N          -0.8378  -20.1880  -46.8568 N.am      12 UNK        -0.5000 
     70 CA         -2.0023  -19.4765  -47.3824 C.3       12 UNK         0.1400 
     71 CB         -2.2076  -18.1639  -46.6098 C.3       12 UNK        -0.1800 
     72 C          -3.2854  -20.3225  -47.3708 C.2       12 UNK         0.5000 
     73 O          -4.0553  -20.2550  -48.3288 O.2       12 UNK        -0.5000 
     74 N          -3.4772  -21.1249  -46.3148 N.am      13 UNK        -0.5000 
     75 CA         -4.5707  -22.0878  -46.1937 C.3       13 UNK         0.1400 
     76 CB         -4.6384  -22.6211  -44.7550 C.3       13 UNK        -0.1800 
     77 C          -4.4522  -23.2430  -47.2041 C.2       13 UNK         0.5000 
     78 O          -5.4565  -23.6124  -47.8118 O.2       13 UNK        -0.5000 
     79 N          -3.2322  -23.7666  -47.3950 N.am      14 UNK        -0.5000 
     80 CA         -2.9186  -24.8177  -48.3672 C.3       14 UNK         0.1400 
     81 CB         -1.4917  -25.3345  -48.1287 C.3       14 UNK        -0.1800 
     82 C          -3.0984  -24.3557  -49.8256 C.2       14 UNK         0.5000 
     83 O          -3.6345  -25.1072  -50.6403 O.2       14 UNK        -0.5000 
     84 N          -2.6832  -23.1156  -50.1187 N.am      15 UNK        -0.5000 
     85 CA         -2.8960  -22.4479  -51.4046 C.3       15 UNK         0.1400 
     86 CB         -1.9431  -21.2455  -51.5045 C.3       15 UNK        -0.1800 
     87 C          -4.3541  -21.9955  -51.6206 C.2       15 UNK         0.5000 
     88 O          -4.7258  -21.6950  -52.7561 O.2       15 UNK        -0.5000 
     89 N          -5.1331  -21.9256  -50.5312 N.am      16 UNK        -0.5000 
     90 CA         -6.5044  -21.4214  -50.4165 C.3       16 UNK         0.1400 
     91 CB         -7.4929  -22.3468  -51.1496 C.3       16 UNK        -0.1800 
     92 C          -6.6081  -19.9540  -50.8702 C.2       16 UNK         0.5000 
     93 O          -7.4519  -19.6198  -51.7010 O.2       16 UNK        -0.5000 
     94 N          -5.6899  -19.1174  -50.3648 N.am      17 UNK        -0.5000 
     95 CA         -5.4803  -17.7154  -50.7507 C.3       17 UNK         0.1400 
     96 CB         -6.6524  -16.8347  -50.2718 C.3       17 UNK        -0.1800 
     97 C          -5.1767  -17.5573  -52.2592 C.2       17 UNK         0.5000 
     98 O          -5.6429  -16.6112  -52.8950 O.2       17 UNK        -0.5000 
     99 N          -4.4091  -18.5202  -52.7893 N.am      18 UNK        -0.5000 
    100 CA        -3.9798  -18.6920  -54.1806 C.3       18 UNK         0.1400 
    101 CB        -3.2543  -17.4381  -54.7163 C.3       18 UNK        -0.1800 
    102 C         -5.0779  -19.1943  -55.1409 C.2       18 UNK         0.5000 
    103 O         -4.8652  -19.1749  -56.3545 O.2       18 UNK        -0.5000 
    104 N         -6.2207  -19.6548  -54.6130 N.am      19 UNK        -0.5000 
    105 CA        -7.3184  -20.1926  -55.4169 C.3       19 UNK         0.1400 
    106 CB        -8.6427  -20.0229  -54.6574 C.3       19 UNK        -0.1800 
    107 C         -7.1222  -21.6690  -55.8099 C.2       19 UNK         0.5000 
    108 O         -7.6283  -22.0714  -56.8587 O.2       19 UNK        -0.5000 
    109 N         -6.4386  -22.4587  -54.9679 N.am      20 UNK        -0.5000 
    110 CA        -6.3658  -23.9167  -55.1091 C.3       20 UNK         0.1400 
    111 CB        -6.6099  -24.5764  -53.7425 C.3       20 UNK        -0.1800 
    112 C         -5.0387  -24.4194  -55.6959 C.2       20 UNK         0.5000 
    113 O         -5.0332  -25.4938  -56.2997 O.2       20 UNK        -0.5000 
    114 N         -3.9403  -23.6794  -55.4997 N.am      21 UNK        -0.5000 
    115 CA        -2.5997  -24.1155  -55.8885 C.3       21 UNK         0.1400 
    116 CB        -2.0242  -25.0789  -54.8243 C.3       21 UNK        -0.1800 
    117 C         -1.7075  -22.9053  -56.2066 C.2       21 UNK         0.5000 
    118 O         -1.9421  -22.2471  -57.2204 O.2       21 UNK        -0.5000 
    119 N         -0.6879  -22.6756  -55.3675 N.am      22 UNK        -0.5000 
    120 CA         0.3826  -21.6722  -55.4969 C.3       22 UNK         0.1400 
    121 C         -0.1187  -20.2431  -55.8452 C.2       22 UNK         0.5000 
    122 N          0.4031  -19.6244  -56.8961 N.am      22 UNK        -0.7600 
    123 O         -0.9467  -19.6795  -55.1397 O.2       22 UNK        -0.5000 
    124 C124        1.2415  -21.6551  -54.2053 C.3       23 UNK        -0.0398 
    125 S125        2.9507  -21.0564  -54.4549 S.3       23 UNK        -0.2404 
    126 C126        2.8418  -19.2757  -54.0631 C.3       23 UNK        -0.0205 
    127 H127        0.1325  -11.3556  -49.8261 H         1 UNK         0.0600 
    128 H128       -1.4463  -11.1741  -49.0371 H         1 UNK         0.0600 
    129 H129       -1.0699  -10.2594  -50.4921 H         1 UNK         0.0600 
    130 H130       -1.7554  -14.3446  -51.0615 H         1 UNK         0.3000 
    131 H131        0.1471  -13.5357  -49.0403 H         1 UNK         0.0600 
    132 H132        0.1385  -15.9432  -48.4324 H         1 UNK         0.0800 
    133 H133        0.4995  -15.6479  -50.1010 H         1 UNK         0.0800 
    134 H134       -0.9884  -16.5904  -52.1425 H         1 UNK         0.0800 
    135 H135       -1.7699  -18.1187  -51.8173 H         1 UNK         0.0800 
    136 H136        0.4548  -18.0728  -53.5590 H         1 UNK         0.1150 
    137 H137        3.8150  -19.8367  -51.5741 H         1 UNK         0.1150 
    138 H138        0.5068  -18.3874  -49.2800 H         1 UNK         0.1150 
    139 H139        4.0214  -19.2852  -49.1097 H         1 UNK         0.0800 
    140 H140        2.5957  -18.8878  -48.1955 H         1 UNK         0.0800 
    141 H141        2.1744  -20.2212  -46.5198 H         1 UNK         0.0800 
    142 H142        2.9942  -21.7355  -46.3125 H         1 UNK         0.0800 
    143 H143        0.9596  -22.9730  -47.0451 H         1 UNK         0.0600 
    144 H144        1.2200  -21.5714  -44.6019 H         1 UNK         0.3000 
    145 H145       -1.5556  -23.0776  -42.9088 H         1 UNK         0.0600 
    146 H146        0.3014  -23.5743  -41.3487 H         1 UNK         0.0600 
    147 H147        1.4911  -23.2423  -42.6046 H         1 UNK         0.0600 
    148 H148        0.4073  -24.6207  -42.7568 H         1 UNK         0.0600 
    149 H149        0.2991  -21.1224  -42.0327 H         1 UNK         0.3000 
    150 H150       -1.5729  -18.2183  -43.0579 H         1 UNK         0.0600 
    151 H151       -2.4262  -18.9187  -40.8659 H         1 UNK         0.0600 
    152 H152       -1.0552  -17.8508  -40.5990 H         1 UNK         0.0600 
    153 H153       -0.8666  -19.5836  -40.4021 H         1 UNK         0.0600 
    154 H154        0.9612  -18.3963  -41.8305 H         1 UNK         0.3000 
    155 H155        2.9894  -18.5650  -44.7790 H         1 UNK         0.0600 
    156 H156        2.4862  -16.1771  -44.4806 H         1 UNK         0.0600 
    157 H157        3.9555  -16.5705  -43.6013 H         1 UNK         0.0600 
    158 H158        2.4347  -16.3531  -42.7365 H         1 UNK         0.0600 
    159 H159        3.5575  -18.5173  -41.9626 H         1 UNK         0.3000 
    160 H160        3.6530  -22.0535  -41.4963 H         1 UNK         0.0600 
    161 H161        5.8796  -19.9473  -41.6359 H         1 UNK         0.0600 
    162 H162        5.8446  -21.4576  -42.5382 H         1 UNK         0.0600 
    163 H163        5.9605  -21.4906  -40.7861 H         1 UNK         0.0600 
    164 H164        4.2316  -19.8186  -39.7897 H         1 UNK         0.3000 
    165 H165        0.9353  -19.3888  -38.5040 H         1 UNK         0.0600 
    166 H166        2.1244  -19.7899  -36.3723 H         1 UNK         0.0600 
    167 H167        1.9076  -21.3076  -37.2284 H         1 UNK         0.0600 
    168 H168        3.4822  -20.5221  -37.2277 H         1 UNK         0.0600 
    169 H169        3.3412  -18.0866  -37.8064 H         1 UNK         0.3000 
    170 H170        3.1750  -15.6288  -38.3431 H         1 UNK         0.0600 
    171 H171        4.8754  -16.6431  -40.7151 H         1 UNK         0.0600 
    172 H172        5.3266  -15.3237  -39.6391 H         1 UNK         0.0600 
    173 H173        5.2165  -16.9597  -39.0169 H         1 UNK         0.0600 
    174 H174        2.0496  -15.5210  -40.9498 H         1 UNK         0.3000 
    175 H175        1.5917  -12.1026  -40.9921 H         1 UNK         0.0600 
    176 H176        3.3423  -13.5177  -43.0775 H         1 UNK         0.0600 
    177 H177        2.3820  -12.0638  -43.3510 H         1 UNK         0.0600 
    178 H178        3.7503  -12.0188  -42.2500 H         1 UNK         0.0600 
    179 H179        0.9715  -14.1643  -42.9053 H         1 UNK         0.3000 
    180 H180       -0.7156  -15.9438  -42.2577 H         1 UNK         0.0600 
    181 H181       -3.0776  -14.5189  -40.9216 H         1 UNK         0.0600 
    182 H182       -2.1403  -15.8076  -40.1830 H         1 UNK         0.0600 
    183 H183       -3.0872  -16.1364  -41.6246 H         1 UNK         0.0600 
    184 H184       -2.6836  -14.0535  -43.2178 H         1 UNK         0.3000 
    185 H185       -2.8316  -14.0992  -45.6227 H         1 UNK         0.0600 
    186 H186       -0.9728  -11.6676  -45.2628 H         1 UNK         0.0600 
    187 H187       -2.5061  -11.6535  -46.1312 H         1 UNK         0.0600 
    188 H188       -2.4837  -11.9264  -44.3989 H         1 UNK         0.0600 
    189 H189       -0.1473  -14.1097  -46.7109 H         1 UNK         0.3000 
    190 H190       -0.3965  -19.7785  -46.0353 H         1 UNK         0.3000 
    191 H191       -1.7881  -19.2370  -48.4242 H         1 UNK         0.0600 
    192 H192       -1.3350  -17.5159  -46.6948 H         1 UNK         0.0600 
    193 H193       -2.3880  -18.3440  -45.5498 H         1 UNK         0.0600 
    194 H194       -3.0611  -17.6089  -47.0012 H         1 UNK         0.0600 
    195 H195       -2.8328  -21.0657  -45.5316 H         1 UNK         0.3000 
    196 H196       -5.5044  -21.5607  -46.4011 H         1 UNK         0.0600 
    197 H197       -4.8041  -21.8121  -44.0434 H         1 UNK         0.0600 
    198 H198       -3.7193  -23.1329  -44.4695 H         1 UNK         0.0600 
    199 H199       -5.4593  -23.3298  -44.6391 H         1 UNK         0.0600 
    200 H200       -2.4633  -23.4402  -46.8168 H         1 UNK         0.3000 
    201 H201       -3.6096  -25.6457  -48.1959 H         1 UNK         0.0600 
    202 H202       -1.3820  -25.7365  -47.1214 H         1 UNK         0.0600 
    203 H203       -0.7497  -24.5460  -48.2559 H         1 UNK         0.0600 
    204 H204       -1.2441  -26.1346  -48.8273 H         1 UNK         0.0600 
    205 H205       -2.1737  -22.5908  -49.4106 H         1 UNK         0.3000 
    206 H206       -2.6493  -23.1473  -52.2035 H         1 UNK         0.0600 
    207 H207       -0.9051  -21.5511  -51.3706 H         1 UNK         0.0600 
    208 H208       -2.1647  -20.4925  -50.7469 H         1 UNK         0.0600 
    209 H209       -2.0121  -20.7658  -52.4814 H         1 UNK         0.0600 
    210 H210       -4.7020  -22.1704  -49.6500 H         1 UNK         0.3000 
    211 H211       -6.7526  -21.4407  -49.3544 H         1 UNK         0.0600 
    212 H212       -7.3713  -22.2842  -52.2298 H         1 UNK         0.0600 
    213 H213       -8.5233  -22.0708  -50.9239 H         1 UNK         0.0600 
    214 H214       -7.3592  -23.3864  -50.8503 H         1 UNK         0.0600 
    215 H215       -5.0418  -19.4931  -49.6733 H         1 UNK         0.3000 
    216 H216       -4.5853  -17.3846  -50.2228 H         1 UNK         0.0600 
    217 H217       -6.4390  -15.7781  -50.4375 H         1 UNK         0.0600 
    218 H218       -6.8316  -16.9648  -49.2047 H         1 UNK         0.0600 
    219 H219       -7.5778  -17.0681  -50.7991 H         1 UNK         0.0600 
    220 H220       -4.1478  -19.2778  -52.1758 H         1 UNK         0.3000 
    221 H221       -3.2538  -19.5022  -54.1450 H         1 UNK         0.0600 
    222 H222       -3.9370  -16.6021  -54.8668 H         1 UNK         0.0600 
    223 H223       -2.4662  -17.1148  -54.0383 H         1 UNK         0.0600 
    224 H224       -2.7817  -17.6436  -55.6773 H         1 UNK         0.0600 
    225 H225       -6.3470  -19.6483  -53.6080 H         1 UNK         0.3000 
    226 H226       -7.3968  -19.6119  -56.3387 H         1 UNK         0.0600 
    227 H227       -8.7893  -18.9906  -54.3390 H         1 UNK         0.0600 
    228 H228       -9.4895  -20.2928  -55.2894 H         1 UNK         0.0600 
    229 H229       -8.6845  -20.6581  -53.7723 H         1 UNK         0.0600 
    230 H230       -5.9972  -22.0543  -54.1461 H         1 UNK         0.3000 
    231 H231       -7.1568  -24.2682  -55.7751 H         1 UNK         0.0600 
    232 H232       -6.5394  -25.6626  -53.8130 H         1 UNK         0.0600 
    233 H233       -7.6075  -24.3470  -53.3692 H         1 UNK         0.0600 
    234 H234       -5.8822  -24.2521  -52.9982 H         1 UNK         0.0600 
    235 H235       -4.0172  -22.7849  -55.0350 H         1 UNK         0.3000 
    236 H236       -2.6663  -24.6696  -56.8275 H         1 UNK         0.0600 
    237 H237       -1.9748  -24.6215  -53.8371 H         1 UNK         0.0600 
    238 H238       -2.6386  -25.9751  -54.7359 H         1 UNK         0.0600 
    239 H239       -1.0211  -25.4128  -55.0929 H         1 UNK         0.0600 
    240 H240       -0.6078  -23.2870  -54.5695 H         1 UNK         0.3000 
    241 H241        1.0096  -22.0230  -56.3186 H         1 UNK         0.0600 
    242 H242        0.0848  -18.6953  -57.1203 H         1 UNK         0.3800 
    243 H243        1.0896  -20.0689  -57.4853 H         1 UNK         0.3800 
    244 H244        1.3506  -22.6720  -53.8259 H         1 UNK         0.0800 
    245 H245        0.7419  -21.1111  -53.4032 H         1 UNK         0.0800 
    246 H246        2.2992  -18.7668  -54.8605 H         1 UNK         0.0800 
    247 H247        3.8478  -18.8543  -54.0694 H         1 UNK         0.0800 
@<TRIPOS>BOND
     1    1    2 1    
     2    1  127 1    
     3    1  128 1    
     4    1  129 1    
     5    2    3 2    
     6    2    4 am   BACKBONE|DICT|INTERRES
     7    4    5 1    
     8    4  130 1    
     9    5    6 1    
    10    5   65 1    
    11    5  131 1    
    12    6    7 1    
    13    6  132 1    
    14    6  133 1    
    15    7    8 1    
    16    8    9 1    
    17    8  134 1    
    18    8  135 1    
    19    9   10 ar   
    20    9   14 ar   
    21   10   11 ar   
    22   10  136 1    
    23   11   12 ar   
    24   11  126 1    
    25   12   13 ar   
    26   12  137 1    
    27   13   14 ar   
    28   13   15 1    
    29   14  138 1    
    30   15   16 1    
    31   15  139 1    
    32   15  140 1    
    33   16   17 1    
    34   17   18 1    
    35   17  141 1    
    36   17  142 1    
    37   18   19 1    
    38   18   67 1    
    39   18  143 1    
    40   19   20 am   BACKBONE|DICT|INTERRES
    41   19  144 1    
    42   20   21 2    
    43   20   22 1    
    44   22   23 1    
    45   22   24 1    
    46   22  145 1    
    47   23  146 1    
    48   23  147 1    
    49   23  148 1    
    50   24   25 am   BACKBONE|DICT|INTERRES
    51   24  149 1    
    52   25   26 2    
    53   25   27 1    
    54   27   28 1    
    55   27   29 1    
    56   27  150 1    
    57   28  151 1    
    58   28  152 1    
    59   28  153 1    
    60   29   30 am   BACKBONE|DICT|INTERRES
    61   29  154 1    
    62   30   31 2    
    63   30   32 1    
    64   32   33 1    
    65   32   34 1    
    66   32  155 1    
    67   33  156 1    
    68   33  157 1    
    69   33  158 1    
    70   34   35 am   BACKBONE|DICT|INTERRES
    71   34  159 1    
    72   35   36 2    
    73   35   37 1    
    74   37   38 1    
    75   37   39 1    
    76   37  160 1    
    77   38  161 1    
    78   38  162 1    
    79   38  163 1    
    80   39   40 am   BACKBONE|DICT|INTERRES
    81   39  164 1    
    82   40   41 2    
    83   40   42 1    
    84   42   43 1    
    85   42   44 1    
    86   42  165 1    
    87   43  166 1    
    88   43  167 1    
    89   43  168 1    
    90   44   45 am   BACKBONE|DICT|INTERRES
    91   44  169 1    
    92   45   46 2    
    93   45   47 1    
    94   47   48 1    
    95   47   49 1    
    96   47  170 1    
    97   48  171 1    
    98   48  172 1    
    99   48  173 1    
   100   49   50 am   BACKBONE|DICT|INTERRES
   101   49  174 1    
   102   50   51 2    
   103   50   52 1    
   104   52   53 1    
   105   52   54 1    
   106   52  175 1    
   107   53  176 1    
   108   53  177 1    
   109   53  178 1    
   110   54   55 am   BACKBONE|DICT|INTERRES
   111   54  179 1    
   112   55   56 2    
   113   55   57 1    
   114   57   58 1    
   115   57   59 1    
   116   57  180 1    
   117   58  181 1    
   118   58  182 1    
   119   58  183 1    
   120   59   60 am   BACKBONE|DICT|INTERRES
   121   59  184 1    
   122   60   61 2    
   123   60   62 1    
   124   62   63 1    
   125   62   64 1    
   126   62  185 1    
   127   63  186 1    
   128   63  187 1    
   129   63  188 1    
   130   64   65 am   BACKBONE|DICT|INTERRES
   131   64  189 1    
   132   65   66 2    
   133   67   68 2    
   134   67   69 am   BACKBONE|DICT|INTERRES
   135   69   70 1    
   136   69  190 1    
   137   70   71 1    
   138   70   72 1    
   139   70  191 1    
   140   71  192 1    
   141   71  193 1    
   142   71  194 1    
   143   72   73 2    
   144   72   74 am   BACKBONE|DICT|INTERRES
   145   74   75 1    
   146   74  195 1    
   147   75   76 1    
   148   75   77 1    
   149   75  196 1    
   150   76  197 1    
   151   76  198 1    
   152   76  199 1    
   153   77   78 2    
   154   77   79 am   BACKBONE|DICT|INTERRES
   155   79   80 1    
   156   79  200 1    
   157   80   81 1    
   158   80   82 1    
   159   80  201 1    
   160   81  202 1    
   161   81  203 1    
   162   81  204 1    
   163   82   83 2    
   164   82   84 am   BACKBONE|DICT|INTERRES
   165   84   85 1    
   166   84  205 1    
   167   85   86 1    
   168   85   87 1    
   169   85  206 1    
   170   86  207 1    
   171   86  208 1    
   172   86  209 1    
   173   87   88 2    
   174   87   89 am   BACKBONE|DICT|INTERRES
   175   89   90 1    
   176   89  210 1    
   177   90   91 1    
   178   90   92 1    
   179   90  211 1    
   180   91  212 1    
   181   91  213 1    
   182   91  214 1    
   183   92   93 2    
   184   92   94 am   BACKBONE|DICT|INTERRES
   185   94   95 1    
   186   94  215 1    
   187   95   96 1    
   188   95   97 1    
   189   95  216 1    
   190   96  217 1    
   191   96  218 1    
   192   96  219 1    
   193   97   98 2    
   194   97   99 am   BACKBONE|DICT|INTERRES
   195   99  100 1    
   196   99  220 1    
   197  100  101 1    
   198  100  102 1    
   199  100  221 1    
   200  101  222 1    
   201  101  223 1    
   202  101  224 1    
   203  102  103 2    
   204  102  104 am   BACKBONE|DICT|INTERRES
   205  104  105 1    
   206  104  225 1    
   207  105  106 1    
   208  105  107 1    
   209  105  226 1    
   210  106  227 1    
   211  106  228 1    
   212  106  229 1    
   213  107  108 2    
   214  107  109 am   BACKBONE|DICT|INTERRES
   215  109  110 1    
   216  109  230 1    
   217  110  111 1    
   218  110  112 1    
   219  110  231 1    
   220  111  232 1    
   221  111  233 1    
   222  111  234 1    
   223  112  113 2    
   224  112  114 am   BACKBONE|DICT|INTERRES
   225  114  115 1    
   226  114  235 1    
   227  115  116 1    
   228  115  117 1    
   229  115  236 1    
   230  116  237 1    
   231  116  238 1    
   232  116  239 1    
   233  117  118 2    
   234  117  119 am   BACKBONE|DICT|INTERRES
   235  119  120 1    
   236  119  240 1    
   237  120  121 1    
   238  120  124 1    
   239  120  241 1    
   240  121  122 am   BACKBONE|DICT|INTERRES
   241  121  123 2    
   242  122  242 1    
   243  122  243 1    
   244  124  125 1    
   245  124  244 1    
   246  124  245 1    
   247  125  126 1    
   248  126  246 1    
   249  126  247 1    
@<TRIPOS>SUBSTRUCTURE
     1 UNK         1 GROUP             0       ****    0 ROOT    
