@<TRIPOS>MOLECULE
3R540
247   249    1
SMALL
USER_CHARGES


@<TRIPOS>ATOM
      1 CA          0.0339   -9.6810  -50.6688 C.3       0 UNK        -0.1800 
      2 C           0.3436  -10.9862  -49.9491 C.2       0 UNK         0.5000 
      3 O           1.5102  -11.2784  -49.6842 O.2       0 UNK        -0.5000 
      4 N          -0.6936  -11.7740  -49.6426 N.am      1 UNK        -0.5000 
      5 CA         -0.5999  -13.0435  -48.9126 C.3       1 UNK         0.1400 
      6 C6         -1.8692  -13.9203  -49.0934 C.3       23 UNK        -0.0398 
      7 S7         -2.4753  -14.0650  -50.8161 S.3       23 UNK        -0.2404 
      8 C8         -1.0453  -14.7364  -51.7243 C.3       23 UNK        -0.0205 
      9 C9         -0.8353  -16.2148  -51.4427 C.ar      23 UNK        -0.0193 
     10 C10        -1.4603  -17.1767  -52.2393 C.ar      23 UNK        -0.1150 
     11 C11        -1.2689  -18.5389  -51.9925 C.ar      23 UNK        -0.0193 
     12 C12        -0.4590  -18.9382  -50.9243 C.ar      23 UNK        -0.1150 
     13 C13         0.1779  -17.9830  -50.1249 C.ar      23 UNK        -0.0193 
     14 C14        -0.0052  -16.6250  -50.3982 C.ar      23 UNK        -0.1150 
     15 C15         1.0902  -18.4045  -48.9830 C.3       23 UNK        -0.0205 
     16 S16         0.4966  -17.8045  -47.3666 S.3       23 UNK        -0.2404 
     17 C17        -1.0231  -18.7724  -47.0564 C.3       23 UNK        -0.0398 
     18 CA         -0.9247  -20.2947  -47.3268 C.3       11 UNK         0.1400 
     19 N           0.2635  -20.9196  -46.7362 N.am      11 UNK        -0.5000 
     20 C           0.6683  -22.1696  -47.0040 C.2       10 UNK         0.5000 
     21 O           0.1092  -22.9074  -47.8133 O.2       10 UNK        -0.5000 
     22 CA          1.8664  -22.7034  -46.2037 C.3       10 UNK         0.1400 
     23 CB          3.1921  -22.3228  -46.8802 C.3       10 UNK        -0.1800 
     24 N           1.8479  -22.2162  -44.8254 N.am      10 UNK        -0.5000 
     25 C           1.0074  -22.6643  -43.8819 C.2       9 UNK         0.5000 
     26 O           0.1976  -23.5732  -44.0674 O.2       9 UNK        -0.5000 
     27 CA          1.0445  -21.9452  -42.5187 C.3       9 UNK         0.1400 
     28 CB          2.1529  -22.5268  -41.6291 C.3       9 UNK        -0.1800 
     29 N           1.2350  -20.4990  -42.6443 N.am      9 UNK        -0.5000 
     30 C           0.3610  -19.6708  -43.2328 C.2       8 UNK         0.5000 
     31 O          -0.7312  -20.0324  -43.6661 O.2       8 UNK        -0.5000 
     32 CA          0.7872  -18.2035  -43.4175 C.3       8 UNK         0.1400 
     33 CB          0.2482  -17.3555  -42.2623 C.3       8 UNK        -0.1800 
     34 N           2.2328  -17.9888  -43.5595 N.am      8 UNK        -0.5000 
     35 C           3.0091  -18.5743  -44.4863 C.2       7 UNK         0.5000 
     36 O           2.5914  -19.4245  -45.2719 O.2       7 UNK        -0.5000 
     37 CA          4.4945  -18.1725  -44.5663 C.3       7 UNK         0.1400 
     38 CB          4.7721  -17.4151  -45.8743 C.3       7 UNK        -0.1800 
     39 N           4.9690  -17.3639  -43.4436 N.am      7 UNK        -0.5000 
     40 C           5.1659  -17.8039  -42.1942 C.2       6 UNK         0.5000 
     41 O           4.9431  -18.9615  -41.8351 O.2       6 UNK        -0.5000 
     42 CA          5.6819  -16.7770  -41.1617 C.3       6 UNK         0.1400 
     43 CB          6.2202  -15.4698  -41.7879 C.3       6 UNK        -0.1800 
     44 N           4.6795  -16.4655  -40.1372 N.am      6 UNK        -0.5000 
     45 C           3.4298  -16.0237  -40.3399 C.2       5 UNK         0.5000 
     46 O           2.9410  -15.8610  -41.4604 O.2       5 UNK        -0.5000 
     47 CA          2.6082  -15.7429  -39.0617 C.3       5 UNK         0.1400 
     48 CB          3.1945  -14.5635  -38.2573 C.3       5 UNK        -0.1800 
     49 N           1.1709  -15.5543  -39.3038 N.am      5 UNK        -0.5000 
     50 C           0.5587  -14.5569  -39.9603 C.2       4 UNK         0.5000 
     51 O           1.1330  -13.5643  -40.4136 O.2       4 UNK        -0.5000 
     52 CA         -0.9658  -14.7284  -40.1231 C.3       4 UNK         0.1400 
     53 CB         -1.7275  -14.3090  -38.8492 C.3       4 UNK        -0.1800 
     54 N          -1.4888  -14.0727  -41.3277 N.am      4 UNK        -0.5000 
     55 C          -1.6849  -12.7680  -41.5622 C.2       3 UNK         0.5000 
     56 O          -1.5343  -11.8731  -40.7280 O.2       3 UNK        -0.5000 
     57 CA         -2.0997  -12.4160  -43.0050 C.3       3 UNK         0.1400 
     58 CB         -2.6250  -10.9752  -43.1401 C.3       3 UNK        -0.1800 
     59 N          -0.9755  -12.5916  -43.9231 N.am      3 UNK        -0.5000 
     60 C          -0.5481  -13.7581  -44.4193 C.2       2 UNK         0.5000 
     61 O          -1.0968  -14.8387  -44.1926 O.2       2 UNK        -0.5000 
     62 CA          0.6908  -13.6966  -45.3329 C.3       2 UNK         0.1400 
     63 CB          1.6885  -14.8213  -45.0148 C.3       2 UNK        -0.1800 
     64 N           0.3240  -13.7643  -46.7482 N.am      2 UNK        -0.5000 
     65 C          -0.3106  -12.7910  -47.4157 C.2       1 UNK         0.5000 
     66 O          -0.6651  -11.7298  -46.8941 O.2       1 UNK        -0.5000 
     67 C          -2.2150  -21.0148  -46.8842 C.2       11 UNK         0.5000 
     68 O          -3.0781  -21.2819  -47.7193 O.2       11 UNK        -0.5000 
     69 N          -2.3022  -21.3601  -45.5913 N.am      12 UNK        -0.5000 
     70 CA         -3.3752  -22.1626  -45.0058 C.3       12 UNK         0.1400 
     71 CB         -3.2021  -22.2327  -43.4813 C.3       12 UNK        -0.1800 
     72 C          -3.4523  -23.5708  -45.6185 C.2       12 UNK         0.5000 
     73 O          -4.5416  -23.9974  -46.0053 O.2       12 UNK        -0.5000 
     74 N          -2.2920  -24.2359  -45.7419 N.am      13 UNK        -0.5000 
     75 CA         -2.1404  -25.5442  -46.3849 C.3       13 UNK         0.1400 
     76 CB         -0.6992  -26.0455  -46.2139 C.3       13 UNK        -0.1800 
     77 C          -2.5456  -25.5373  -47.8710 C.2       13 UNK         0.5000 
     78 O          -3.1712  -26.4924  -48.3322 O.2       13 UNK        -0.5000 
     79 N          -2.2602  -24.4341  -48.5761 N.am      14 UNK        -0.5000 
     80 CA         -2.7183  -24.1359  -49.9351 C.3       14 UNK         0.1400 
     81 CB         -1.7772  -23.0930  -50.5652 C.3       14 UNK        -0.1800 
     82 C          -4.2005  -23.6953  -49.9803 C.2       14 UNK         0.5000 
     83 O          -4.5280  -22.7090  -50.6408 O.2       14 UNK        -0.5000 
     84 N          -5.0656  -24.4378  -49.2739 N.am      15 UNK        -0.5000 
     85 CA         -6.5234  -24.3087  -49.1880 C.3       15 UNK         0.1400 
     86 CB         -7.1719  -24.9046  -50.4528 C.3       15 UNK        -0.1800 
     87 C          -7.0113  -22.8794  -48.8661 C.2       15 UNK         0.5000 
     88 O          -7.9464  -22.3894  -49.5015 O.2       15 UNK        -0.5000 
     89 N          -6.3553  -22.2446  -47.8828 N.am      16 UNK        -0.5000 
     90 CA         -6.5646  -20.8623  -47.4371 C.3       16 UNK         0.1400 
     91 CB         -7.9475  -20.6983  -46.7724 C.3       16 UNK        -0.1800 
     92 C          -6.2967  -19.8384  -48.5609 C.2       16 UNK         0.5000 
     93 O          -7.1662  -19.0322  -48.8972 O.2       16 UNK        -0.5000 
     94 N          -5.0755  -19.9045  -49.1061 N.am      17 UNK        -0.5000 
     95 CA         -4.5121  -19.0636  -50.1628 C.3       17 UNK         0.1400 
     96 CB         -4.3417  -17.6093  -49.6743 C.3       17 UNK        -0.1800 
     97 C          -5.2735  -19.1708  -51.5005 C.2       17 UNK         0.5000 
     98 O          -5.5232  -18.1561  -52.1546 O.2       17 UNK        -0.5000 
     99 N          -5.6146  -20.4023  -51.9006 N.am      18 UNK        -0.5000 
    100 CA        -6.2015  -20.7058  -53.2026 C.3       18 UNK         0.1400 
    101 CB        -6.8994  -22.0713  -53.1471 C.3       18 UNK        -0.1800 
    102 C         -5.0997  -20.7011  -54.2727 C.2       18 UNK         0.5000 
    103 O         -4.1492  -21.4795  -54.1690 O.2       18 UNK        -0.5000 
    104 N         -5.2418  -19.8322  -55.2815 N.am      19 UNK        -0.5000 
    105 CA        -4.2442  -19.5761  -56.3283 C.3       19 UNK         0.1400 
    106 CB        -4.7515  -18.4390  -57.2283 C.3       19 UNK        -0.1800 
    107 C         -3.8595  -20.8042  -57.1786 C.2       19 UNK         0.5000 
    108 O         -2.7624  -20.8351  -57.7355 O.2       19 UNK        -0.5000 
    109 N         -4.7630  -21.7885  -57.2623 N.am      20 UNK        -0.5000 
    110 CA        -4.5406  -23.0632  -57.9419 C.3       20 UNK         0.1400 
    111 CB        -5.9027  -23.6314  -58.3714 C.3       20 UNK        -0.1800 
    112 C         -3.7833  -24.0901  -57.0755 C.2       20 UNK         0.5000 
    113 O         -3.2441  -25.0490  -57.6301 O.2       20 UNK        -0.5000 
    114 N         -3.7796  -23.9081  -55.7466 N.am      21 UNK        -0.5000 
    115 CA        -3.1719  -24.8384  -54.7958 C.3       21 UNK         0.1400 
    116 CB        -3.9704  -24.8286  -53.4845 C.3       21 UNK        -0.1800 
    117 C         -1.6921  -24.5137  -54.5395 C.2       21 UNK         0.5000 
    118 O         -0.8789  -25.4371  -54.4761 O.2       21 UNK        -0.5000 
    119 N         -1.3634  -23.2225  -54.3998 N.am      22 UNK        -0.5000 
    120 CA         0.0220  -22.7373  -54.2864 C.3       22 UNK         0.1400 
    121 C          0.7918  -22.7486  -55.6402 C.2       22 UNK         0.5000 
    122 N          2.1165  -22.6786  -55.6039 N.am      22 UNK        -0.7600 
    123 O          0.2130  -22.8113  -56.7227 O.2       22 UNK        -0.5000 
    124 C124        0.1156  -21.3692  -53.5588 C.3       23 UNK        -0.0398 
    125 S125       -0.9101  -20.0485  -54.2921 S.3       23 UNK        -0.2404 
    126 C126       -1.9528  -19.5647  -52.8816 C.3       23 UNK        -0.0205 
    127 H127       -1.0360   -9.5539  -50.8354 H         1 UNK         0.0600 
    128 H128        0.5337   -9.6586  -51.6371 H         1 UNK         0.0600 
    129 H129        0.3890   -8.8349  -50.0805 H         1 UNK         0.0600 
    130 H130       -1.6300  -11.4760  -49.8744 H         1 UNK         0.3000 
    131 H131        0.2544  -13.5907  -49.3136 H         1 UNK         0.0600 
    132 H132       -2.6939  -13.5127  -48.5057 H         1 UNK         0.0800 
    133 H133       -1.6968  -14.9252  -48.7044 H         1 UNK         0.0800 
    134 H134       -0.1431  -14.1675  -51.4998 H         1 UNK         0.0800 
    135 H135       -1.2216  -14.5935  -52.7914 H         1 UNK         0.0800 
    136 H136       -2.0960  -16.8638  -53.0558 H         1 UNK         0.1150 
    137 H137       -0.3131  -19.9899  -50.7255 H         1 UNK         0.1150 
    138 H138        0.4972  -15.8894  -49.7880 H         1 UNK         0.1150 
    139 H139        1.2312  -19.4851  -48.9602 H         1 UNK         0.0800 
    140 H140        2.0803  -17.9824  -49.1593 H         1 UNK         0.0800 
    141 H141       -1.8160  -18.3411  -47.6684 H         1 UNK         0.0800 
    142 H142       -1.3120  -18.5871  -46.0207 H         1 UNK         0.0800 
    143 H143       -0.8555  -20.4342  -48.4062 H         1 UNK         0.0600 
    144 H144        0.8123  -20.3553  -46.0979 H         1 UNK         0.3000 
    145 H145        1.8017  -23.7931  -46.1847 H         1 UNK         0.0600 
    146 H146        4.0459  -22.6938  -46.3132 H         1 UNK         0.0600 
    147 H147        3.2527  -22.7551  -47.8797 H         1 UNK         0.0600 
    148 H148        3.3027  -21.2438  -46.9874 H         1 UNK         0.0600 
    149 H149        2.4080  -21.3940  -44.6352 H         1 UNK         0.3000 
    150 H150        0.0849  -22.1175  -42.0268 H         1 UNK         0.0600 
    151 H151        2.0297  -23.6036  -41.5057 H         1 UNK         0.0600 
    152 H152        2.1335  -22.0821  -40.6340 H         1 UNK         0.0600 
    153 H153        3.1428  -22.3552  -42.0541 H         1 UNK         0.0600 
    154 H154        2.1162  -20.1209  -42.3267 H         1 UNK         0.3000 
    155 H155        0.3192  -17.8481  -44.3361 H         1 UNK         0.0600 
    156 H156        0.6969  -17.6439  -41.3115 H         1 UNK         0.0600 
    157 H157       -0.8329  -17.4648  -42.1680 H         1 UNK         0.0600 
    158 H158        0.4528  -16.2988  -42.4295 H         1 UNK         0.0600 
    159 H159        2.6461  -17.2962  -42.9435 H         1 UNK         0.3000 
    160 H160        5.0723  -19.0989  -44.5834 H         1 UNK         0.0600 
    161 H161        4.2368  -16.4664  -45.9112 H         1 UNK         0.0600 
    162 H162        4.4596  -17.9999  -46.7409 H         1 UNK         0.0600 
    163 H163        5.8356  -17.2067  -45.9923 H         1 UNK         0.0600 
    164 H164        5.1412  -16.3877  -43.6352 H         1 UNK         0.3000 
    165 H165        6.5138  -17.2598  -40.6469 H         1 UNK         0.0600 
    166 H166        5.4371  -14.8931  -42.2814 H         1 UNK         0.0600 
    167 H167        6.6631  -14.8300  -41.0244 H         1 UNK         0.0600 
    168 H168        7.0004  -15.6750  -42.5222 H         1 UNK         0.0600 
    169 H169        4.9828  -16.6132  -39.1849 H         1 UNK         0.3000 
    170 H170        2.6828  -16.6373  -38.4414 H         1 UNK         0.0600 
    171 H171        3.2501  -13.6514  -38.8520 H         1 UNK         0.0600 
    172 H172        2.5933  -14.3512  -37.3732 H         1 UNK         0.0600 
    173 H173        4.2051  -14.7844  -37.9128 H         1 UNK         0.0600 
    174 H174        0.5945  -16.3186  -38.9816 H         1 UNK         0.3000 
    175 H175       -1.1589  -15.7908  -40.2761 H         1 UNK         0.0600 
    176 H176       -1.4577  -14.9490  -38.0085 H         1 UNK         0.0600 
    177 H177       -2.8057  -14.3916  -38.9862 H         1 UNK         0.0600 
    178 H178       -1.5015  -13.2841  -38.5545 H         1 UNK         0.0600 
    179 H179       -1.5730  -14.6793  -42.1363 H         1 UNK         0.3000 
    180 H180       -2.9081  -13.0908  -43.2949 H         1 UNK         0.0600 
    181 H181       -2.9648  -10.7749  -44.1565 H         1 UNK         0.0600 
    182 H182       -1.8590  -10.2392  -42.8928 H         1 UNK         0.0600 
    183 H183       -3.4728  -10.8050  -42.4752 H         1 UNK         0.0600 
    184 H184       -0.4821  -11.7494  -44.1827 H         1 UNK         0.3000 
    185 H185        1.2036  -12.7484  -45.1567 H         1 UNK         0.0600 
    186 H186        2.6068  -14.7040  -45.5893 H         1 UNK         0.0600 
    187 H187        1.9623  -14.8160  -43.9587 H         1 UNK         0.0600 
    188 H188        1.2741  -15.8026  -45.2418 H         1 UNK         0.0600 
    189 H189        0.5557  -14.6249  -47.2224 H         1 UNK         0.3000 
    190 H190       -1.5806  -21.0399  -44.9490 H         1 UNK         0.3000 
    191 H191       -4.3193  -21.6570  -45.2104 H         1 UNK         0.0600 
    192 H192       -3.9993  -22.8199  -43.0239 H         1 UNK         0.0600 
    193 H193       -3.2346  -21.2382  -43.0361 H         1 UNK         0.0600 
    194 H194       -2.2536  -22.6915  -43.2017 H         1 UNK         0.0600 
    195 H195       -1.4486  -23.8199  -45.3626 H         1 UNK         0.3000 
    196 H196       -2.8036  -26.2402  -45.8673 H         1 UNK         0.0600 
    197 H197        0.0171  -25.3888  -46.7065 H         1 UNK         0.0600 
    198 H198       -0.4258  -26.1110  -45.1606 H         1 UNK         0.0600 
    199 H199       -0.5794  -27.0409  -46.6433 H         1 UNK         0.0600 
    200 H200       -1.7018  -23.7133  -48.1305 H         1 UNK         0.3000 
    201 H201       -2.6416  -25.0478  -50.5298 H         1 UNK         0.0600 
    202 H202       -2.0521  -22.8944  -51.6012 H         1 UNK         0.0600 
    203 H203       -1.8126  -22.1447  -50.0288 H         1 UNK         0.0600 
    204 H204       -0.7441  -23.4405  -50.5649 H         1 UNK         0.0600 
    205 H205       -4.6695  -25.2174  -48.7602 H         1 UNK         0.3000 
    206 H206       -6.8328  -24.9242  -48.3421 H         1 UNK         0.0600 
    207 H207       -6.8769  -25.9445  -50.5921 H         1 UNK         0.0600 
    208 H208       -8.2604  -24.8838  -50.3878 H         1 UNK         0.0600 
    209 H209       -6.8838  -24.3562  -51.3474 H         1 UNK         0.0600 
    210 H210       -5.5963  -22.7445  -47.4331 H         1 UNK         0.3000 
    211 H211       -5.8151  -20.6683  -46.6702 H         1 UNK         0.0600 
    212 H212       -8.0809  -21.4130  -45.9604 H         1 UNK         0.0600 
    213 H213       -8.7629  -20.8408  -47.4820 H         1 UNK         0.0600 
    214 H214       -8.0576  -19.7000  -46.3475 H         1 UNK         0.0600 
    215 H215       -4.4392  -20.6114  -48.7412 H         1 UNK         0.3000 
    216 H216       -3.5147  -19.4623  -50.3481 H         1 UNK         0.0600 
    217 H217       -3.7865  -17.0161  -50.4016 H         1 UNK         0.0600 
    218 H218       -3.7901  -17.5666  -48.7362 H         1 UNK         0.0600 
    219 H219       -5.3028  -17.1185  -49.5196 H         1 UNK         0.0600 
    220 H220       -5.3128  -21.2033  -51.3471 H         1 UNK         0.3000 
    221 H221       -6.9526  -19.9501  -53.4420 H         1 UNK         0.0600 
    222 H222       -7.6598  -22.0945  -52.3662 H         1 UNK         0.0600 
    223 H223       -6.1891  -22.8726  -52.9476 H         1 UNK         0.0600 
    224 H224       -7.3924  -22.2979  -54.0930 H         1 UNK         0.0600 
    225 H225       -6.0531  -19.2308  -55.2893 H         1 UNK         0.3000 
    226 H226       -3.3347  -19.2322  -55.8336 H         1 UNK         0.0600 
    227 H227       -4.9251  -17.5284  -56.6546 H         1 UNK         0.0600 
    228 H228       -4.0224  -18.1979  -58.0031 H         1 UNK         0.0600 
    229 H229       -5.6839  -18.7070  -57.7267 H         1 UNK         0.0600 
    230 H230       -5.6439  -21.6726  -56.7838 H         1 UNK         0.3000 
    231 H231       -3.9472  -22.8902  -58.8423 H         1 UNK         0.0600 
    232 H232       -6.5459  -23.8281  -57.5127 H         1 UNK         0.0600 
    233 H233       -5.7817  -24.5707  -58.9127 H         1 UNK         0.0600 
    234 H234       -6.4267  -22.9421  -59.0337 H         1 UNK         0.0600 
    235 H235       -4.1649  -23.0548  -55.3563 H         1 UNK         0.3000 
    236 H236       -3.2250  -25.8522  -55.1990 H         1 UNK         0.0600 
    237 H237       -5.0161  -25.0846  -53.6549 H         1 UNK         0.0600 
    238 H238       -3.5684  -25.5556  -52.7785 H         1 UNK         0.0600 
    239 H239       -3.9386  -23.8511  -53.0056 H         1 UNK         0.0600 
    240 H240       -2.0827  -22.5152  -54.4858 H         1 UNK         0.3000 
    241 H241        0.5494  -23.4507  -53.6496 H         1 UNK         0.0600 
    242 H242        2.6252  -22.6346  -54.7346 H         1 UNK         0.3800 
    243 H243        2.6275  -22.6807  -56.4732 H         1 UNK         0.3800 
    244 H244        1.1474  -21.0170  -53.5214 H         1 UNK         0.0800 
    245 H245       -0.1707  -21.5113  -52.5178 H         1 UNK         0.0800 
    246 H246       -2.2553  -20.4428  -52.3092 H         1 UNK         0.0800 
    247 H247       -2.8711  -19.1323  -53.2777 H         1 UNK         0.0800 
@<TRIPOS>BOND
     1    1    2 1    
     2    1  127 1    
     3    1  128 1    
     4    1  129 1    
     5    2    3 2    
     6    2    4 am   BACKBONE|DICT|INTERRES
     7    4    5 1    
     8    4  130 1    
     9    5    6 1    
    10    5   65 1    
    11    5  131 1    
    12    6    7 1    
    13    6  132 1    
    14    6  133 1    
    15    7    8 1    
    16    8    9 1    
    17    8  134 1    
    18    8  135 1    
    19    9   10 ar   
    20    9   14 ar   
    21   10   11 ar   
    22   10  136 1    
    23   11   12 ar   
    24   11  126 1    
    25   12   13 ar   
    26   12  137 1    
    27   13   14 ar   
    28   13   15 1    
    29   14  138 1    
    30   15   16 1    
    31   15  139 1    
    32   15  140 1    
    33   16   17 1    
    34   17   18 1    
    35   17  141 1    
    36   17  142 1    
    37   18   19 1    
    38   18   67 1    
    39   18  143 1    
    40   19   20 am   BACKBONE|DICT|INTERRES
    41   19  144 1    
    42   20   21 2    
    43   20   22 1    
    44   22   23 1    
    45   22   24 1    
    46   22  145 1    
    47   23  146 1    
    48   23  147 1    
    49   23  148 1    
    50   24   25 am   BACKBONE|DICT|INTERRES
    51   24  149 1    
    52   25   26 2    
    53   25   27 1    
    54   27   28 1    
    55   27   29 1    
    56   27  150 1    
    57   28  151 1    
    58   28  152 1    
    59   28  153 1    
    60   29   30 am   BACKBONE|DICT|INTERRES
    61   29  154 1    
    62   30   31 2    
    63   30   32 1    
    64   32   33 1    
    65   32   34 1    
    66   32  155 1    
    67   33  156 1    
    68   33  157 1    
    69   33  158 1    
    70   34   35 am   BACKBONE|DICT|INTERRES
    71   34  159 1    
    72   35   36 2    
    73   35   37 1    
    74   37   38 1    
    75   37   39 1    
    76   37  160 1    
    77   38  161 1    
    78   38  162 1    
    79   38  163 1    
    80   39   40 am   BACKBONE|DICT|INTERRES
    81   39  164 1    
    82   40   41 2    
    83   40   42 1    
    84   42   43 1    
    85   42   44 1    
    86   42  165 1    
    87   43  166 1    
    88   43  167 1    
    89   43  168 1    
    90   44   45 am   BACKBONE|DICT|INTERRES
    91   44  169 1    
    92   45   46 2    
    93   45   47 1    
    94   47   48 1    
    95   47   49 1    
    96   47  170 1    
    97   48  171 1    
    98   48  172 1    
    99   48  173 1    
   100   49   50 am   BACKBONE|DICT|INTERRES
   101   49  174 1    
   102   50   51 2    
   103   50   52 1    
   104   52   53 1    
   105   52   54 1    
   106   52  175 1    
   107   53  176 1    
   108   53  177 1    
   109   53  178 1    
   110   54   55 am   BACKBONE|DICT|INTERRES
   111   54  179 1    
   112   55   56 2    
   113   55   57 1    
   114   57   58 1    
   115   57   59 1    
   116   57  180 1    
   117   58  181 1    
   118   58  182 1    
   119   58  183 1    
   120   59   60 am   BACKBONE|DICT|INTERRES
   121   59  184 1    
   122   60   61 2    
   123   60   62 1    
   124   62   63 1    
   125   62   64 1    
   126   62  185 1    
   127   63  186 1    
   128   63  187 1    
   129   63  188 1    
   130   64   65 am   BACKBONE|DICT|INTERRES
   131   64  189 1    
   132   65   66 2    
   133   67   68 2    
   134   67   69 am   BACKBONE|DICT|INTERRES
   135   69   70 1    
   136   69  190 1    
   137   70   71 1    
   138   70   72 1    
   139   70  191 1    
   140   71  192 1    
   141   71  193 1    
   142   71  194 1    
   143   72   73 2    
   144   72   74 am   BACKBONE|DICT|INTERRES
   145   74   75 1    
   146   74  195 1    
   147   75   76 1    
   148   75   77 1    
   149   75  196 1    
   150   76  197 1    
   151   76  198 1    
   152   76  199 1    
   153   77   78 2    
   154   77   79 am   BACKBONE|DICT|INTERRES
   155   79   80 1    
   156   79  200 1    
   157   80   81 1    
   158   80   82 1    
   159   80  201 1    
   160   81  202 1    
   161   81  203 1    
   162   81  204 1    
   163   82   83 2    
   164   82   84 am   BACKBONE|DICT|INTERRES
   165   84   85 1    
   166   84  205 1    
   167   85   86 1    
   168   85   87 1    
   169   85  206 1    
   170   86  207 1    
   171   86  208 1    
   172   86  209 1    
   173   87   88 2    
   174   87   89 am   BACKBONE|DICT|INTERRES
   175   89   90 1    
   176   89  210 1    
   177   90   91 1    
   178   90   92 1    
   179   90  211 1    
   180   91  212 1    
   181   91  213 1    
   182   91  214 1    
   183   92   93 2    
   184   92   94 am   BACKBONE|DICT|INTERRES
   185   94   95 1    
   186   94  215 1    
   187   95   96 1    
   188   95   97 1    
   189   95  216 1    
   190   96  217 1    
   191   96  218 1    
   192   96  219 1    
   193   97   98 2    
   194   97   99 am   BACKBONE|DICT|INTERRES
   195   99  100 1    
   196   99  220 1    
   197  100  101 1    
   198  100  102 1    
   199  100  221 1    
   200  101  222 1    
   201  101  223 1    
   202  101  224 1    
   203  102  103 2    
   204  102  104 am   BACKBONE|DICT|INTERRES
   205  104  105 1    
   206  104  225 1    
   207  105  106 1    
   208  105  107 1    
   209  105  226 1    
   210  106  227 1    
   211  106  228 1    
   212  106  229 1    
   213  107  108 2    
   214  107  109 am   BACKBONE|DICT|INTERRES
   215  109  110 1    
   216  109  230 1    
   217  110  111 1    
   218  110  112 1    
   219  110  231 1    
   220  111  232 1    
   221  111  233 1    
   222  111  234 1    
   223  112  113 2    
   224  112  114 am   BACKBONE|DICT|INTERRES
   225  114  115 1    
   226  114  235 1    
   227  115  116 1    
   228  115  117 1    
   229  115  236 1    
   230  116  237 1    
   231  116  238 1    
   232  116  239 1    
   233  117  118 2    
   234  117  119 am   BACKBONE|DICT|INTERRES
   235  119  120 1    
   236  119  240 1    
   237  120  121 1    
   238  120  124 1    
   239  120  241 1    
   240  121  122 am   BACKBONE|DICT|INTERRES
   241  121  123 2    
   242  122  242 1    
   243  122  243 1    
   244  124  125 1    
   245  124  244 1    
   246  124  245 1    
   247  125  126 1    
   248  126  246 1    
   249  126  247 1    
@<TRIPOS>SUBSTRUCTURE
     1 UNK         1 GROUP             0       ****    0 ROOT    
