@<TRIPOS>MOLECULE
3R540
247   249    1
SMALL
USER_CHARGES


@<TRIPOS>ATOM
      1 CA         -0.4574  -10.7752  -49.9009 C.3       0 UNK        -0.1800 
      2 C          -0.5576  -12.0273  -49.0412 C.2       0 UNK         0.5000 
      3 O          -1.5989  -12.2669  -48.4319 O.2       0 UNK        -0.5000 
      4 N           0.5211  -12.8229  -48.9943 N.am      1 UNK        -0.5000 
      5 CA          0.6460  -14.0673  -48.2186 C.3       1 UNK         0.1400 
      6 C6         -0.4303  -15.1249  -48.6022 C.3       23 UNK        -0.0398 
      7 S7          0.1944  -16.8363  -48.6339 S.3       23 UNK        -0.2404 
      8 C8          1.0288  -16.8666  -50.2545 C.3       23 UNK        -0.0205 
      9 C9          1.5804  -18.2386  -50.6287 C.ar      23 UNK        -0.0193 
     10 C10         1.4113  -18.7177  -51.9302 C.ar      23 UNK        -0.1150 
     11 C11         1.9326  -19.9572  -52.3082 C.ar      23 UNK        -0.0193 
     12 C12         2.6370  -20.7198  -51.3739 C.ar      23 UNK        -0.1150 
     13 C13         2.8332  -20.2525  -50.0669 C.ar      23 UNK        -0.0193 
     14 C14         2.3014  -19.0091  -49.7090 C.ar      23 UNK        -0.1150 
     15 C15         3.6455  -21.0187  -49.0197 C.3       23 UNK        -0.0205 
     16 S16         4.1526  -22.7132  -49.4757 S.3       23 UNK        -0.2404 
     17 C17         2.6540  -23.6605  -49.0409 C.3       23 UNK        -0.0398 
     18 CA          2.8701  -24.5146  -47.7656 C.3       11 UNK         0.1400 
     19 N           3.1827  -23.6770  -46.6028 N.am      11 UNK        -0.5000 
     20 C           4.2243  -23.8429  -45.7778 C.2       10 UNK         0.5000 
     21 O           5.0817  -24.7151  -45.9199 O.2       10 UNK        -0.5000 
     22 CA          4.3134  -22.8866  -44.5710 C.3       10 UNK         0.1400 
     23 CB          5.2996  -21.7459  -44.8639 C.3       10 UNK        -0.1800 
     24 N           3.0175  -22.3191  -44.1866 N.am      10 UNK        -0.5000 
     25 C           2.0043  -23.0244  -43.6607 C.2       9 UNK         0.5000 
     26 O           2.0708  -24.2288  -43.4164 O.2       9 UNK        -0.5000 
     27 CA          0.6736  -22.2856  -43.4237 C.3       9 UNK         0.1400 
     28 CB          0.5900  -21.7770  -41.9774 C.3       9 UNK        -0.1800 
     29 N           0.4492  -21.1640  -44.3342 N.am      9 UNK        -0.5000 
     30 C           0.3650  -21.2422  -45.6697 C.2       8 UNK         0.5000 
     31 O           0.5070  -22.2860  -46.3102 O.2       8 UNK        -0.5000 
     32 CA          0.1472  -19.9111  -46.4085 C.3       8 UNK         0.1400 
     33 CB         -1.3528  -19.5987  -46.5088 C.3       8 UNK        -0.1800 
     34 N           0.8334  -18.7884  -45.7621 N.am      8 UNK        -0.5000 
     35 C           2.1653  -18.6748  -45.6410 C.2       7 UNK         0.5000 
     36 O           2.9550  -19.5353  -46.0260 O.2       7 UNK        -0.5000 
     37 CA          2.7233  -17.4070  -44.9704 C.3       7 UNK         0.1400 
     38 CB          3.2588  -16.4339  -46.0308 C.3       7 UNK        -0.1800 
     39 N           1.7401  -16.7343  -44.1181 N.am      7 UNK        -0.5000 
     40 C           1.4129  -17.1734  -42.8931 C.2       6 UNK         0.5000 
     41 O           1.9321  -18.1615  -42.3716 O.2       6 UNK        -0.5000 
     42 CA          0.3201  -16.4155  -42.1117 C.3       6 UNK         0.1400 
     43 CB          0.9557  -15.4509  -41.0990 C.3       6 UNK        -0.1800 
     44 N          -0.6596  -15.6930  -42.9287 N.am      6 UNK        -0.5000 
     45 C          -1.4593  -16.2603  -43.8449 C.2       5 UNK         0.5000 
     46 O          -1.3856  -17.4503  -44.1507 O.2       5 UNK        -0.5000 
     47 CA         -2.5116  -15.3571  -44.5260 C.3       5 UNK         0.1400 
     48 CB         -3.6646  -16.1614  -45.1616 C.3       5 UNK        -0.1800 
     49 N          -3.0226  -14.3008  -43.6471 N.am      5 UNK        -0.5000 
     50 C          -3.7003  -14.4527  -42.4972 C.2       4 UNK         0.5000 
     51 O          -4.0567  -15.5451  -42.0528 O.2       4 UNK        -0.5000 
     52 CA         -4.0311  -13.1620  -41.7092 C.3       4 UNK         0.1400 
     53 CB         -4.1442  -13.4090  -40.1898 C.3       4 UNK        -0.1800 
     54 N          -3.1136  -12.0461  -41.9818 N.am      4 UNK        -0.5000 
     55 C          -1.7869  -12.0365  -41.7917 C.2       3 UNK         0.5000 
     56 O          -1.1473  -12.9785  -41.3214 O.2       3 UNK        -0.5000 
     57 CA         -1.0379  -10.7762  -42.2578 C.3       3 UNK         0.1400 
     58 CB         -0.5450   -9.9602  -41.0532 C.3       3 UNK        -0.1800 
     59 N           0.1029  -11.1159  -43.1106 N.am      3 UNK        -0.5000 
     60 C           0.0257  -11.7839  -44.2699 C.2       2 UNK         0.5000 
     61 O          -1.0422  -12.1448  -44.7722 O.2       2 UNK        -0.5000 
     62 CA          1.3715  -12.0571  -44.9746 C.3       2 UNK         0.1400 
     63 CB          2.3041  -12.9377  -44.1158 C.3       2 UNK        -0.1800 
     64 N           1.2199  -12.6048  -46.3279 N.am      2 UNK        -0.5000 
     65 C           0.7656  -13.8142  -46.6941 C.2       1 UNK         0.5000 
     66 O           0.4848  -14.7101  -45.8967 O.2       1 UNK        -0.5000 
     67 C           1.6490  -25.4168  -47.4771 C.2       11 UNK         0.5000 
     68 O           1.1677  -26.0882  -48.3904 O.2       11 UNK        -0.5000 
     69 N           1.1651  -25.4129  -46.2231 N.am      12 UNK        -0.5000 
     70 CA         -0.0151  -26.1154  -45.7084 C.3       12 UNK         0.1400 
     71 CB          0.2036  -27.6425  -45.7366 C.3       12 UNK        -0.1800 
     72 C          -1.3409  -25.6872  -46.3775 C.2       12 UNK         0.5000 
     73 O          -2.2994  -26.4622  -46.3851 O.2       12 UNK        -0.5000 
     74 N          -1.3850  -24.4624  -46.9177 N.am      13 UNK        -0.5000 
     75 CA         -2.5754  -23.8644  -47.5124 C.3       13 UNK         0.1400 
     76 CB         -2.1483  -22.8471  -48.5830 C.3       13 UNK        -0.1800 
     77 C          -3.4496  -23.2263  -46.4179 C.2       13 UNK         0.5000 
     78 O          -2.9232  -22.5995  -45.4963 O.2       13 UNK        -0.5000 
     79 N          -4.7706  -23.4085  -46.5347 N.am      14 UNK        -0.5000 
     80 CA         -5.7646  -22.9686  -45.5487 C.3       14 UNK         0.1400 
     81 CB         -7.0111  -23.8574  -45.6879 C.3       14 UNK        -0.1800 
     82 C          -6.1524  -21.4809  -45.6711 C.2       14 UNK         0.5000 
     83 O          -6.8123  -20.9519  -44.7756 O.2       14 UNK        -0.5000 
     84 N          -5.7582  -20.8400  -46.7737 N.am      15 UNK        -0.5000 
     85 CA         -5.9978  -19.4388  -47.0944 C.3       15 UNK         0.1400 
     86 CB         -7.3375  -19.3075  -47.8410 C.3       15 UNK        -0.1800 
     87 C          -4.8320  -18.9468  -47.9597 C.2       15 UNK         0.5000 
     88 O          -4.0431  -19.7685  -48.4355 O.2       15 UNK        -0.5000 
     89 N          -4.7561  -17.6265  -48.1736 N.am      16 UNK        -0.5000 
     90 CA         -3.7441  -16.9542  -48.9933 C.3       16 UNK         0.1400 
     91 CB         -4.0445  -15.4473  -49.0335 C.3       16 UNK        -0.1800 
     92 C          -3.6739  -17.5422  -50.4143 C.2       16 UNK         0.5000 
     93 O          -4.6522  -17.4415  -51.1568 O.2       16 UNK        -0.5000 
     94 N          -2.5559  -18.2184  -50.7190 N.am      17 UNK        -0.5000 
     95 CA         -2.2849  -18.9791  -51.9474 C.3       17 UNK         0.1400 
     96 CB         -2.1903  -18.0223  -53.1548 C.3       17 UNK        -0.1800 
     97 C          -3.2700  -20.1439  -52.2086 C.2       17 UNK         0.5000 
     98 O          -3.3798  -20.6057  -53.3472 O.2       17 UNK        -0.5000 
     99 N          -3.9943  -20.5812  -51.1638 N.am      18 UNK        -0.5000 
    100 CA        -5.1641  -21.4677  -51.2086 C.3       18 UNK         0.1400 
    101 CB        -4.7380  -22.9186  -51.5053 C.3       18 UNK        -0.1800 
    102 C         -6.2448  -20.9337  -52.1759 C.2       18 UNK         0.5000 
    103 O         -6.7998  -21.6919  -52.9720 O.2       18 UNK        -0.5000 
    104 N         -6.4454  -19.6071  -52.1419 N.am      19 UNK        -0.5000 
    105 CA        -7.1340  -18.7588  -53.1185 C.3       19 UNK         0.1400 
    106 CB        -8.5907  -19.1943  -53.3744 C.3       19 UNK        -0.1800 
    107 C         -6.3190  -18.6196  -54.4183 C.2       19 UNK         0.5000 
    108 O         -5.9276  -17.5052  -54.7661 O.2       19 UNK        -0.5000 
    109 N         -6.0480  -19.7491  -55.0822 N.am      20 UNK        -0.5000 
    110 CA        -5.2013  -19.8809  -56.2663 C.3       20 UNK         0.1400 
    111 CB        -5.8166  -19.1429  -57.4778 C.3       20 UNK        -0.1800 
    112 C         -4.9723  -21.3771  -56.5451 C.2       20 UNK         0.5000 
    113 O         -5.2974  -21.8552  -57.6343 O.2       20 UNK        -0.5000 
    114 N         -4.4647  -22.1089  -55.5445 N.am      21 UNK        -0.5000 
    115 CA        -4.3046  -23.5669  -55.6032 C.3       21 UNK         0.1400 
    116 CB        -5.5858  -24.2496  -55.0869 C.3       21 UNK        -0.1800 
    117 C         -3.0387  -24.0831  -54.8928 C.2       21 UNK         0.5000 
    118 O         -2.8903  -25.2971  -54.7449 O.2       21 UNK        -0.5000 
    119 N         -2.1401  -23.1823  -54.4738 N.am      22 UNK        -0.5000 
    120 CA        -0.8567  -23.5186  -53.8291 C.3       22 UNK         0.1400 
    121 C          0.2116  -24.1799  -54.7531 C.2       22 UNK         0.5000 
    122 N          0.0451  -24.1854  -56.0703 N.am      22 UNK        -0.7600 
    123 O          1.2060  -24.7068  -54.2620 O.2       22 UNK        -0.5000 
    124 C124       -0.2727  -22.3091  -53.0576 C.3       23 UNK        -0.0398 
    125 S125        0.0315  -20.8535  -54.1224 S.3       23 UNK        -0.2404 
    126 C126        1.7632  -20.4571  -53.7362 C.3       23 UNK        -0.0205 
    127 H127       -0.6133   -9.8869  -49.2888 H         1 UNK         0.0600 
    128 H128       -1.2208  -10.7928  -50.6787 H         1 UNK         0.0600 
    129 H129        0.5169  -10.6897  -50.3827 H         1 UNK         0.0600 
    130 H130        1.3395  -12.5660  -49.5296 H         1 UNK         0.3000 
    131 H131        1.6206  -14.4615  -48.5080 H         1 UNK         0.0600 
    132 H132       -0.8343  -14.9155  -49.5933 H         1 UNK         0.0800 
    133 H133       -1.2857  -15.0731  -47.9267 H         1 UNK         0.0800 
    134 H134        0.3238  -16.5256  -51.0143 H         1 UNK         0.0800 
    135 H135        1.8532  -16.1531  -50.2505 H         1 UNK         0.0800 
    136 H136        0.8770  -18.1249  -52.6593 H         1 UNK         0.1150 
    137 H137        3.0467  -21.6685  -51.6862 H         1 UNK         0.1150 
    138 H138        2.4612  -18.6329  -48.7082 H         1 UNK         0.1150 
    139 H139        4.5463  -20.4440  -48.8010 H         1 UNK         0.0800 
    140 H140        3.0803  -21.0651  -48.0889 H         1 UNK         0.0800 
    141 H141        1.8047  -22.9854  -48.9189 H         1 UNK         0.0800 
    142 H142        2.4158  -24.2963  -49.8953 H         1 UNK         0.0800 
    143 H143        3.6993  -25.1964  -47.9647 H         1 UNK         0.0600 
    144 H144        2.5089  -22.9476  -46.3999 H         1 UNK         0.3000 
    145 H145        4.6951  -23.4585  -43.7226 H         1 UNK         0.0600 
    146 H146        5.3711  -21.0554  -44.0234 H         1 UNK         0.0600 
    147 H147        5.0052  -21.1757  -45.7455 H         1 UNK         0.0600 
    148 H148        6.3006  -22.1368  -45.0503 H         1 UNK         0.0600 
    149 H149        2.8705  -21.3421  -44.4029 H         1 UNK         0.3000 
    150 H150       -0.1332  -23.0038  -43.5847 H         1 UNK         0.0600 
    151 H151        1.3531  -21.0250  -41.7714 H         1 UNK         0.0600 
    152 H152       -0.3836  -21.3318  -41.7714 H         1 UNK         0.0600 
    153 H153        0.7306  -22.5924  -41.2665 H         1 UNK         0.0600 
    154 H154        0.3442  -20.2530  -43.9109 H         1 UNK         0.3000 
    155 H155        0.5478  -20.0136  -47.4189 H         1 UNK         0.0600 
    156 H156       -1.8685  -20.3453  -47.1072 H         1 UNK         0.0600 
    157 H157       -1.5342  -18.6306  -46.9731 H         1 UNK         0.0600 
    158 H158       -1.8332  -19.5963  -45.5303 H         1 UNK         0.0600 
    159 H159        0.2409  -18.0632  -45.3737 H         1 UNK         0.3000 
    160 H160        3.5686  -17.7098  -44.3486 H         1 UNK         0.0600 
    161 H161        2.5045  -16.2018  -46.7806 H         1 UNK         0.0600 
    162 H162        4.1092  -16.8686  -46.5575 H         1 UNK         0.0600 
    163 H163        3.5949  -15.4989  -45.5832 H         1 UNK         0.0600 
    164 H164        1.2404  -15.9487  -44.5260 H         1 UNK         0.3000 
    165 H165       -0.2341  -17.1686  -41.5480 H         1 UNK         0.0600 
    166 H166        0.2115  -15.0742  -40.3975 H         1 UNK         0.0600 
    167 H167        1.7264  -15.9484  -40.5087 H         1 UNK         0.0600 
    168 H168        1.4184  -14.5948  -41.5897 H         1 UNK         0.0600 
    169 H169       -0.7981  -14.7157  -42.7031 H         1 UNK         0.3000 
    170 H170       -1.9988  -14.8424  -45.3374 H         1 UNK         0.0600 
    171 H171       -3.2822  -16.8403  -45.9236 H         1 UNK         0.0600 
    172 H172       -4.1940  -16.7671  -44.4259 H         1 UNK         0.0600 
    173 H173       -4.3892  -15.5043  -45.6416 H         1 UNK         0.0600 
    174 H174       -2.7384  -13.3639  -43.9083 H         1 UNK         0.3000 
    175 H175       -5.0119  -12.8413  -42.0629 H         1 UNK         0.0600 
    176 H176       -3.2178  -13.8067  -39.7742 H         1 UNK         0.0600 
    177 H177       -4.3831  -12.4887  -39.6571 H         1 UNK         0.0600 
    178 H178       -4.9357  -14.1252  -39.9662 H         1 UNK         0.0600 
    179 H179       -3.5420  -11.2303  -42.3977 H         1 UNK         0.3000 
    180 H180       -1.7166  -10.1521  -42.8429 H         1 UNK         0.0600 
    181 H181        0.1628  -10.5265  -40.4462 H         1 UNK         0.0600 
    182 H182       -1.3773   -9.6767  -40.4076 H         1 UNK         0.0600 
    183 H183       -0.0543   -9.0405  -41.3723 H         1 UNK         0.0600 
    184 H184        1.0127  -10.8662  -42.7521 H         1 UNK         0.3000 
    185 H185        1.8560  -11.0882  -45.1043 H         1 UNK         0.0600 
    186 H186        2.5735  -12.4393  -43.1844 H         1 UNK         0.0600 
    187 H187        1.8376  -13.8846  -43.8489 H         1 UNK         0.0600 
    188 H188        3.2332  -13.1577  -44.6411 H         1 UNK         0.0600 
    189 H189        1.3949  -11.9467  -47.0732 H         1 UNK         0.3000 
    190 H190        1.6498  -24.8436  -45.5416 H         1 UNK         0.3000 
    191 H191       -0.1038  -25.8183  -44.6625 H         1 UNK         0.0600 
    192 H192       -0.5977  -28.1634  -45.2113 H         1 UNK         0.0600 
    193 H193        1.1390  -27.9155  -45.2482 H         1 UNK         0.0600 
    194 H194        0.2309  -28.0294  -46.7555 H         1 UNK         0.0600 
    195 H195       -0.5916  -23.8414  -46.7900 H         1 UNK         0.3000 
    196 H196       -3.1590  -24.6414  -48.0109 H         1 UNK         0.0600 
    197 H197       -1.3576  -22.1884  -48.2300 H         1 UNK         0.0600 
    198 H198       -1.7710  -23.3547  -49.4708 H         1 UNK         0.0600 
    199 H199       -2.9846  -22.2220  -48.8950 H         1 UNK         0.0600 
    200 H200       -5.1268  -23.9363  -47.3186 H         1 UNK         0.3000 
    201 H201       -5.3550  -23.1149  -44.5469 H         1 UNK         0.0600 
    202 H202       -7.7654  -23.5950  -44.9448 H         1 UNK         0.0600 
    203 H203       -6.7649  -24.9090  -45.5390 H         1 UNK         0.0600 
    204 H204       -7.4708  -23.7549  -46.6718 H         1 UNK         0.0600 
    205 H205       -5.1376  -21.3103  -47.4191 H         1 UNK         0.3000 
    206 H206       -6.0182  -18.8452  -46.1780 H         1 UNK         0.0600 
    207 H207       -8.1645  -19.6760  -47.2338 H         1 UNK         0.0600 
    208 H208       -7.5555  -18.2671  -48.0843 H         1 UNK         0.0600 
    209 H209       -7.3336  -19.8699  -48.7757 H         1 UNK         0.0600 
    210 H210       -5.4679  -17.0309  -47.7775 H         1 UNK         0.3000 
    211 H211       -2.7802  -17.0967  -48.5037 H         1 UNK         0.0600 
    212 H212       -5.0428  -15.2463  -49.4243 H         1 UNK         0.0600 
    213 H213       -3.3340  -14.9219  -49.6726 H         1 UNK         0.0600 
    214 H214       -3.9756  -15.0014  -48.0415 H         1 UNK         0.0600 
    215 H215       -1.8338  -18.2785  -50.0140 H         1 UNK         0.3000 
    216 H216       -1.3092  -19.4420  -51.8045 H         1 UNK         0.0600 
    217 H217       -1.4851  -17.2138  -52.9641 H         1 UNK         0.0600 
    218 H218       -3.1563  -17.5765  -53.3938 H         1 UNK         0.0600 
    219 H219       -1.8490  -18.5442  -54.0487 H         1 UNK         0.0600 
    220 H220       -3.8173  -20.1606  -50.2545 H         1 UNK         0.3000 
    221 H221       -5.6097  -21.4502  -50.2132 H         1 UNK         0.0600 
    222 H222       -5.5962  -23.5912  -51.4940 H         1 UNK         0.0600 
    223 H223       -4.2640  -23.0047  -52.4804 H         1 UNK         0.0600 
    224 H224       -4.0320  -23.2863  -50.7631 H         1 UNK         0.0600 
    225 H225       -5.8603  -19.0737  -51.5070 H         1 UNK         0.3000 
    226 H226       -7.1713  -17.7681  -52.6625 H         1 UNK         0.0600 
    227 H227       -9.1444  -19.2832  -52.4398 H         1 UNK         0.0600 
    228 H228       -9.1076  -18.4576  -53.9902 H         1 UNK         0.0600 
    229 H229       -8.6562  -20.1492  -53.8955 H         1 UNK         0.0600 
    230 H230       -6.3799  -20.6205  -54.6789 H         1 UNK         0.3000 
    231 H231       -4.2269  -19.4411  -56.0443 H         1 UNK         0.0600 
    232 H232       -5.2118  -19.2887  -58.3736 H         1 UNK         0.0600 
    233 H233       -5.8756  -18.0677  -57.3132 H         1 UNK         0.0600 
    234 H234       -6.8224  -19.5033  -57.6962 H         1 UNK         0.0600 
    235 H235       -4.1996  -21.6458  -54.6765 H         1 UNK         0.3000 
    236 H236       -4.1698  -23.8684  -56.6439 H         1 UNK         0.0600 
    237 H237       -6.4576  -23.9382  -55.6623 H         1 UNK         0.0600 
    238 H238       -5.5189  -25.3349  -55.1694 H         1 UNK         0.0600 
    239 H239       -5.7767  -24.0112  -54.0416 H         1 UNK         0.0600 
    240 H240       -2.3196  -22.1958  -54.6059 H         1 UNK         0.3000 
    241 H241       -1.0825  -24.2774  -53.0772 H         1 UNK         0.0600 
    242 H242       -0.7603  -23.7468  -56.4860 H         1 UNK         0.3800 
    243 H243        0.7396  -24.6200  -56.6572 H         1 UNK         0.3800 
    244 H244        0.6452  -22.5958  -52.5421 H         1 UNK         0.0800 
    245 H245       -0.9635  -22.0136  -52.2682 H         1 UNK         0.0800 
    246 H246        2.1088  -19.6854  -54.4253 H         1 UNK         0.0800 
    247 H247        2.3841  -21.3346  -53.9241 H         1 UNK         0.0800 
@<TRIPOS>BOND
     1    1    2 1    
     2    1  127 1    
     3    1  128 1    
     4    1  129 1    
     5    2    3 2    
     6    2    4 am   BACKBONE|DICT|INTERRES
     7    4    5 1    
     8    4  130 1    
     9    5    6 1    
    10    5   65 1    
    11    5  131 1    
    12    6    7 1    
    13    6  132 1    
    14    6  133 1    
    15    7    8 1    
    16    8    9 1    
    17    8  134 1    
    18    8  135 1    
    19    9   10 ar   
    20    9   14 ar   
    21   10   11 ar   
    22   10  136 1    
    23   11   12 ar   
    24   11  126 1    
    25   12   13 ar   
    26   12  137 1    
    27   13   14 ar   
    28   13   15 1    
    29   14  138 1    
    30   15   16 1    
    31   15  139 1    
    32   15  140 1    
    33   16   17 1    
    34   17   18 1    
    35   17  141 1    
    36   17  142 1    
    37   18   19 1    
    38   18   67 1    
    39   18  143 1    
    40   19   20 am   BACKBONE|DICT|INTERRES
    41   19  144 1    
    42   20   21 2    
    43   20   22 1    
    44   22   23 1    
    45   22   24 1    
    46   22  145 1    
    47   23  146 1    
    48   23  147 1    
    49   23  148 1    
    50   24   25 am   BACKBONE|DICT|INTERRES
    51   24  149 1    
    52   25   26 2    
    53   25   27 1    
    54   27   28 1    
    55   27   29 1    
    56   27  150 1    
    57   28  151 1    
    58   28  152 1    
    59   28  153 1    
    60   29   30 am   BACKBONE|DICT|INTERRES
    61   29  154 1    
    62   30   31 2    
    63   30   32 1    
    64   32   33 1    
    65   32   34 1    
    66   32  155 1    
    67   33  156 1    
    68   33  157 1    
    69   33  158 1    
    70   34   35 am   BACKBONE|DICT|INTERRES
    71   34  159 1    
    72   35   36 2    
    73   35   37 1    
    74   37   38 1    
    75   37   39 1    
    76   37  160 1    
    77   38  161 1    
    78   38  162 1    
    79   38  163 1    
    80   39   40 am   BACKBONE|DICT|INTERRES
    81   39  164 1    
    82   40   41 2    
    83   40   42 1    
    84   42   43 1    
    85   42   44 1    
    86   42  165 1    
    87   43  166 1    
    88   43  167 1    
    89   43  168 1    
    90   44   45 am   BACKBONE|DICT|INTERRES
    91   44  169 1    
    92   45   46 2    
    93   45   47 1    
    94   47   48 1    
    95   47   49 1    
    96   47  170 1    
    97   48  171 1    
    98   48  172 1    
    99   48  173 1    
   100   49   50 am   BACKBONE|DICT|INTERRES
   101   49  174 1    
   102   50   51 2    
   103   50   52 1    
   104   52   53 1    
   105   52   54 1    
   106   52  175 1    
   107   53  176 1    
   108   53  177 1    
   109   53  178 1    
   110   54   55 am   BACKBONE|DICT|INTERRES
   111   54  179 1    
   112   55   56 2    
   113   55   57 1    
   114   57   58 1    
   115   57   59 1    
   116   57  180 1    
   117   58  181 1    
   118   58  182 1    
   119   58  183 1    
   120   59   60 am   BACKBONE|DICT|INTERRES
   121   59  184 1    
   122   60   61 2    
   123   60   62 1    
   124   62   63 1    
   125   62   64 1    
   126   62  185 1    
   127   63  186 1    
   128   63  187 1    
   129   63  188 1    
   130   64   65 am   BACKBONE|DICT|INTERRES
   131   64  189 1    
   132   65   66 2    
   133   67   68 2    
   134   67   69 am   BACKBONE|DICT|INTERRES
   135   69   70 1    
   136   69  190 1    
   137   70   71 1    
   138   70   72 1    
   139   70  191 1    
   140   71  192 1    
   141   71  193 1    
   142   71  194 1    
   143   72   73 2    
   144   72   74 am   BACKBONE|DICT|INTERRES
   145   74   75 1    
   146   74  195 1    
   147   75   76 1    
   148   75   77 1    
   149   75  196 1    
   150   76  197 1    
   151   76  198 1    
   152   76  199 1    
   153   77   78 2    
   154   77   79 am   BACKBONE|DICT|INTERRES
   155   79   80 1    
   156   79  200 1    
   157   80   81 1    
   158   80   82 1    
   159   80  201 1    
   160   81  202 1    
   161   81  203 1    
   162   81  204 1    
   163   82   83 2    
   164   82   84 am   BACKBONE|DICT|INTERRES
   165   84   85 1    
   166   84  205 1    
   167   85   86 1    
   168   85   87 1    
   169   85  206 1    
   170   86  207 1    
   171   86  208 1    
   172   86  209 1    
   173   87   88 2    
   174   87   89 am   BACKBONE|DICT|INTERRES
   175   89   90 1    
   176   89  210 1    
   177   90   91 1    
   178   90   92 1    
   179   90  211 1    
   180   91  212 1    
   181   91  213 1    
   182   91  214 1    
   183   92   93 2    
   184   92   94 am   BACKBONE|DICT|INTERRES
   185   94   95 1    
   186   94  215 1    
   187   95   96 1    
   188   95   97 1    
   189   95  216 1    
   190   96  217 1    
   191   96  218 1    
   192   96  219 1    
   193   97   98 2    
   194   97   99 am   BACKBONE|DICT|INTERRES
   195   99  100 1    
   196   99  220 1    
   197  100  101 1    
   198  100  102 1    
   199  100  221 1    
   200  101  222 1    
   201  101  223 1    
   202  101  224 1    
   203  102  103 2    
   204  102  104 am   BACKBONE|DICT|INTERRES
   205  104  105 1    
   206  104  225 1    
   207  105  106 1    
   208  105  107 1    
   209  105  226 1    
   210  106  227 1    
   211  106  228 1    
   212  106  229 1    
   213  107  108 2    
   214  107  109 am   BACKBONE|DICT|INTERRES
   215  109  110 1    
   216  109  230 1    
   217  110  111 1    
   218  110  112 1    
   219  110  231 1    
   220  111  232 1    
   221  111  233 1    
   222  111  234 1    
   223  112  113 2    
   224  112  114 am   BACKBONE|DICT|INTERRES
   225  114  115 1    
   226  114  235 1    
   227  115  116 1    
   228  115  117 1    
   229  115  236 1    
   230  116  237 1    
   231  116  238 1    
   232  116  239 1    
   233  117  118 2    
   234  117  119 am   BACKBONE|DICT|INTERRES
   235  119  120 1    
   236  119  240 1    
   237  120  121 1    
   238  120  124 1    
   239  120  241 1    
   240  121  122 am   BACKBONE|DICT|INTERRES
   241  121  123 2    
   242  122  242 1    
   243  122  243 1    
   244  124  125 1    
   245  124  244 1    
   246  124  245 1    
   247  125  126 1    
   248  126  246 1    
   249  126  247 1    
@<TRIPOS>SUBSTRUCTURE
     1 UNK         1 GROUP             0       ****    0 ROOT    
