@<TRIPOS>MOLECULE
3R540
247   249    1
SMALL
USER_CHARGES


@<TRIPOS>ATOM
      1 CA          2.1875  -16.1447  -47.6768 C.3       0 UNK        -0.1800 
      2 C           1.1938  -15.4374  -46.7703 C.2       0 UNK         0.5000 
      3 O           1.5757  -14.5406  -46.0194 O.2       0 UNK        -0.5000 
      4 N          -0.0877  -15.8180  -46.8597 N.am      1 UNK        -0.5000 
      5 CA         -1.1931  -15.3053  -46.0339 C.3       1 UNK         0.1400 
      6 C6         -2.5118  -16.0837  -46.2587 C.3       23 UNK        -0.0398 
      7 S7         -2.3493  -17.8739  -45.9462 S.3       23 UNK        -0.2404 
      8 C8         -2.6735  -18.5629  -47.5979 C.3       23 UNK        -0.0205 
      9 C9         -1.5250  -18.3115  -48.5631 C.ar      23 UNK        -0.0193 
     10 C10        -1.6275  -17.3260  -49.5476 C.ar      23 UNK        -0.1150 
     11 C11        -0.5893  -17.1233  -50.4609 C.ar      23 UNK        -0.0193 
     12 C12         0.5579  -17.9211  -50.3896 C.ar      23 UNK        -0.1150 
     13 C13         0.6680  -18.9167  -49.4146 C.ar      23 UNK        -0.0193 
     14 C14        -0.3713  -19.0948  -48.4959 C.ar      23 UNK        -0.1150 
     15 C15         1.9079  -19.7996  -49.3416 C.3       23 UNK        -0.0205 
     16 S16         1.9573  -21.1043  -50.6250 S.3       23 UNK        -0.2404 
     17 C17         0.3357  -21.9301  -50.4379 C.3       23 UNK        -0.0398 
     18 CA          0.2588  -23.1401  -49.4587 C.3       11 UNK         0.1400 
     19 N           1.3002  -23.1354  -48.4254 N.am      11 UNK        -0.5000 
     20 C           1.4906  -24.0519  -47.4648 C.2       10 UNK         0.5000 
     21 O           0.8063  -25.0687  -47.3376 O.2       10 UNK        -0.5000 
     22 CA          2.6039  -23.7549  -46.4400 C.3       10 UNK         0.1400 
     23 CB          3.7682  -22.9264  -47.0269 C.3       10 UNK        -0.1800 
     24 N           2.0976  -23.1121  -45.2207 N.am      10 UNK        -0.5000 
     25 C           1.3638  -21.9920  -45.1300 C.2       9 UNK         0.5000 
     26 O           0.9126  -21.3834  -46.1004 O.2       9 UNK        -0.5000 
     27 CA          1.0947  -21.4207  -43.7245 C.3       9 UNK         0.1400 
     28 CB          1.3774  -22.3989  -42.5622 C.3       9 UNK        -0.1800 
     29 N           1.8152  -20.1568  -43.5561 N.am      9 UNK        -0.5000 
     30 C           3.1407  -19.9615  -43.5840 C.2       8 UNK         0.5000 
     31 O           3.9669  -20.8746  -43.6082 O.2       8 UNK        -0.5000 
     32 CA          3.6529  -18.5063  -43.5993 C.3       8 UNK         0.1400 
     33 CB          3.9030  -18.0456  -45.0469 C.3       8 UNK        -0.1800 
     34 N           2.8365  -17.5225  -42.8741 N.am      8 UNK        -0.5000 
     35 C           1.5998  -17.0748  -43.1268 C.2       7 UNK         0.5000 
     36 O           0.8805  -17.5316  -44.0137 O.2       7 UNK        -0.5000 
     37 CA          1.0592  -15.9279  -42.2480 C.3       7 UNK         0.1400 
     38 CB          0.1858  -16.4717  -41.1032 C.3       7 UNK        -0.1800 
     39 N           2.0687  -14.9855  -41.7454 N.am      7 UNK        -0.5000 
     40 C           3.0671  -15.1777  -40.8703 C.2       6 UNK         0.5000 
     41 O           3.3240  -16.2620  -40.3471 O.2       6 UNK        -0.5000 
     42 CA          3.9386  -13.9541  -40.5426 C.3       6 UNK         0.1400 
     43 CB          5.0059  -13.7523  -41.6302 C.3       6 UNK        -0.1800 
     44 N           3.1230  -12.7449  -40.4400 N.am      6 UNK        -0.5000 
     45 C           2.6848  -12.2090  -39.2929 C.2       5 UNK         0.5000 
     46 O           2.9938  -12.6296  -38.1772 O.2       5 UNK        -0.5000 
     47 CA          1.7312  -11.0010  -39.4059 C.3       5 UNK         0.1400 
     48 CB          2.5253   -9.6860  -39.3884 C.3       5 UNK        -0.1800 
     49 N           0.8967  -11.0380  -40.6086 N.am      5 UNK        -0.5000 
     50 C          -0.0696  -11.9377  -40.8391 C.2       4 UNK         0.5000 
     51 O          -0.4329  -12.7733  -40.0112 O.2       4 UNK        -0.5000 
     52 CA         -0.7301  -11.9245  -42.2329 C.3       4 UNK         0.1400 
     53 CB         -2.0889  -11.2105  -42.1741 C.3       4 UNK        -0.1800 
     54 N           0.0673  -11.3301  -43.3131 N.am      4 UNK        -0.5000 
     55 C           1.2920  -11.7123  -43.6996 C.2       3 UNK         0.5000 
     56 O           1.9743  -12.5330  -43.0857 O.2       3 UNK        -0.5000 
     57 CA          1.8047  -11.1043  -45.0152 C.3       3 UNK         0.1400 
     58 CB          3.2719  -11.4691  -45.3049 C.3       3 UNK        -0.1800 
     59 N           0.9662  -11.6096  -46.0973 N.am      3 UNK        -0.5000 
     60 C          -0.0921  -10.9731  -46.6177 C.2       2 UNK         0.5000 
     61 O          -0.4033   -9.8183  -46.3245 O.2       2 UNK        -0.5000 
     62 CA         -0.9823  -11.7729  -47.5915 C.3       2 UNK         0.1400 
     63 CB         -0.5414  -11.5378  -49.0440 C.3       2 UNK        -0.1800 
     64 N          -0.9803  -13.2117  -47.3207 N.am      2 UNK        -0.5000 
     65 C          -1.4461  -13.7905  -46.2034 C.2       1 UNK         0.5000 
     66 O          -2.0389  -13.1766  -45.3161 O.2       1 UNK        -0.5000 
     67 C          -1.1671  -23.2146  -48.8696 C.2       11 UNK         0.5000 
     68 O          -2.0626  -23.7357  -49.5312 O.2       11 UNK        -0.5000 
     69 N          -1.3532  -22.7005  -47.6421 N.am      12 UNK        -0.5000 
     70 CA         -2.6200  -22.6517  -46.9053 C.3       12 UNK         0.1400 
     71 CB         -2.3796  -22.0017  -45.5355 C.3       12 UNK        -0.1800 
     72 C          -3.3257  -24.0118  -46.7319 C.2       12 UNK         0.5000 
     73 O          -4.5504  -24.0414  -46.6063 O.2       12 UNK        -0.5000 
     74 N          -2.5590  -25.1106  -46.7702 N.am      13 UNK        -0.5000 
     75 CA         -3.0682  -26.4827  -46.7664 C.3       13 UNK         0.1400 
     76 CB         -1.8836  -27.4508  -46.6328 C.3       13 UNK        -0.1800 
     77 C          -3.9108  -26.8306  -48.0120 C.2       13 UNK         0.5000 
     78 O          -4.7992  -27.6789  -47.9231 O.2       13 UNK        -0.5000 
     79 N          -3.6494  -26.1581  -49.1416 N.am      14 UNK        -0.5000 
     80 CA         -4.3551  -26.3237  -50.4106 C.3       14 UNK         0.1400 
     81 CB         -3.3729  -26.0254  -51.5543 C.3       14 UNK        -0.1800 
     82 C          -5.6095  -25.4292  -50.4559 C.2       14 UNK         0.5000 
     83 O          -5.7166  -24.5510  -51.3165 O.2       14 UNK        -0.5000 
     84 N          -6.5240  -25.6624  -49.5033 N.am      15 UNK        -0.5000 
     85 CA         -7.8201  -24.9978  -49.3274 C.3       15 UNK         0.1400 
     86 CB         -8.7724  -25.3774  -50.4819 C.3       15 UNK        -0.1800 
     87 C          -7.6817  -23.4730  -49.1464 C.2       15 UNK         0.5000 
     88 O          -8.2374  -22.7051  -49.9314 O.2       15 UNK        -0.5000 
     89 N          -6.8855  -23.0592  -48.1482 N.am      16 UNK        -0.5000 
     90 CA         -6.5147  -21.6656  -47.8537 C.3       16 UNK         0.1400 
     91 CB         -7.7422  -20.8405  -47.4132 C.3       16 UNK        -0.1800 
     92 C          -5.7259  -21.0083  -49.0078 C.2       16 UNK         0.5000 
     93 O          -5.8245  -19.7999  -49.2208 O.2       16 UNK        -0.5000 
     94 N          -4.9679  -21.8446  -49.7317 N.am      17 UNK        -0.5000 
     95 CA         -4.1811  -21.5588  -50.9319 C.3       17 UNK         0.1400 
     96 CB         -3.1328  -20.4618  -50.6770 C.3       17 UNK        -0.1800 
     97 C          -5.0178  -21.2774  -52.1917 C.2       17 UNK         0.5000 
     98 O          -4.4405  -20.8757  -53.2022 O.2       17 UNK        -0.5000 
     99 N          -6.3343  -21.5310  -52.1544 N.am      18 UNK        -0.5000 
    100 CA        -7.2272  -21.3687  -53.3026 C.3       18 UNK         0.1400 
    101 CB        -8.6899  -21.4525  -52.8439 C.3       18 UNK        -0.1800 
    102 C         -6.9542  -22.3941  -54.4170 C.2       18 UNK         0.5000 
    103 O         -7.0805  -22.0499  -55.5925 O.2       18 UNK        -0.5000 
    104 N         -6.5658  -23.6208  -54.0378 N.am      19 UNK        -0.5000 
    105 CA        -6.2066  -24.6805  -54.9813 C.3       19 UNK         0.1400 
    106 CB        -6.4752  -26.0514  -54.3426 C.3       19 UNK        -0.1800 
    107 C         -4.7484  -24.5602  -55.4635 C.2       19 UNK         0.5000 
    108 O         -4.4515  -24.9678  -56.5870 O.2       19 UNK        -0.5000 
    109 N         -3.8692  -23.9931  -54.6239 N.am      20 UNK        -0.5000 
    110 CA        -2.4673  -23.7267  -54.9606 C.3       20 UNK         0.1400 
    111 CB        -1.6341  -23.6110  -53.6729 C.3       20 UNK        -0.1800 
    112 C         -2.2790  -22.4599  -55.8132 C.2       20 UNK         0.5000 
    113 O         -1.2726  -22.3576  -56.5151 O.2       20 UNK        -0.5000 
    114 N         -3.2052  -21.4969  -55.6895 N.am      21 UNK        -0.5000 
    115 CA        -3.1605  -20.1443  -56.2590 C.3       21 UNK         0.1400 
    116 CB        -3.3266  -20.1925  -57.7918 C.3       21 UNK        -0.1800 
    117 C         -1.9054  -19.3667  -55.8026 C.2       21 UNK         0.5000 
    118 O         -1.2646  -18.6910  -56.6095 O.2       21 UNK        -0.5000 
    119 N         -1.5588  -19.5327  -54.5177 N.am      22 UNK        -0.5000 
    120 CA        -0.3187  -19.0640  -53.8683 C.3       22 UNK         0.1400 
    121 C          0.9849  -19.7741  -54.3556 C.2       22 UNK         0.5000 
    122 N          0.9256  -20.8350  -55.1528 N.am      22 UNK        -0.7600 
    123 O          2.0833  -19.3721  -53.9828 O.2       22 UNK        -0.5000 
    124 C124       -0.1647  -17.5155  -53.8658 C.3       23 UNK        -0.0398 
    125 S125       -1.5363  -16.6521  -53.0249 S.3       23 UNK        -0.2404 
    126 C126       -0.7174  -16.0376  -51.5178 C.3       23 UNK        -0.0205 
    127 H127        2.0302  -17.2218  -47.6506 H         1 UNK         0.0600 
    128 H128        2.0766  -15.8004  -48.7048 H         1 UNK         0.0600 
    129 H129        3.2102  -15.9458  -47.3563 H         1 UNK         0.0600 
    130 H130       -0.3320  -16.5796  -47.4789 H         1 UNK         0.3000 
    131 H131       -0.8969  -15.4519  -44.9935 H         1 UNK         0.0600 
    132 H132       -2.8895  -15.9152  -47.2681 H         1 UNK         0.0800 
    133 H133       -3.2872  -15.7133  -45.5854 H         1 UNK         0.0800 
    134 H134       -3.6086  -18.1602  -47.9909 H         1 UNK         0.0800 
    135 H135       -2.8306  -19.6366  -47.5024 H         1 UNK         0.0800 
    136 H136       -2.5222  -16.7230  -49.6139 H         1 UNK         0.1150 
    137 H137        1.3630  -17.7764  -51.0960 H         1 UNK         0.1150 
    138 H138       -0.2950  -19.8585  -47.7360 H         1 UNK         0.1150 
    139 H139        2.7967  -19.1758  -49.4456 H         1 UNK         0.0800 
    140 H140        1.9814  -20.2583  -48.3553 H         1 UNK         0.0800 
    141 H141       -0.3951  -21.1635  -50.1955 H         1 UNK         0.0800 
    142 H142        0.0383  -22.2705  -51.4307 H         1 UNK         0.0800 
    143 H143        0.4125  -24.0528  -50.0380 H         1 UNK         0.0600 
    144 H144        1.9001  -22.3238  -48.4273 H         1 UNK         0.3000 
    145 H145        3.0088  -24.7223  -46.1391 H         1 UNK         0.0600 
    146 H146        4.6019  -22.8832  -46.3259 H         1 UNK         0.0600 
    147 H147        4.1454  -23.3723  -47.9483 H         1 UNK         0.0600 
    148 H148        3.4787  -21.8989  -47.2477 H         1 UNK         0.0600 
    149 H149        2.4023  -23.5347  -44.3555 H         1 UNK         0.3000 
    150 H150        0.0331  -21.1724  -43.6928 H         1 UNK         0.0600 
    151 H151        0.7859  -23.3093  -42.6670 H         1 UNK         0.0600 
    152 H152        1.1065  -21.9503  -41.6064 H         1 UNK         0.0600 
    153 H153        2.4258  -22.6904  -42.5006 H         1 UNK         0.0600 
    154 H154        1.2466  -19.3172  -43.6364 H         1 UNK         0.3000 
    155 H155        4.6161  -18.5132  -43.0869 H         1 UNK         0.0600 
    156 H156        4.6319  -18.6892  -45.5407 H         1 UNK         0.0600 
    157 H157        4.2895  -17.0268  -45.0799 H         1 UNK         0.0600 
    158 H158        2.9884  -18.0801  -45.6383 H         1 UNK         0.0600 
    159 H159        3.2751  -17.1334  -42.0446 H         1 UNK         0.3000 
    160 H160        0.4145  -15.3311  -42.8949 H         1 UNK         0.0600 
    161 H161        0.7565  -17.0979  -40.4171 H         1 UNK         0.0600 
    162 H162       -0.6322  -17.0785  -41.4935 H         1 UNK         0.0600 
    163 H163       -0.2579  -15.6594  -40.5273 H         1 UNK         0.0600 
    164 H164        2.0207  -14.0664  -42.1821 H         1 UNK         0.3000 
    165 H165        4.4510  -14.1479  -39.5980 H         1 UNK         0.0600 
    166 H166        5.6355  -14.6375  -41.7285 H         1 UNK         0.0600 
    167 H167        4.5596  -13.5564  -42.6062 H         1 UNK         0.0600 
    168 H168        5.6591  -12.9139  -41.3879 H         1 UNK         0.0600 
    169 H169        2.7752  -12.3692  -41.3161 H         1 UNK         0.3000 
    170 H170        1.0730  -11.0153  -38.5346 H         1 UNK         0.0600 
    171 H171        3.1408   -9.6139  -38.4907 H         1 UNK         0.0600 
    172 H172        3.1899   -9.6053  -40.2495 H         1 UNK         0.0600 
    173 H173        1.8596   -8.8227  -39.3946 H         1 UNK         0.0600 
    174 H174        1.1225  -10.3823  -41.3417 H         1 UNK         0.3000 
    175 H175       -0.9076  -12.9665  -42.5072 H         1 UNK         0.0600 
    176 H176       -1.9753  -10.1496  -41.9482 H         1 UNK         0.0600 
    177 H177       -2.6211  -11.2986  -43.1217 H         1 UNK         0.0600 
    178 H178       -2.7280  -11.6448  -41.4041 H         1 UNK         0.0600 
    179 H179       -0.4157  -10.6589  -43.8942 H         1 UNK         0.3000 
    180 H180        1.7334  -10.0175  -44.9394 H         1 UNK         0.0600 
    181 H181        3.4131  -12.5476  -45.3881 H         1 UNK         0.0600 
    182 H182        3.6125  -11.0157  -46.2357 H         1 UNK         0.0600 
    183 H183        3.9271  -11.1124  -44.5093 H         1 UNK         0.0600 
    184 H184        1.1060  -12.5897  -46.3237 H         1 UNK         0.3000 
    185 H185       -2.0060  -11.4101  -47.4786 H         1 UNK         0.0600 
    186 H186       -1.2070  -12.0415  -49.7454 H         1 UNK         0.0600 
    187 H187       -0.5565  -10.4750  -49.2892 H         1 UNK         0.0600 
    188 H188        0.4716  -11.9014  -49.2211 H         1 UNK         0.0600 
    189 H189       -0.5068  -13.7980  -47.9919 H         1 UNK         0.3000 
    190 H190       -0.5492  -22.2914  -47.1757 H         1 UNK         0.3000 
    191 H191       -3.2921  -22.0096  -47.4737 H         1 UNK         0.0600 
    192 H192       -3.3186  -21.8640  -44.9978 H         1 UNK         0.0600 
    193 H193       -1.9167  -21.0199  -45.6352 H         1 UNK         0.0600 
    194 H194       -1.7308  -22.6167  -44.9111 H         1 UNK         0.0600 
    195 H195       -1.5606  -24.9986  -46.8926 H         1 UNK         0.3000 
    196 H196       -3.7101  -26.6011  -45.8911 H         1 UNK         0.0600 
    197 H197       -2.2249  -28.4864  -46.6021 H         1 UNK         0.0600 
    198 H198       -1.3243  -27.2657  -45.7155 H         1 UNK         0.0600 
    199 H199       -1.1917  -27.3561  -47.4710 H         1 UNK         0.0600 
    200 H200       -2.9533  -25.4184  -49.1239 H         1 UNK         0.3000 
    201 H201       -4.6817  -27.3603  -50.5152 H         1 UNK         0.0600 
    202 H202       -2.4611  -26.6150  -51.4593 H         1 UNK         0.0600 
    203 H203       -3.0921  -24.9737  -51.5646 H         1 UNK         0.0600 
    204 H204       -3.8074  -26.2592  -52.5250 H         1 UNK         0.0600 
    205 H205       -6.3060  -26.3873  -48.8292 H         1 UNK         0.3000 
    206 H206       -8.2499  -25.3836  -48.4019 H         1 UNK         0.0600 
    207 H207       -8.8853  -26.4586  -50.5599 H         1 UNK         0.0600 
    208 H208       -9.7663  -24.9581  -50.3215 H         1 UNK         0.0600 
    209 H209       -8.4147  -25.0089  -51.4441 H         1 UNK         0.0600 
    210 H210       -6.4124  -23.7525  -47.5779 H         1 UNK         0.3000 
    211 H211       -5.8314  -21.7016  -47.0048 H         1 UNK         0.0600 
    212 H212       -8.4413  -20.6784  -48.2340 H         1 UNK         0.0600 
    213 H213       -7.4400  -19.8590  -47.0462 H         1 UNK         0.0600 
    214 H214       -8.2808  -21.3358  -46.6055 H         1 UNK         0.0600 
    215 H215       -5.0074  -22.8233  -49.4852 H         1 UNK         0.3000 
    216 H216       -3.6434  -22.4809  -51.1485 H         1 UNK         0.0600 
    217 H217       -3.5871  -19.4739  -50.5991 H         1 UNK         0.0600 
    218 H218       -2.4016  -20.4179  -51.4842 H         1 UNK         0.0600 
    219 H219       -2.5919  -20.6560  -49.7537 H         1 UNK         0.0600 
    220 H220       -6.7477  -21.8959  -51.3041 H         1 UNK         0.3000 
    221 H221       -7.0605  -20.3723  -53.7175 H         1 UNK         0.0600 
    222 H222       -8.9398  -22.4487  -52.4772 H         1 UNK         0.0600 
    223 H223       -8.8971  -20.7385  -52.0465 H         1 UNK         0.0600 
    224 H224       -9.3688  -21.2288  -53.6675 H         1 UNK         0.0600 
    225 H225       -6.4590  -23.8285  -53.0488 H         1 UNK         0.3000 
    226 H226       -6.8468  -24.6037  -55.8630 H         1 UNK         0.0600 
    227 H227       -7.5266  -26.1597  -54.0756 H         1 UNK         0.0600 
    228 H228       -6.2301  -26.8589  -55.0336 H         1 UNK         0.0600 
    229 H229       -5.8878  -26.2035  -53.4399 H         1 UNK         0.0600 
    230 H230       -4.1963  -23.6898  -53.7193 H         1 UNK         0.3000 
    231 H231       -2.0743  -24.5660  -55.5386 H         1 UNK         0.0600 
    232 H232       -2.0651  -22.8981  -52.9701 H         1 UNK         0.0600 
    233 H233       -1.5461  -24.5759  -53.1769 H         1 UNK         0.0600 
    234 H234       -0.6167  -23.2809  -53.8886 H         1 UNK         0.0600 
    235 H235       -3.9418  -21.6384  -55.0075 H         1 UNK         0.3000 
    236 H236       -4.0182  -19.6092  -55.8488 H         1 UNK         0.0600 
    237 H237       -4.2267  -20.7398  -58.0719 H         1 UNK         0.0600 
    238 H238       -3.4158  -19.1878  -58.2064 H         1 UNK         0.0600 
    239 H239       -2.4770  -20.6727  -58.2779 H         1 UNK         0.0600 
    240 H240       -2.1739  -20.0889  -53.9401 H         1 UNK         0.3000 
    241 H241       -0.4127  -19.3747  -52.8271 H         1 UNK         0.0600 
    242 H242        0.0492  -21.1786  -55.5263 H         1 UNK         0.3800 
    243 H243        1.7866  -21.2725  -55.4393 H         1 UNK         0.3800 
    244 H244       -0.0956  -17.1346  -54.8849 H         1 UNK         0.0800 
    245 H245        0.7712  -17.2238  -53.3884 H         1 UNK         0.0800 
    246 H246        0.2602  -15.6184  -51.7602 H         1 UNK         0.0800 
    247 H247       -1.3046  -15.2092  -51.1186 H         1 UNK         0.0800 
@<TRIPOS>BOND
     1    1    2 1    
     2    1  127 1    
     3    1  128 1    
     4    1  129 1    
     5    2    3 2    
     6    2    4 am   BACKBONE|DICT|INTERRES
     7    4    5 1    
     8    4  130 1    
     9    5    6 1    
    10    5   65 1    
    11    5  131 1    
    12    6    7 1    
    13    6  132 1    
    14    6  133 1    
    15    7    8 1    
    16    8    9 1    
    17    8  134 1    
    18    8  135 1    
    19    9   10 ar   
    20    9   14 ar   
    21   10   11 ar   
    22   10  136 1    
    23   11   12 ar   
    24   11  126 1    
    25   12   13 ar   
    26   12  137 1    
    27   13   14 ar   
    28   13   15 1    
    29   14  138 1    
    30   15   16 1    
    31   15  139 1    
    32   15  140 1    
    33   16   17 1    
    34   17   18 1    
    35   17  141 1    
    36   17  142 1    
    37   18   19 1    
    38   18   67 1    
    39   18  143 1    
    40   19   20 am   BACKBONE|DICT|INTERRES
    41   19  144 1    
    42   20   21 2    
    43   20   22 1    
    44   22   23 1    
    45   22   24 1    
    46   22  145 1    
    47   23  146 1    
    48   23  147 1    
    49   23  148 1    
    50   24   25 am   BACKBONE|DICT|INTERRES
    51   24  149 1    
    52   25   26 2    
    53   25   27 1    
    54   27   28 1    
    55   27   29 1    
    56   27  150 1    
    57   28  151 1    
    58   28  152 1    
    59   28  153 1    
    60   29   30 am   BACKBONE|DICT|INTERRES
    61   29  154 1    
    62   30   31 2    
    63   30   32 1    
    64   32   33 1    
    65   32   34 1    
    66   32  155 1    
    67   33  156 1    
    68   33  157 1    
    69   33  158 1    
    70   34   35 am   BACKBONE|DICT|INTERRES
    71   34  159 1    
    72   35   36 2    
    73   35   37 1    
    74   37   38 1    
    75   37   39 1    
    76   37  160 1    
    77   38  161 1    
    78   38  162 1    
    79   38  163 1    
    80   39   40 am   BACKBONE|DICT|INTERRES
    81   39  164 1    
    82   40   41 2    
    83   40   42 1    
    84   42   43 1    
    85   42   44 1    
    86   42  165 1    
    87   43  166 1    
    88   43  167 1    
    89   43  168 1    
    90   44   45 am   BACKBONE|DICT|INTERRES
    91   44  169 1    
    92   45   46 2    
    93   45   47 1    
    94   47   48 1    
    95   47   49 1    
    96   47  170 1    
    97   48  171 1    
    98   48  172 1    
    99   48  173 1    
   100   49   50 am   BACKBONE|DICT|INTERRES
   101   49  174 1    
   102   50   51 2    
   103   50   52 1    
   104   52   53 1    
   105   52   54 1    
   106   52  175 1    
   107   53  176 1    
   108   53  177 1    
   109   53  178 1    
   110   54   55 am   BACKBONE|DICT|INTERRES
   111   54  179 1    
   112   55   56 2    
   113   55   57 1    
   114   57   58 1    
   115   57   59 1    
   116   57  180 1    
   117   58  181 1    
   118   58  182 1    
   119   58  183 1    
   120   59   60 am   BACKBONE|DICT|INTERRES
   121   59  184 1    
   122   60   61 2    
   123   60   62 1    
   124   62   63 1    
   125   62   64 1    
   126   62  185 1    
   127   63  186 1    
   128   63  187 1    
   129   63  188 1    
   130   64   65 am   BACKBONE|DICT|INTERRES
   131   64  189 1    
   132   65   66 2    
   133   67   68 2    
   134   67   69 am   BACKBONE|DICT|INTERRES
   135   69   70 1    
   136   69  190 1    
   137   70   71 1    
   138   70   72 1    
   139   70  191 1    
   140   71  192 1    
   141   71  193 1    
   142   71  194 1    
   143   72   73 2    
   144   72   74 am   BACKBONE|DICT|INTERRES
   145   74   75 1    
   146   74  195 1    
   147   75   76 1    
   148   75   77 1    
   149   75  196 1    
   150   76  197 1    
   151   76  198 1    
   152   76  199 1    
   153   77   78 2    
   154   77   79 am   BACKBONE|DICT|INTERRES
   155   79   80 1    
   156   79  200 1    
   157   80   81 1    
   158   80   82 1    
   159   80  201 1    
   160   81  202 1    
   161   81  203 1    
   162   81  204 1    
   163   82   83 2    
   164   82   84 am   BACKBONE|DICT|INTERRES
   165   84   85 1    
   166   84  205 1    
   167   85   86 1    
   168   85   87 1    
   169   85  206 1    
   170   86  207 1    
   171   86  208 1    
   172   86  209 1    
   173   87   88 2    
   174   87   89 am   BACKBONE|DICT|INTERRES
   175   89   90 1    
   176   89  210 1    
   177   90   91 1    
   178   90   92 1    
   179   90  211 1    
   180   91  212 1    
   181   91  213 1    
   182   91  214 1    
   183   92   93 2    
   184   92   94 am   BACKBONE|DICT|INTERRES
   185   94   95 1    
   186   94  215 1    
   187   95   96 1    
   188   95   97 1    
   189   95  216 1    
   190   96  217 1    
   191   96  218 1    
   192   96  219 1    
   193   97   98 2    
   194   97   99 am   BACKBONE|DICT|INTERRES
   195   99  100 1    
   196   99  220 1    
   197  100  101 1    
   198  100  102 1    
   199  100  221 1    
   200  101  222 1    
   201  101  223 1    
   202  101  224 1    
   203  102  103 2    
   204  102  104 am   BACKBONE|DICT|INTERRES
   205  104  105 1    
   206  104  225 1    
   207  105  106 1    
   208  105  107 1    
   209  105  226 1    
   210  106  227 1    
   211  106  228 1    
   212  106  229 1    
   213  107  108 2    
   214  107  109 am   BACKBONE|DICT|INTERRES
   215  109  110 1    
   216  109  230 1    
   217  110  111 1    
   218  110  112 1    
   219  110  231 1    
   220  111  232 1    
   221  111  233 1    
   222  111  234 1    
   223  112  113 2    
   224  112  114 am   BACKBONE|DICT|INTERRES
   225  114  115 1    
   226  114  235 1    
   227  115  116 1    
   228  115  117 1    
   229  115  236 1    
   230  116  237 1    
   231  116  238 1    
   232  116  239 1    
   233  117  118 2    
   234  117  119 am   BACKBONE|DICT|INTERRES
   235  119  120 1    
   236  119  240 1    
   237  120  121 1    
   238  120  124 1    
   239  120  241 1    
   240  121  122 am   BACKBONE|DICT|INTERRES
   241  121  123 2    
   242  122  242 1    
   243  122  243 1    
   244  124  125 1    
   245  124  244 1    
   246  124  245 1    
   247  125  126 1    
   248  126  246 1    
   249  126  247 1    
@<TRIPOS>SUBSTRUCTURE
     1 UNK         1 GROUP             0       ****    0 ROOT    
