@<TRIPOS>MOLECULE
3R540
247   249    1
SMALL
USER_CHARGES


@<TRIPOS>ATOM
      1 CA          6.3455  -12.6997  -48.5281 C.3       0 UNK        -0.1800 
      2 C           5.3341  -12.8463  -47.4003 C.2       0 UNK         0.5000 
      3 O           5.7185  -12.8738  -46.2324 O.2       0 UNK        -0.5000 
      4 N           4.0441  -12.9313  -47.7471 N.am      1 UNK        -0.5000 
      5 CA          2.9226  -13.0678  -46.8082 C.3       1 UNK         0.1400 
      6 C6          1.7681  -13.9064  -47.4135 C.3       23 UNK        -0.0398 
      7 S7          1.0224  -13.1596  -48.9058 S.3       23 UNK        -0.2404 
      8 C8          1.6320  -14.2565  -50.2285 C.3       23 UNK        -0.0205 
      9 C9          0.8802  -15.5800  -50.3178 C.ar      23 UNK        -0.0193 
     10 C10        -0.5186  -15.6049  -50.3311 C.ar      23 UNK        -0.1150 
     11 C11        -1.2093  -16.8102  -50.4749 C.ar      23 UNK        -0.0193 
     12 C12        -0.4889  -17.9950  -50.6379 C.ar      23 UNK        -0.1150 
     13 C13         0.9089  -17.9910  -50.6247 C.ar      23 UNK        -0.0193 
     14 C14         1.5870  -16.7799  -50.4525 C.ar      23 UNK        -0.1150 
     15 C15         1.6842  -19.2848  -50.8449 C.3       23 UNK        -0.0205 
     16 S16         1.8161  -20.2938  -49.3323 S.3       23 UNK        -0.2404 
     17 C17         0.1072  -20.9042  -49.1852 C.3       23 UNK        -0.0398 
     18 CA         -0.0433  -22.1538  -48.2888 C.3       11 UNK         0.1400 
     19 N           0.2428  -21.8901  -46.8735 N.am      11 UNK        -0.5000 
     20 C           0.2354  -22.8237  -45.9090 C.2       10 UNK         0.5000 
     21 O           0.0694  -24.0249  -46.1205 O.2       10 UNK        -0.5000 
     22 CA          0.3720  -22.3365  -44.4560 C.3       10 UNK         0.1400 
     23 CB          1.8437  -22.0945  -44.0897 C.3       10 UNK        -0.1800 
     24 N          -0.4210  -21.1358  -44.1882 N.am      10 UNK        -0.5000 
     25 C          -1.7601  -21.0819  -44.2469 C.2       9 UNK         0.5000 
     26 O          -2.4704  -22.0582  -44.4832 O.2       9 UNK        -0.5000 
     27 CA         -2.4178  -19.7016  -44.0592 C.3       9 UNK         0.1400 
     28 CB         -2.5334  -19.3447  -42.5706 C.3       9 UNK        -0.1800 
     29 N          -1.7048  -18.6408  -44.7710 N.am      9 UNK        -0.5000 
     30 C          -1.5742  -18.5835  -46.1046 C.2       8 UNK         0.5000 
     31 O          -2.1026  -19.3819  -46.8789 O.2       8 UNK        -0.5000 
     32 CA         -0.6542  -17.4819  -46.6601 C.3       8 UNK         0.1400 
     33 CB         -1.4178  -16.1593  -46.8225 C.3       8 UNK        -0.1800 
     34 N           0.5309  -17.2778  -45.8235 N.am      8 UNK        -0.5000 
     35 C           1.4993  -18.1923  -45.6645 C.2       7 UNK         0.5000 
     36 O           1.5012  -19.2868  -46.2238 O.2       7 UNK        -0.5000 
     37 CA          2.6175  -17.8547  -44.6632 C.3       7 UNK         0.1400 
     38 CB          3.6328  -16.8844  -45.2841 C.3       7 UNK        -0.1800 
     39 N           2.0877  -17.2949  -43.4191 N.am      7 UNK        -0.5000 
     40 C           1.3496  -17.9935  -42.5411 C.2       6 UNK         0.5000 
     41 O           1.0981  -19.1900  -42.6710 O.2       6 UNK        -0.5000 
     42 CA          0.7528  -17.2356  -41.3377 C.3       6 UNK         0.1400 
     43 CB          1.6870  -17.3402  -40.1235 C.3       6 UNK        -0.1800 
     44 N           0.4814  -15.8256  -41.6099 N.am      6 UNK        -0.5000 
     45 C          -0.3137  -15.3546  -42.5805 C.2       5 UNK         0.5000 
     46 O          -1.0095  -16.0734  -43.2993 O.2       5 UNK        -0.5000 
     47 CA         -0.2742  -13.8328  -42.8298 C.3       5 UNK         0.1400 
     48 CB         -1.5132  -13.1558  -42.2271 C.3       5 UNK        -0.1800 
     49 N           0.9303  -13.1665  -42.3175 N.am      5 UNK        -0.5000 
     50 C           2.1926  -13.4297  -42.6834 C.2       4 UNK         0.5000 
     51 O           2.4911  -14.3235  -43.4782 O.2       4 UNK        -0.5000 
     52 CA          3.2912  -12.5580  -42.0379 C.3       4 UNK         0.1400 
     53 CB          4.7048  -12.9742  -42.4810 C.3       4 UNK        -0.1800 
     54 N           3.1095  -11.1397  -42.3414 N.am      4 UNK        -0.5000 
     55 C           2.2112  -10.3099  -41.7988 C.2       3 UNK         0.5000 
     56 O           1.4380  -10.6473  -40.9010 O.2       3 UNK        -0.5000 
     57 CA          2.1218   -8.8833  -42.3826 C.3       3 UNK         0.1400 
     58 CB          3.1806   -7.9517  -41.7620 C.3       3 UNK        -0.1800 
     59 N           2.1439   -8.8442  -43.8536 N.am      3 UNK        -0.5000 
     60 C           3.1492   -9.1522  -44.6843 C.2       2 UNK         0.5000 
     61 O           4.2917   -9.4339  -44.3161 O.2       2 UNK        -0.5000 
     62 CA          2.7967   -9.2461  -46.1794 C.3       2 UNK         0.1400 
     63 CB          3.6114   -8.2399  -47.0068 C.3       2 UNK        -0.1800 
     64 N           3.0499  -10.5981  -46.6782 N.am      2 UNK        -0.5000 
     65 C           2.4292  -11.7098  -46.2529 C.2       1 UNK         0.5000 
     66 O           1.4898  -11.6910  -45.4566 O.2       1 UNK        -0.5000 
     67 C          -1.4518  -22.7507  -48.4782 C.2       11 UNK         0.5000 
     68 O          -1.5858  -23.7722  -49.1500 O.2       11 UNK        -0.5000 
     69 N          -2.4673  -22.1235  -47.8660 N.am      12 UNK        -0.5000 
     70 CA         -3.8595  -22.5733  -47.9059 C.3       12 UNK         0.1400 
     71 CB         -4.7634  -21.5280  -47.2377 C.3       12 UNK        -0.1800 
     72 C          -4.0617  -23.9633  -47.2780 C.2       12 UNK         0.5000 
     73 O          -4.7863  -24.7805  -47.8462 O.2       12 UNK        -0.5000 
     74 N          -3.3920  -24.2208  -46.1465 N.am      13 UNK        -0.5000 
     75 CA         -3.3764  -25.5148  -45.4660 C.3       13 UNK         0.1400 
     76 CB         -2.6831  -25.3772  -44.1023 C.3       13 UNK        -0.1800 
     77 C          -2.7152  -26.6166  -46.3128 C.2       13 UNK         0.5000 
     78 O          -3.2924  -27.6948  -46.4546 O.2       13 UNK        -0.5000 
     79 N          -1.5454  -26.3159  -46.8960 N.am      14 UNK        -0.5000 
     80 CA         -0.8021  -27.2122  -47.7867 C.3       14 UNK         0.1400 
     81 CB          0.5719  -26.6007  -48.0992 C.3       14 UNK        -0.1800 
     82 C          -1.5606  -27.5344  -49.0880 C.2       14 UNK         0.5000 
     83 O          -1.5110  -28.6712  -49.5585 O.2       14 UNK        -0.5000 
     84 N          -2.2756  -26.5369  -49.6230 N.am      15 UNK        -0.5000 
     85 CA         -3.1415  -26.6524  -50.7960 C.3       15 UNK         0.1400 
     86 CB         -3.3721  -25.2459  -51.3686 C.3       15 UNK        -0.1800 
     87 C          -4.4914  -27.3397  -50.5070 C.2       15 UNK         0.5000 
     88 O          -5.2360  -27.5964  -51.4520 O.2       15 UNK        -0.5000 
     89 N          -4.8011  -27.5976  -49.2271 N.am      16 UNK        -0.5000 
     90 CA         -6.0493  -28.1717  -48.7138 C.3       16 UNK         0.1400 
     91 CB         -6.2028  -29.6409  -49.1598 C.3       16 UNK        -0.1800 
     92 C          -7.2799  -27.2995  -49.0440 C.2       16 UNK         0.5000 
     93 O          -8.3173  -27.8162  -49.4629 O.2       16 UNK        -0.5000 
     94 N          -7.1226  -25.9818  -48.8506 N.am      17 UNK        -0.5000 
     95 CA         -8.1055  -24.9168  -49.0760 C.3       17 UNK         0.1400 
     96 CB         -9.3247  -25.0795  -48.1437 C.3       17 UNK        -0.1800 
     97 C          -8.4967  -24.7203  -50.5575 C.2       17 UNK         0.5000 
     98 O          -9.5889  -24.2232  -50.8410 O.2       17 UNK        -0.5000 
     99 N          -7.5915  -25.0836  -51.4769 N.am      18 UNK        -0.5000 
    100 CA        -7.6907  -24.7991  -52.9098 C.3       18 UNK         0.1400 
    101 CB        -6.9261  -25.8852  -53.6898 C.3       18 UNK        -0.1800 
    102 C         -7.2010  -23.3679  -53.2348 C.2       18 UNK         0.5000 
    103 O         -7.1646  -22.5078  -52.3517 O.2       18 UNK        -0.5000 
    104 N         -6.8379  -23.1281  -54.5037 N.am      19 UNK        -0.5000 
    105 CA        -6.4001  -21.8292  -55.0293 C.3       19 UNK         0.1400 
    106 CB        -6.2504  -21.9290  -56.5549 C.3       19 UNK        -0.1800 
    107 C         -5.1008  -21.2868  -54.4013 C.2       19 UNK         0.5000 
    108 O         -4.9114  -20.0699  -54.3796 O.2       19 UNK        -0.5000 
    109 N         -4.2308  -22.1912  -53.9234 N.am      20 UNK        -0.5000 
    110 CA        -3.0310  -21.9389  -53.1089 C.3       20 UNK         0.1400 
    111 CB        -3.4546  -21.4883  -51.6966 C.3       20 UNK        -0.1800 
    112 C         -1.9858  -20.9863  -53.7323 C.2       20 UNK         0.5000 
    113 O         -1.1588  -20.4352  -53.0064 O.2       20 UNK        -0.5000 
    114 N         -2.0417  -20.8180  -55.0621 N.am      21 UNK        -0.5000 
    115 CA        -1.2658  -19.8746  -55.8746 C.3       21 UNK         0.1400 
    116 CB         0.2402  -20.2125  -55.8338 C.3       21 UNK        -0.1800 
    117 C         -1.5600  -18.3908  -55.5510 C.2       21 UNK         0.5000 
    118 O         -0.7002  -17.5373  -55.7794 O.2       21 UNK        -0.5000 
    119 N         -2.7683  -18.0993  -55.0515 N.am      22 UNK        -0.5000 
    120 CA        -3.2182  -16.7467  -54.6825 C.3       22 UNK         0.1400 
    121 C         -4.7203  -16.4639  -54.9661 C.2       22 UNK         0.5000 
    122 N         -5.5735  -17.4632  -55.1512 N.am      22 UNK        -0.7600 
    123 O         -5.1175  -15.3047  -55.0504 O.2       22 UNK        -0.5000 
    124 C124       -2.8101  -16.3646  -53.2360 C.3       23 UNK        -0.0398 
    125 S125       -3.4604  -17.5120  -51.9707 S.3       23 UNK        -0.2404 
    126 C126       -2.7317  -16.8302  -50.4487 C.3       23 UNK        -0.0205 
    127 H127        6.9023  -11.7696  -48.4142 H         1 UNK         0.0600 
    128 H128        5.8646  -12.6909  -49.5066 H         1 UNK         0.0600 
    129 H129        7.0543  -13.5274  -48.5055 H         1 UNK         0.0600 
    130 H130        3.7857  -12.8795  -48.7221 H         1 UNK         0.3000 
    131 H131        3.2823  -13.6170  -45.9368 H         1 UNK         0.0600 
    132 H132        2.1244  -14.9100  -47.6500 H         1 UNK         0.0800 
    133 H133        0.9818  -14.0479  -46.6706 H         1 UNK         0.0800 
    134 H134        2.7018  -14.4234  -50.0949 H         1 UNK         0.0800 
    135 H135        1.5204  -13.7396  -51.1824 H         1 UNK         0.0800 
    136 H136       -1.0703  -14.6809  -50.2312 H         1 UNK         0.1150 
    137 H137       -1.0258  -18.9199  -50.7894 H         1 UNK         0.1150 
    138 H138        2.6678  -16.7692  -50.4561 H         1 UNK         0.1150 
    139 H139        1.2148  -19.8669  -51.6395 H         1 UNK         0.0800 
    140 H140        2.6916  -19.0586  -51.1971 H         1 UNK         0.0800 
    141 H141       -0.2468  -21.1238  -50.1947 H         1 UNK         0.0800 
    142 H142       -0.5146  -20.0934  -48.8080 H         1 UNK         0.0800 
    143 H143        0.6725  -22.9046  -48.6297 H         1 UNK         0.0600 
    144 H144        0.4574  -20.9288  -46.6242 H         1 UNK         0.3000 
    145 H145       -0.0055  -23.1295  -43.8073 H         1 UNK         0.0600 
    146 H146        1.9492  -21.8341  -43.0365 H         1 UNK         0.0600 
    147 H147        2.4407  -22.9904  -44.2642 H         1 UNK         0.0600 
    148 H148        2.2820  -21.2893  -44.6785 H         1 UNK         0.0600 
    149 H149        0.0958  -20.3019  -43.9264 H         1 UNK         0.3000 
    150 H150       -3.4271  -19.7541  -44.4726 H         1 UNK         0.0600 
    151 H151       -3.1600  -20.0680  -42.0474 H         1 UNK         0.0600 
    152 H152       -2.9830  -18.3613  -42.4313 H         1 UNK         0.0600 
    153 H153       -1.5611  -19.3434  -42.0800 H         1 UNK         0.0600 
    154 H154       -1.2778  -17.9113  -44.2105 H         1 UNK         0.3000 
    155 H155       -0.3173  -17.8010  -47.6486 H         1 UNK         0.0600 
    156 H156       -1.7086  -15.7343  -45.8619 H         1 UNK         0.0600 
    157 H157       -0.8174  -15.4211  -47.3518 H         1 UNK         0.0600 
    158 H158       -2.3287  -16.3047  -47.4041 H         1 UNK         0.0600 
    159 H159        0.5601  -16.4360  -45.2679 H         1 UNK         0.3000 
    160 H160        3.1420  -18.7817  -44.4213 H         1 UNK         0.0600 
    161 H161        3.1673  -15.9391  -45.5586 H         1 UNK         0.0600 
    162 H162        4.0741  -17.3068  -46.1877 H         1 UNK         0.0600 
    163 H163        4.4469  -16.6670  -44.5926 H         1 UNK         0.0600 
    164 H164        2.2376  -16.3020  -43.2679 H         1 UNK         0.3000 
    165 H165       -0.1959  -17.7094  -41.0818 H         1 UNK         0.0600 
    166 H166        1.2418  -16.8797  -39.2413 H         1 UNK         0.0600 
    167 H167        1.8903  -18.3831  -39.8763 H         1 UNK         0.0600 
    168 H168        2.6455  -16.8540  -40.3103 H         1 UNK         0.0600 
    169 H169        1.0107  -15.1542  -41.0743 H         1 UNK         0.3000 
    170 H170       -0.2934  -13.6843  -43.9114 H         1 UNK         0.0600 
    171 H171       -2.4305  -13.6061  -42.6092 H         1 UNK         0.0600 
    172 H172       -1.5304  -13.2447  -41.1401 H         1 UNK         0.0600 
    173 H173       -1.5439  -12.0954  -42.4783 H         1 UNK         0.0600 
    174 H174        0.7860  -12.3948  -41.6746 H         1 UNK         0.3000 
    175 H175        3.2243  -12.6968  -40.9571 H         1 UNK         0.0600 
    176 H176        4.8413  -12.8472  -43.5559 H         1 UNK         0.0600 
    177 H177        5.4674  -12.3820  -41.9751 H         1 UNK         0.0600 
    178 H178        4.8985  -14.0216  -42.2458 H         1 UNK         0.0600 
    179 H179        3.6871  -10.7601  -43.0860 H         1 UNK         0.3000 
    180 H180        1.1435   -8.4936  -42.0968 H         1 UNK         0.0600 
    181 H181        4.1968   -8.2971  -41.9530 H         1 UNK         0.0600 
    182 H182        3.0577   -7.8956  -40.6798 H         1 UNK         0.0600 
    183 H183        3.0911   -6.9380  -42.1523 H         1 UNK         0.0600 
    184 H184        1.2395   -8.6772  -44.2732 H         1 UNK         0.3000 
    185 H185        1.7360   -9.0261  -46.3168 H         1 UNK         0.0600 
    186 H186        3.4352   -7.2201  -46.6624 H         1 UNK         0.0600 
    187 H187        4.6830   -8.4306  -46.9338 H         1 UNK         0.0600 
    188 H188        3.3344   -8.2794  -48.0605 H         1 UNK         0.0600 
    189 H189        3.8245  -10.7062  -47.3152 H         1 UNK         0.3000 
    190 H190       -2.2815  -21.2656  -47.3533 H         1 UNK         0.3000 
    191 H191       -4.1517  -22.6471  -48.9541 H         1 UNK         0.0600 
    192 H192       -4.5087  -21.3864  -46.1873 H         1 UNK         0.0600 
    193 H193       -5.8105  -21.8297  -47.2851 H         1 UNK         0.0600 
    194 H194       -4.6798  -20.5612  -47.7346 H         1 UNK         0.0600 
    195 H195       -2.8648  -23.4694  -45.7093 H         1 UNK         0.3000 
    196 H196       -4.4130  -25.8091  -45.2891 H         1 UNK         0.0600 
    197 H197       -2.6775  -26.3285  -43.5689 H         1 UNK         0.0600 
    198 H198       -3.1978  -24.6528  -43.4709 H         1 UNK         0.0600 
    199 H199       -1.6478  -25.0522  -44.2062 H         1 UNK         0.0600 
    200 H200       -1.1199  -25.4111  -46.7092 H         1 UNK         0.3000 
    201 H201       -0.6431  -28.1527  -47.2553 H         1 UNK         0.0600 
    202 H202        1.1522  -26.4507  -47.1887 H         1 UNK         0.0600 
    203 H203        0.4780  -25.6353  -48.5978 H         1 UNK         0.0600 
    204 H204        1.1527  -27.2539  -48.7516 H         1 UNK         0.0600 
    205 H205       -2.1974  -25.6099  -49.2130 H         1 UNK         0.3000 
    206 H206       -2.6257  -27.2485  -51.5513 H         1 UNK         0.0600 
    207 H207       -2.4230  -24.7571  -51.5859 H         1 UNK         0.0600 
    208 H208       -3.9368  -25.2832  -52.2994 H         1 UNK         0.0600 
    209 H209       -3.9230  -24.6145  -50.6706 H         1 UNK         0.0600 
    210 H210       -4.1285  -27.3308  -48.5192 H         1 UNK         0.3000 
    211 H211       -5.9589  -28.1677  -47.6267 H         1 UNK         0.0600 
    212 H212       -6.3510  -29.7264  -50.2366 H         1 UNK         0.0600 
    213 H213       -7.0603  -30.1079  -48.6743 H         1 UNK         0.0600 
    214 H214       -5.3221  -30.2259  -48.8947 H         1 UNK         0.0600 
    215 H215       -6.2183  -25.6576  -48.5079 H         1 UNK         0.3000 
    216 H216       -7.6018  -23.9936  -48.7859 H         1 UNK         0.0600 
    217 H217       -9.9699  -24.2014  -48.1861 H         1 UNK         0.0600 
    218 H218       -9.0139  -25.2008  -47.1060 H         1 UNK         0.0600 
    219 H219       -9.9321  -25.9428  -48.4163 H         1 UNK         0.0600 
    220 H220       -6.7306  -25.5050  -51.1598 H         1 UNK         0.3000 
    221 H221       -8.7394  -24.8545  -53.2085 H         1 UNK         0.0600 
    222 H222       -5.8492  -25.8084  -53.5437 H         1 UNK         0.0600 
    223 H223       -7.2321  -26.8827  -53.3729 H         1 UNK         0.0600 
    224 H224       -7.1215  -25.8228  -54.7606 H         1 UNK         0.0600 
    225 H225       -6.8958  -23.8829  -55.1720 H         1 UNK         0.3000 
    226 H226       -7.1870  -21.1040  -54.8118 H         1 UNK         0.0600 
    227 H227       -7.1919  -22.2115  -57.0263 H         1 UNK         0.0600 
    228 H228       -5.9507  -20.9711  -56.9827 H         1 UNK         0.0600 
    229 H229       -5.4977  -22.6655  -56.8388 H         1 UNK         0.0600 
    230 H230       -4.4739  -23.1635  -54.0444 H         1 UNK         0.3000 
    231 H231       -2.5245  -22.8988  -53.0134 H         1 UNK         0.0600 
    232 H232       -2.6024  -21.4476  -51.0186 H         1 UNK         0.0600 
    233 H233       -4.1800  -22.1788  -51.2680 H         1 UNK         0.0600 
    234 H234       -3.9102  -20.4983  -51.7118 H         1 UNK         0.0600 
    235 H235       -2.7634  -21.3236  -55.5552 H         1 UNK         0.3000 
    236 H236       -1.6021  -20.0228  -56.9016 H         1 UNK         0.0600 
    237 H237        0.4153  -21.2649  -56.0565 H         1 UNK         0.0600 
    238 H238        0.7914  -19.6302  -56.5730 H         1 UNK         0.0600 
    239 H239        0.6789  -19.9972  -54.8591 H         1 UNK         0.0600 
    240 H240       -3.4183  -18.8521  -54.8532 H         1 UNK         0.3000 
    241 H241       -2.7035  -16.0467  -55.3436 H         1 UNK         0.0600 
    242 H242       -5.3047  -18.4272  -54.9699 H         1 UNK         0.3800 
    243 H243       -6.5377  -17.2495  -55.3485 H         1 UNK         0.3800 
    244 H244       -1.7217  -16.3566  -53.1666 H         1 UNK         0.0800 
    245 H245       -3.1318  -15.3498  -52.9961 H         1 UNK         0.0800 
    246 H246       -3.0585  -17.4376  -49.6035 H         1 UNK         0.0800 
    247 H247       -3.1325  -15.8292  -50.2822 H         1 UNK         0.0800 
@<TRIPOS>BOND
     1    1    2 1    
     2    1  127 1    
     3    1  128 1    
     4    1  129 1    
     5    2    3 2    
     6    2    4 am   BACKBONE|DICT|INTERRES
     7    4    5 1    
     8    4  130 1    
     9    5    6 1    
    10    5   65 1    
    11    5  131 1    
    12    6    7 1    
    13    6  132 1    
    14    6  133 1    
    15    7    8 1    
    16    8    9 1    
    17    8  134 1    
    18    8  135 1    
    19    9   10 ar   
    20    9   14 ar   
    21   10   11 ar   
    22   10  136 1    
    23   11   12 ar   
    24   11  126 1    
    25   12   13 ar   
    26   12  137 1    
    27   13   14 ar   
    28   13   15 1    
    29   14  138 1    
    30   15   16 1    
    31   15  139 1    
    32   15  140 1    
    33   16   17 1    
    34   17   18 1    
    35   17  141 1    
    36   17  142 1    
    37   18   19 1    
    38   18   67 1    
    39   18  143 1    
    40   19   20 am   BACKBONE|DICT|INTERRES
    41   19  144 1    
    42   20   21 2    
    43   20   22 1    
    44   22   23 1    
    45   22   24 1    
    46   22  145 1    
    47   23  146 1    
    48   23  147 1    
    49   23  148 1    
    50   24   25 am   BACKBONE|DICT|INTERRES
    51   24  149 1    
    52   25   26 2    
    53   25   27 1    
    54   27   28 1    
    55   27   29 1    
    56   27  150 1    
    57   28  151 1    
    58   28  152 1    
    59   28  153 1    
    60   29   30 am   BACKBONE|DICT|INTERRES
    61   29  154 1    
    62   30   31 2    
    63   30   32 1    
    64   32   33 1    
    65   32   34 1    
    66   32  155 1    
    67   33  156 1    
    68   33  157 1    
    69   33  158 1    
    70   34   35 am   BACKBONE|DICT|INTERRES
    71   34  159 1    
    72   35   36 2    
    73   35   37 1    
    74   37   38 1    
    75   37   39 1    
    76   37  160 1    
    77   38  161 1    
    78   38  162 1    
    79   38  163 1    
    80   39   40 am   BACKBONE|DICT|INTERRES
    81   39  164 1    
    82   40   41 2    
    83   40   42 1    
    84   42   43 1    
    85   42   44 1    
    86   42  165 1    
    87   43  166 1    
    88   43  167 1    
    89   43  168 1    
    90   44   45 am   BACKBONE|DICT|INTERRES
    91   44  169 1    
    92   45   46 2    
    93   45   47 1    
    94   47   48 1    
    95   47   49 1    
    96   47  170 1    
    97   48  171 1    
    98   48  172 1    
    99   48  173 1    
   100   49   50 am   BACKBONE|DICT|INTERRES
   101   49  174 1    
   102   50   51 2    
   103   50   52 1    
   104   52   53 1    
   105   52   54 1    
   106   52  175 1    
   107   53  176 1    
   108   53  177 1    
   109   53  178 1    
   110   54   55 am   BACKBONE|DICT|INTERRES
   111   54  179 1    
   112   55   56 2    
   113   55   57 1    
   114   57   58 1    
   115   57   59 1    
   116   57  180 1    
   117   58  181 1    
   118   58  182 1    
   119   58  183 1    
   120   59   60 am   BACKBONE|DICT|INTERRES
   121   59  184 1    
   122   60   61 2    
   123   60   62 1    
   124   62   63 1    
   125   62   64 1    
   126   62  185 1    
   127   63  186 1    
   128   63  187 1    
   129   63  188 1    
   130   64   65 am   BACKBONE|DICT|INTERRES
   131   64  189 1    
   132   65   66 2    
   133   67   68 2    
   134   67   69 am   BACKBONE|DICT|INTERRES
   135   69   70 1    
   136   69  190 1    
   137   70   71 1    
   138   70   72 1    
   139   70  191 1    
   140   71  192 1    
   141   71  193 1    
   142   71  194 1    
   143   72   73 2    
   144   72   74 am   BACKBONE|DICT|INTERRES
   145   74   75 1    
   146   74  195 1    
   147   75   76 1    
   148   75   77 1    
   149   75  196 1    
   150   76  197 1    
   151   76  198 1    
   152   76  199 1    
   153   77   78 2    
   154   77   79 am   BACKBONE|DICT|INTERRES
   155   79   80 1    
   156   79  200 1    
   157   80   81 1    
   158   80   82 1    
   159   80  201 1    
   160   81  202 1    
   161   81  203 1    
   162   81  204 1    
   163   82   83 2    
   164   82   84 am   BACKBONE|DICT|INTERRES
   165   84   85 1    
   166   84  205 1    
   167   85   86 1    
   168   85   87 1    
   169   85  206 1    
   170   86  207 1    
   171   86  208 1    
   172   86  209 1    
   173   87   88 2    
   174   87   89 am   BACKBONE|DICT|INTERRES
   175   89   90 1    
   176   89  210 1    
   177   90   91 1    
   178   90   92 1    
   179   90  211 1    
   180   91  212 1    
   181   91  213 1    
   182   91  214 1    
   183   92   93 2    
   184   92   94 am   BACKBONE|DICT|INTERRES
   185   94   95 1    
   186   94  215 1    
   187   95   96 1    
   188   95   97 1    
   189   95  216 1    
   190   96  217 1    
   191   96  218 1    
   192   96  219 1    
   193   97   98 2    
   194   97   99 am   BACKBONE|DICT|INTERRES
   195   99  100 1    
   196   99  220 1    
   197  100  101 1    
   198  100  102 1    
   199  100  221 1    
   200  101  222 1    
   201  101  223 1    
   202  101  224 1    
   203  102  103 2    
   204  102  104 am   BACKBONE|DICT|INTERRES
   205  104  105 1    
   206  104  225 1    
   207  105  106 1    
   208  105  107 1    
   209  105  226 1    
   210  106  227 1    
   211  106  228 1    
   212  106  229 1    
   213  107  108 2    
   214  107  109 am   BACKBONE|DICT|INTERRES
   215  109  110 1    
   216  109  230 1    
   217  110  111 1    
   218  110  112 1    
   219  110  231 1    
   220  111  232 1    
   221  111  233 1    
   222  111  234 1    
   223  112  113 2    
   224  112  114 am   BACKBONE|DICT|INTERRES
   225  114  115 1    
   226  114  235 1    
   227  115  116 1    
   228  115  117 1    
   229  115  236 1    
   230  116  237 1    
   231  116  238 1    
   232  116  239 1    
   233  117  118 2    
   234  117  119 am   BACKBONE|DICT|INTERRES
   235  119  120 1    
   236  119  240 1    
   237  120  121 1    
   238  120  124 1    
   239  120  241 1    
   240  121  122 am   BACKBONE|DICT|INTERRES
   241  121  123 2    
   242  122  242 1    
   243  122  243 1    
   244  124  125 1    
   245  124  244 1    
   246  124  245 1    
   247  125  126 1    
   248  126  246 1    
   249  126  247 1    
@<TRIPOS>SUBSTRUCTURE
     1 UNK         1 GROUP             0       ****    0 ROOT    
