@<TRIPOS>MOLECULE
3R540
247   249    1
SMALL
USER_CHARGES


@<TRIPOS>ATOM
      1 CA          3.9211  -15.5308  -43.4439 C.3       0 UNK        -0.1800 
      2 C           3.5241  -15.0025  -44.8132 C.2       0 UNK         0.5000 
      3 O           4.3413  -14.3572  -45.4678 O.2       0 UNK        -0.5000 
      4 N           2.2773  -15.2856  -45.2217 N.am      1 UNK        -0.5000 
      5 CA          1.5836  -15.0329  -46.5007 C.3       1 UNK         0.1400 
      6 C6          1.9056  -16.0469  -47.6322 C.3       23 UNK        -0.0398 
      7 S7          3.6644  -16.1844  -48.1113 S.3       23 UNK        -0.2404 
      8 C8          3.5772  -16.1631  -49.9286 C.3       23 UNK        -0.0205 
      9 C9          2.7535  -17.3190  -50.4785 C.ar      23 UNK        -0.0193 
     10 C10         1.5583  -17.0657  -51.1550 C.ar      23 UNK        -0.1150 
     11 C11         0.7974  -18.1169  -51.6708 C.ar      23 UNK        -0.0193 
     12 C12         1.2285  -19.4343  -51.4871 C.ar      23 UNK        -0.1150 
     13 C13         2.4201  -19.7051  -50.8044 C.ar      23 UNK        -0.0193 
     14 C14         3.1855  -18.6392  -50.3179 C.ar      23 UNK        -0.1150 
     15 C15         2.8813  -21.1478  -50.6263 C.3       23 UNK        -0.0205 
     16 S16         3.3574  -21.5420  -48.9075 S.3       23 UNK        -0.2404 
     17 C17         2.9743  -23.3318  -48.8339 C.3       23 UNK        -0.0398 
     18 CA          1.7352  -23.6828  -47.9704 C.3       11 UNK         0.1400 
     19 N           1.9260  -23.3174  -46.5637 N.am      11 UNK        -0.5000 
     20 C           1.1006  -23.6250  -45.5556 C.2       10 UNK         0.5000 
     21 O           0.0629  -24.2696  -45.7019 O.2       10 UNK        -0.5000 
     22 CA          1.4572  -23.0932  -44.1569 C.3       10 UNK         0.1400 
     23 CB          2.4069  -24.0492  -43.4127 C.3       10 UNK        -0.1800 
     24 N           1.9547  -21.7142  -44.1530 N.am      10 UNK        -0.5000 
     25 C           3.1171  -21.2185  -44.6003 C.2       9 UNK         0.5000 
     26 O           3.9929  -21.8923  -45.1427 O.2       9 UNK        -0.5000 
     27 CA          3.3186  -19.7025  -44.4274 C.3       9 UNK         0.1400 
     28 CB          2.7793  -18.9559  -45.6526 C.3       9 UNK        -0.1800 
     29 N           2.6662  -19.1868  -43.2216 N.am      9 UNK        -0.5000 
     30 C           3.0988  -19.4244  -41.9742 C.2       8 UNK         0.5000 
     31 O           4.1597  -19.9921  -41.7127 O.2       8 UNK        -0.5000 
     32 CA          2.1700  -18.9906  -40.8268 C.3       8 UNK         0.1400 
     33 CB          2.4291  -17.5329  -40.4207 C.3       8 UNK        -0.1800 
     34 N           0.7589  -19.1634  -41.1765 N.am      8 UNK        -0.5000 
     35 C           0.1320  -20.3489  -41.1950 C.2       7 UNK         0.5000 
     36 O           0.6655  -21.4094  -40.8705 O.2       7 UNK        -0.5000 
     37 CA         -1.3307  -20.3612  -41.6732 C.3       7 UNK         0.1400 
     38 CB         -2.2898  -20.2136  -40.4830 C.3       7 UNK        -0.1800 
     39 N          -1.6228  -19.3165  -42.6561 N.am      7 UNK        -0.5000 
     40 C          -1.1958  -19.3196  -43.9260 C.2       6 UNK         0.5000 
     41 O          -0.5255  -20.2249  -44.4231 O.2       6 UNK        -0.5000 
     42 CA         -1.5566  -18.0878  -44.7758 C.3       6 UNK         0.1400 
     43 CB         -2.9044  -18.2990  -45.4828 C.3       6 UNK        -0.1800 
     44 N          -1.6001  -16.8390  -44.0117 N.am      6 UNK        -0.5000 
     45 C          -0.5556  -16.2882  -43.3826 C.2       5 UNK         0.5000 
     46 O           0.5751  -16.7833  -43.3840 O.2       5 UNK        -0.5000 
     47 CA         -0.8182  -14.9409  -42.6848 C.3       5 UNK         0.1400 
     48 CB          0.3270  -14.5256  -41.7458 C.3       5 UNK        -0.1800 
     49 N          -1.0139  -13.8819  -43.6705 N.am      5 UNK        -0.5000 
     50 C          -2.1441  -13.6297  -44.3446 C.2       4 UNK         0.5000 
     51 O          -3.1693  -14.3006  -44.2123 O.2       4 UNK        -0.5000 
     52 CA         -2.1135  -12.4610  -45.3545 C.3       4 UNK         0.1400 
     53 CB         -3.4105  -11.6261  -45.3344 C.3       4 UNK        -0.1800 
     54 N          -0.9158  -11.6143  -45.2408 N.am      4 UNK        -0.5000 
     55 C          -0.5851  -10.7692  -44.2494 C.2       3 UNK         0.5000 
     56 O          -1.3200  -10.5237  -43.2928 O.2       3 UNK        -0.5000 
     57 CA          0.8230  -10.1336  -44.3012 C.3       3 UNK         0.1400 
     58 CB          1.4962  -10.1546  -42.9171 C.3       3 UNK        -0.1800 
     59 N           1.7049  -10.8222  -45.2459 N.am      3 UNK        -0.5000 
     60 C           1.9168  -10.4691  -46.5199 C.2       2 UNK         0.5000 
     61 O           1.4366   -9.4644  -47.0446 O.2       2 UNK        -0.5000 
     62 CA          2.7779  -11.4349  -47.3574 C.3       2 UNK         0.1400 
     63 CB          4.2575  -11.0274  -47.3025 C.3       2 UNK        -0.1800 
     64 N           2.6512  -12.8334  -46.9344 N.am      2 UNK        -0.5000 
     65 C           1.5422  -13.5753  -47.0153 C.2       1 UNK         0.5000 
     66 O           0.4788  -13.1344  -47.4518 O.2       1 UNK        -0.5000 
     67 C           0.4320  -23.0997  -48.5588 C.2       11 UNK         0.5000 
     68 O          -0.2662  -23.7883  -49.3015 O.2       11 UNK        -0.5000 
     69 N           0.1158  -21.8528  -48.1827 N.am      12 UNK        -0.5000 
     70 CA         -1.0992  -21.1502  -48.5779 C.3       12 UNK         0.1400 
     71 CB         -0.9424  -19.6547  -48.2757 C.3       12 UNK        -0.1800 
     72 C          -2.3446  -21.7359  -47.8935 C.2       12 UNK         0.5000 
     73 O          -3.3622  -21.9241  -48.5580 O.2       12 UNK        -0.5000 
     74 N          -2.2418  -22.0592  -46.5960 N.am      13 UNK        -0.5000 
     75 CA         -3.3031  -22.7253  -45.8358 C.3       13 UNK         0.1400 
     76 CB         -2.9485  -22.7537  -44.3438 C.3       13 UNK        -0.1800 
     77 C          -3.6113  -24.1378  -46.3643 C.2       13 UNK         0.5000 
     78 O          -4.7836  -24.4799  -46.5236 O.2       13 UNK        -0.5000 
     79 N          -2.5578  -24.8995  -46.6940 N.am      14 UNK        -0.5000 
     80 CA         -2.6355  -26.2131  -47.3400 C.3       14 UNK         0.1400 
     81 CB         -1.2321  -26.8342  -47.3983 C.3       14 UNK        -0.1800 
     82 C          -3.2665  -26.1652  -48.7465 C.2       14 UNK         0.5000 
     83 O          -3.9138  -27.1293  -49.1541 O.2       14 UNK        -0.5000 
     84 N          -3.1172  -25.0271  -49.4366 N.am      15 UNK        -0.5000 
     85 CA         -3.7483  -24.7078  -50.7172 C.3       15 UNK         0.1400 
     86 CB         -2.8208  -23.7724  -51.5112 C.3       15 UNK        -0.1800 
     87 C          -5.1650  -24.1118  -50.5574 C.2       15 UNK         0.5000 
     88 O          -5.6156  -23.3881  -51.4462 O.2       15 UNK        -0.5000 
     89 N          -5.8426  -24.4196  -49.4410 N.am      16 UNK        -0.5000 
     90 CA         -7.2102  -24.0261  -49.0893 C.3       16 UNK         0.1400 
     91 CB         -8.2277  -24.6766  -50.0506 C.3       16 UNK        -0.1800 
     92 C          -7.3694  -22.4980  -48.9749 C.2       16 UNK         0.5000 
     93 O          -8.2640  -21.9173  -49.5906 O.2       16 UNK        -0.5000 
     94 N          -6.4665  -21.8782  -48.2009 N.am      17 UNK        -0.5000 
     95 CA         -6.3283  -20.4303  -47.9977 C.3       17 UNK         0.1400 
     96 CB         -7.5456  -19.8519  -47.2471 C.3       17 UNK        -0.1800 
     97 C          -6.0170  -19.7021  -49.3214 C.2       17 UNK         0.5000 
     98 O          -6.6829  -18.7310  -49.6825 O.2       17 UNK        -0.5000 
     99 N          -5.0092  -20.2354  -50.0233 N.am      18 UNK        -0.5000 
    100 CA        -4.4475  -19.8157  -51.3076 C.3       18 UNK         0.1400 
    101 CB        -3.9197  -18.3690  -51.2383 C.3       18 UNK        -0.1800 
    102 C         -5.3558  -20.0328  -52.5335 C.2       18 UNK         0.5000 
    103 O         -4.9244  -19.7168  -53.6427 O.2       18 UNK        -0.5000 
    104 N         -6.5605  -20.5914  -52.3565 N.am      19 UNK        -0.5000 
    105 CA        -7.5397  -20.8240  -53.4227 C.3       19 UNK         0.1400 
    106 CB        -8.8468  -21.3437  -52.8081 C.3       19 UNK        -0.1800 
    107 C         -7.0496  -21.7778  -54.5299 C.2       19 UNK         0.5000 
    108 O         -7.3973  -21.5804  -55.6947 O.2       19 UNK        -0.5000 
    109 N         -6.2369  -22.7730  -54.1540 N.am      20 UNK        -0.5000 
    110 CA        -5.6178  -23.7370  -55.0653 C.3       20 UNK         0.1400 
    111 CB        -5.5914  -25.1132  -54.3789 C.3       20 UNK        -0.1800 
    112 C         -4.2010  -23.3163  -55.5114 C.2       20 UNK         0.5000 
    113 O         -3.5642  -24.0695  -56.2499 O.2       20 UNK        -0.5000 
    114 N         -3.7206  -22.1515  -55.0556 N.am      21 UNK        -0.5000 
    115 CA        -2.3979  -21.6100  -55.3536 C.3       21 UNK         0.1400 
    116 CB        -1.5603  -21.5600  -54.0577 C.3       21 UNK        -0.1800 
    117 C         -2.5587  -20.2448  -56.0411 C.2       21 UNK         0.5000 
    118 O         -2.8168  -20.2027  -57.2450 O.2       21 UNK        -0.5000 
    119 N         -2.3832  -19.1618  -55.2760 N.am      22 UNK        -0.5000 
    120 CA        -2.4152  -17.7679  -55.7439 C.3       22 UNK         0.1400 
    121 C         -3.8121  -17.2622  -56.2075 C.2       22 UNK         0.5000 
    122 N         -4.9130  -17.8518  -55.7597 N.am      22 UNK        -0.7600 
    123 O         -3.8948  -16.3186  -56.9891 O.2       22 UNK        -0.5000 
    124 C124       -1.8178  -16.7957  -54.6939 C.3       23 UNK        -0.0398 
    125 S125       -0.1470  -17.2709  -54.1250 S.3       23 UNK        -0.2404 
    126 C126       -0.4889  -17.8178  -52.4219 C.3       23 UNK        -0.0205 
    127 H127        3.3232  -16.3981  -43.1712 H         1 UNK         0.0600 
    128 H128        3.7874  -14.7604  -42.6849 H         1 UNK         0.0600 
    129 H129        4.9674  -15.8364  -43.4439 H         1 UNK         0.0600 
    130 H130        1.7139  -15.8223  -44.5678 H         1 UNK         0.3000 
    131 H131        0.5434  -15.2348  -46.2385 H         1 UNK         0.0600 
    132 H132        1.5744  -17.0398  -47.3299 H         1 UNK         0.0800 
    133 H133        1.3068  -15.8155  -48.5146 H         1 UNK         0.0800 
    134 H134        4.5890  -16.2239  -50.3314 H         1 UNK         0.0800 
    135 H135        3.1742  -15.2029  -50.2545 H         1 UNK         0.0800 
    136 H136        1.2216  -16.0477  -51.2930 H         1 UNK         0.1150 
    137 H137        0.6375  -20.2488  -51.8817 H         1 UNK         0.1150 
    138 H138        4.1125  -18.8361  -49.7979 H         1 UNK         0.1150 
    139 H139        2.0874  -21.8254  -50.9436 H         1 UNK         0.0800 
    140 H140        3.7306  -21.3359  -51.2841 H         1 UNK         0.0800 
    141 H141        3.8502  -23.8381  -48.4260 H         1 UNK         0.0800 
    142 H142        2.8584  -23.7327  -49.8421 H         1 UNK         0.0800 
    143 H143        1.6248  -24.7690  -47.9932 H         1 UNK         0.0600 
    144 H144        2.7641  -22.7892  -46.3386 H         1 UNK         0.3000 
    145 H145        0.5244  -23.0602  -43.5916 H         1 UNK         0.0600 
    146 H146        2.6142  -23.6891  -42.4048 H         1 UNK         0.0600 
    147 H147        1.9622  -25.0407  -43.3194 H         1 UNK         0.0600 
    148 H148        3.3588  -24.1684  -43.9305 H         1 UNK         0.0600 
    149 H149        1.2689  -21.0370  -43.8401 H         1 UNK         0.3000 
    150 H150        4.3916  -19.5128  -44.3548 H         1 UNK         0.0600 
    151 H151        3.2223  -19.3351  -46.5747 H         1 UNK         0.0600 
    152 H152        3.0269  -17.8989  -45.5908 H         1 UNK         0.0600 
    153 H153        1.6966  -19.0485  -45.7433 H         1 UNK         0.0600 
    154 H154        1.8054  -18.6696  -43.3459 H         1 UNK         0.3000 
    155 H155        2.3950  -19.6207  -39.9634 H         1 UNK         0.0600 
    156 H156        2.1943  -16.8415  -41.2274 H         1 UNK         0.0600 
    157 H157        3.4757  -17.3817  -40.1537 H         1 UNK         0.0600 
    158 H158        1.8286  -17.2528  -39.5552 H         1 UNK         0.0600 
    159 H159        0.2636  -18.3422  -41.4910 H         1 UNK         0.3000 
    160 H160       -1.5098  -21.3336  -42.1348 H         1 UNK         0.0600 
    161 H161       -3.3287  -20.3009  -40.8015 H         1 UNK         0.0600 
    162 H162       -2.1127  -20.9923  -39.7398 H         1 UNK         0.0600 
    163 H163       -2.1698  -19.2507  -39.9849 H         1 UNK         0.0600 
    164 H164       -2.1776  -18.5352  -42.3390 H         1 UNK         0.3000 
    165 H165       -0.7793  -17.9755  -45.5331 H         1 UNK         0.0600 
    166 H166       -3.1050  -17.4979  -46.1945 H         1 UNK         0.0600 
    167 H167       -2.9194  -19.2371  -46.0379 H         1 UNK         0.0600 
    168 H168       -3.7306  -18.3303  -44.7715 H         1 UNK         0.0600 
    169 H169       -2.4734  -16.3239  -44.0193 H         1 UNK         0.3000 
    170 H170       -1.7237  -15.0441  -42.0832 H         1 UNK         0.0600 
    171 H171        0.4609  -15.2585  -40.9502 H         1 UNK         0.0600 
    172 H172        1.2756  -14.4286  -42.2743 H         1 UNK         0.0600 
    173 H173        0.1145  -13.5695  -41.2667 H         1 UNK         0.0600 
    174 H174       -0.2216  -13.2859  -43.8501 H         1 UNK         0.3000 
    175 H175       -2.0496  -12.9277  -46.3383 H         1 UNK         0.0600 
    176 H176       -3.3605  -10.8012  -46.0451 H         1 UNK         0.0600 
    177 H177       -4.2707  -12.2374  -45.6094 H         1 UNK         0.0600 
    178 H178       -3.6143  -11.2097  -44.3478 H         1 UNK         0.0600 
    179 H179       -0.2448  -11.7467  -45.9887 H         1 UNK         0.3000 
    180 H180        0.6965   -9.0915  -44.6015 H         1 UNK         0.0600 
    181 H181        1.5997  -11.1707  -42.5342 H         1 UNK         0.0600 
    182 H182        0.9183   -9.5854  -42.1879 H         1 UNK         0.0600 
    183 H183        2.4901   -9.7082  -42.9561 H         1 UNK         0.0600 
    184 H184        2.1547  -11.6622  -44.9124 H         1 UNK         0.3000 
    185 H185        2.4402  -11.3653  -48.3935 H         1 UNK         0.0600 
    186 H186        4.3925   -9.9959  -47.6305 H         1 UNK         0.0600 
    187 H187        4.6590  -11.1078  -46.2915 H         1 UNK         0.0600 
    188 H188        4.8632  -11.6577  -47.9539 H         1 UNK         0.0600 
    189 H189        3.4738  -13.2769  -46.5247 H         1 UNK         0.3000 
    190 H190        0.7581  -21.3600  -47.5802 H         1 UNK         0.3000 
    191 H191       -1.2289  -21.2637  -49.6563 H         1 UNK         0.0600 
    192 H192       -0.6833  -19.4899  -47.2318 H         1 UNK         0.0600 
    193 H193       -1.8626  -19.1081  -48.4850 H         1 UNK         0.0600 
    194 H194       -0.1538  -19.2113  -48.8838 H         1 UNK         0.0600 
    195 H195       -1.3745  -21.8794  -46.1096 H         1 UNK         0.3000 
    196 H196       -4.2137  -22.1330  -45.9458 H         1 UNK         0.0600 
    197 H197       -3.6837  -23.3245  -43.7750 H         1 UNK         0.0600 
    198 H198       -2.9417  -21.7453  -43.9343 H         1 UNK         0.0600 
    199 H199       -1.9716  -23.2026  -44.1645 H         1 UNK         0.0600 
    200 H200       -1.6235  -24.5576  -46.4802 H         1 UNK         0.3000 
    201 H201       -3.2663  -26.8515  -46.7183 H         1 UNK         0.0600 
    202 H202       -0.8053  -26.9388  -46.4006 H         1 UNK         0.0600 
    203 H203       -0.5487  -26.2268  -47.9921 H         1 UNK         0.0600 
    204 H204       -1.2620  -27.8286  -47.8455 H         1 UNK         0.0600 
    205 H205       -2.5498  -24.2944  -49.0308 H         1 UNK         0.3000 
    206 H206       -3.8592  -25.6279  -51.2937 H         1 UNK         0.0600 
    207 H207       -1.8332  -24.2148  -51.6419 H         1 UNK         0.0600 
    208 H208       -3.2189  -23.5759  -52.5063 H         1 UNK         0.0600 
    209 H209       -2.6928  -22.8121  -51.0132 H         1 UNK         0.0600 
    210 H210       -5.3623  -24.9695  -48.7414 H         1 UNK         0.3000 
    211 H211       -7.3988  -24.4272  -48.0925 H         1 UNK         0.0600 
    212 H212       -8.1101  -24.3188  -51.0734 H         1 UNK         0.0600 
    213 H213       -9.2508  -24.4573  -49.7434 H         1 UNK         0.0600 
    214 H214       -8.1184  -25.7610  -50.0625 H         1 UNK         0.0600 
    215 H215       -5.7373  -22.4497  -47.7958 H         1 UNK         0.3000 
    216 H216       -5.4550  -20.2896  -47.3590 H         1 UNK         0.0600 
    217 H217       -7.3851  -18.8021  -46.9991 H         1 UNK         0.0600 
    218 H218       -7.7199  -20.3833  -46.3116 H         1 UNK         0.0600 
    219 H219       -8.4581  -19.9096  -47.8409 H         1 UNK         0.0600 
    220 H220       -4.5360  -21.0306  -49.5973 H         1 UNK         0.3000 
    221 H221       -3.5876  -20.4663  -51.4670 H         1 UNK         0.0600 
    222 H222       -4.7203  -17.6497  -51.0672 H         1 UNK         0.0600 
    223 H223       -3.1860  -18.2528  -50.4411 H         1 UNK         0.0600 
    224 H224       -3.4353  -18.0849  -52.1709 H         1 UNK         0.0600 
    225 H225       -6.8298  -20.8733  -51.4236 H         1 UNK         0.3000 
    226 H226       -7.7454  -19.8593  -53.8908 H         1 UNK         0.0600 
    227 H227       -9.6141  -21.4753  -53.5720 H         1 UNK         0.0600 
    228 H228       -8.7020  -22.3068  -52.3182 H         1 UNK         0.0600 
    229 H229       -9.2399  -20.6471  -52.0673 H         1 UNK         0.0600 
    230 H230       -6.0146  -22.8775  -53.1646 H         1 UNK         0.3000 
    231 H231       -6.2241  -23.8298  -55.9685 H         1 UNK         0.0600 
    232 H232       -6.5846  -25.4036  -54.0358 H         1 UNK         0.0600 
    233 H233       -4.9239  -25.1210  -53.5183 H         1 UNK         0.0600 
    234 H234       -5.2466  -25.8870  -55.0657 H         1 UNK         0.0600 
    235 H235       -4.3362  -21.5473  -54.5240 H         1 UNK         0.3000 
    236 H236       -1.8661  -22.2467  -56.0635 H         1 UNK         0.0600 
    237 H237       -0.6080  -21.0529  -54.2203 H         1 UNK         0.0600 
    238 H238       -2.0805  -21.0483  -53.2486 H         1 UNK         0.0600 
    239 H239       -1.3249  -22.5668  -53.7142 H         1 UNK         0.0600 
    240 H240       -2.1986  -19.2929  -54.2952 H         1 UNK         0.3000 
    241 H241       -1.7730  -17.7231  -56.6257 H         1 UNK         0.0600 
    242 H242       -4.8575  -18.6019  -55.0731 H         1 UNK         0.3800 
    243 H243       -5.8131  -17.5237  -56.0692 H         1 UNK         0.3800 
    244 H244       -1.7405  -15.7930  -55.1182 H         1 UNK         0.0800 
    245 H245       -2.4850  -16.7018  -53.8364 H         1 UNK         0.0800 
    246 H246       -1.0438  -17.0428  -51.8907 H         1 UNK         0.0800 
    247 H247       -1.1256  -18.7022  -52.4435 H         1 UNK         0.0800 
@<TRIPOS>BOND
     1    1    2 1    
     2    1  127 1    
     3    1  128 1    
     4    1  129 1    
     5    2    3 2    
     6    2    4 am   BACKBONE|DICT|INTERRES
     7    4    5 1    
     8    4  130 1    
     9    5    6 1    
    10    5   65 1    
    11    5  131 1    
    12    6    7 1    
    13    6  132 1    
    14    6  133 1    
    15    7    8 1    
    16    8    9 1    
    17    8  134 1    
    18    8  135 1    
    19    9   10 ar   
    20    9   14 ar   
    21   10   11 ar   
    22   10  136 1    
    23   11   12 ar   
    24   11  126 1    
    25   12   13 ar   
    26   12  137 1    
    27   13   14 ar   
    28   13   15 1    
    29   14  138 1    
    30   15   16 1    
    31   15  139 1    
    32   15  140 1    
    33   16   17 1    
    34   17   18 1    
    35   17  141 1    
    36   17  142 1    
    37   18   19 1    
    38   18   67 1    
    39   18  143 1    
    40   19   20 am   BACKBONE|DICT|INTERRES
    41   19  144 1    
    42   20   21 2    
    43   20   22 1    
    44   22   23 1    
    45   22   24 1    
    46   22  145 1    
    47   23  146 1    
    48   23  147 1    
    49   23  148 1    
    50   24   25 am   BACKBONE|DICT|INTERRES
    51   24  149 1    
    52   25   26 2    
    53   25   27 1    
    54   27   28 1    
    55   27   29 1    
    56   27  150 1    
    57   28  151 1    
    58   28  152 1    
    59   28  153 1    
    60   29   30 am   BACKBONE|DICT|INTERRES
    61   29  154 1    
    62   30   31 2    
    63   30   32 1    
    64   32   33 1    
    65   32   34 1    
    66   32  155 1    
    67   33  156 1    
    68   33  157 1    
    69   33  158 1    
    70   34   35 am   BACKBONE|DICT|INTERRES
    71   34  159 1    
    72   35   36 2    
    73   35   37 1    
    74   37   38 1    
    75   37   39 1    
    76   37  160 1    
    77   38  161 1    
    78   38  162 1    
    79   38  163 1    
    80   39   40 am   BACKBONE|DICT|INTERRES
    81   39  164 1    
    82   40   41 2    
    83   40   42 1    
    84   42   43 1    
    85   42   44 1    
    86   42  165 1    
    87   43  166 1    
    88   43  167 1    
    89   43  168 1    
    90   44   45 am   BACKBONE|DICT|INTERRES
    91   44  169 1    
    92   45   46 2    
    93   45   47 1    
    94   47   48 1    
    95   47   49 1    
    96   47  170 1    
    97   48  171 1    
    98   48  172 1    
    99   48  173 1    
   100   49   50 am   BACKBONE|DICT|INTERRES
   101   49  174 1    
   102   50   51 2    
   103   50   52 1    
   104   52   53 1    
   105   52   54 1    
   106   52  175 1    
   107   53  176 1    
   108   53  177 1    
   109   53  178 1    
   110   54   55 am   BACKBONE|DICT|INTERRES
   111   54  179 1    
   112   55   56 2    
   113   55   57 1    
   114   57   58 1    
   115   57   59 1    
   116   57  180 1    
   117   58  181 1    
   118   58  182 1    
   119   58  183 1    
   120   59   60 am   BACKBONE|DICT|INTERRES
   121   59  184 1    
   122   60   61 2    
   123   60   62 1    
   124   62   63 1    
   125   62   64 1    
   126   62  185 1    
   127   63  186 1    
   128   63  187 1    
   129   63  188 1    
   130   64   65 am   BACKBONE|DICT|INTERRES
   131   64  189 1    
   132   65   66 2    
   133   67   68 2    
   134   67   69 am   BACKBONE|DICT|INTERRES
   135   69   70 1    
   136   69  190 1    
   137   70   71 1    
   138   70   72 1    
   139   70  191 1    
   140   71  192 1    
   141   71  193 1    
   142   71  194 1    
   143   72   73 2    
   144   72   74 am   BACKBONE|DICT|INTERRES
   145   74   75 1    
   146   74  195 1    
   147   75   76 1    
   148   75   77 1    
   149   75  196 1    
   150   76  197 1    
   151   76  198 1    
   152   76  199 1    
   153   77   78 2    
   154   77   79 am   BACKBONE|DICT|INTERRES
   155   79   80 1    
   156   79  200 1    
   157   80   81 1    
   158   80   82 1    
   159   80  201 1    
   160   81  202 1    
   161   81  203 1    
   162   81  204 1    
   163   82   83 2    
   164   82   84 am   BACKBONE|DICT|INTERRES
   165   84   85 1    
   166   84  205 1    
   167   85   86 1    
   168   85   87 1    
   169   85  206 1    
   170   86  207 1    
   171   86  208 1    
   172   86  209 1    
   173   87   88 2    
   174   87   89 am   BACKBONE|DICT|INTERRES
   175   89   90 1    
   176   89  210 1    
   177   90   91 1    
   178   90   92 1    
   179   90  211 1    
   180   91  212 1    
   181   91  213 1    
   182   91  214 1    
   183   92   93 2    
   184   92   94 am   BACKBONE|DICT|INTERRES
   185   94   95 1    
   186   94  215 1    
   187   95   96 1    
   188   95   97 1    
   189   95  216 1    
   190   96  217 1    
   191   96  218 1    
   192   96  219 1    
   193   97   98 2    
   194   97   99 am   BACKBONE|DICT|INTERRES
   195   99  100 1    
   196   99  220 1    
   197  100  101 1    
   198  100  102 1    
   199  100  221 1    
   200  101  222 1    
   201  101  223 1    
   202  101  224 1    
   203  102  103 2    
   204  102  104 am   BACKBONE|DICT|INTERRES
   205  104  105 1    
   206  104  225 1    
   207  105  106 1    
   208  105  107 1    
   209  105  226 1    
   210  106  227 1    
   211  106  228 1    
   212  106  229 1    
   213  107  108 2    
   214  107  109 am   BACKBONE|DICT|INTERRES
   215  109  110 1    
   216  109  230 1    
   217  110  111 1    
   218  110  112 1    
   219  110  231 1    
   220  111  232 1    
   221  111  233 1    
   222  111  234 1    
   223  112  113 2    
   224  112  114 am   BACKBONE|DICT|INTERRES
   225  114  115 1    
   226  114  235 1    
   227  115  116 1    
   228  115  117 1    
   229  115  236 1    
   230  116  237 1    
   231  116  238 1    
   232  116  239 1    
   233  117  118 2    
   234  117  119 am   BACKBONE|DICT|INTERRES
   235  119  120 1    
   236  119  240 1    
   237  120  121 1    
   238  120  124 1    
   239  120  241 1    
   240  121  122 am   BACKBONE|DICT|INTERRES
   241  121  123 2    
   242  122  242 1    
   243  122  243 1    
   244  124  125 1    
   245  124  244 1    
   246  124  245 1    
   247  125  126 1    
   248  126  246 1    
   249  126  247 1    
@<TRIPOS>SUBSTRUCTURE
     1 UNK         1 GROUP             0       ****    0 ROOT    
