@<TRIPOS>MOLECULE
3R540
247   249    1
SMALL
USER_CHARGES


@<TRIPOS>ATOM
      1 CA         -1.2937   -8.4298  -46.9971 C.3       0 UNK        -0.1800 
      2 C          -0.4285   -9.6793  -47.0772 C.2       0 UNK         0.5000 
      3 O           0.6133   -9.7444  -46.4273 O.2       0 UNK        -0.5000 
      4 N          -0.8583  -10.6721  -47.8666 N.am      1 UNK        -0.5000 
      5 CA         -0.1724  -11.9548  -48.0697 C.3       1 UNK         0.1400 
      6 C6         -0.8299  -12.7420  -49.2308 C.3       23 UNK        -0.0398 
      7 S7          0.1283  -14.1818  -49.8211 S.3       23 UNK        -0.2404 
      8 C8         -0.7814  -15.5617  -49.0556 C.3       23 UNK        -0.0205 
      9 C9         -0.7478  -16.8037  -49.9326 C.ar      23 UNK        -0.0193 
     10 C10        -1.7603  -17.0210  -50.8707 C.ar      23 UNK        -0.1150 
     11 C11        -1.7427  -18.1537  -51.6890 C.ar      23 UNK        -0.0193 
     12 C12        -0.7019  -19.0790  -51.5601 C.ar      23 UNK        -0.1150 
     13 C13         0.3203  -18.8715  -50.6268 C.ar      23 UNK        -0.0193 
     14 C14         0.2887  -17.7332  -49.8132 C.ar      23 UNK        -0.1150 
     15 C15         1.4866  -19.8473  -50.5343 C.3       23 UNK        -0.0205 
     16 S16         1.0476  -21.4156  -49.7195 S.3       23 UNK        -0.2404 
     17 C17         0.7590  -20.8842  -47.9978 C.3       23 UNK        -0.0398 
     18 CA         -0.5382  -21.4687  -47.3924 C.3       11 UNK         0.1400 
     19 N          -0.5825  -21.3030  -45.9377 N.am      11 UNK        -0.5000 
     20 C          -1.5044  -21.8475  -45.1307 C.2       10 UNK         0.5000 
     21 O          -2.3901  -22.6082  -45.5188 O.2       10 UNK        -0.5000 
     22 CA         -1.4687  -21.4236  -43.6514 C.3       10 UNK         0.1400 
     23 CB         -0.4040  -22.2134  -42.8762 C.3       10 UNK        -0.1800 
     24 N          -1.2355  -19.9876  -43.4936 N.am      10 UNK        -0.5000 
     25 C          -2.0753  -19.0338  -43.9214 C.2       9 UNK         0.5000 
     26 O          -3.1746  -19.2694  -44.4229 O.2       9 UNK        -0.5000 
     27 CA         -1.5817  -17.5781  -43.8233 C.3       9 UNK         0.1400 
     28 CB         -1.7692  -17.0298  -42.4017 C.3       9 UNK        -0.1800 
     29 N          -0.1827  -17.4328  -44.2313 N.am      9 UNK        -0.5000 
     30 C           0.2704  -17.6776  -45.4692 C.2       8 UNK         0.5000 
     31 O          -0.4588  -17.9723  -46.4124 O.2       8 UNK        -0.5000 
     32 CA          1.7925  -17.6534  -45.6827 C.3       8 UNK         0.1400 
     33 CB          2.2861  -16.2375  -45.9972 C.3       8 UNK        -0.1800 
     34 N           2.5095  -18.1885  -44.5268 N.am      8 UNK        -0.5000 
     35 C           2.5449  -19.4898  -44.2083 C.2       7 UNK         0.5000 
     36 O           2.0095  -20.3693  -44.8825 O.2       7 UNK        -0.5000 
     37 CA          3.2594  -19.8638  -42.8966 C.3       7 UNK         0.1400 
     38 CB          4.7724  -19.9975  -43.1231 C.3       7 UNK        -0.1800 
     39 N           3.0111  -18.8945  -41.8280 N.am      7 UNK        -0.5000 
     40 C           1.8154  -18.6895  -41.2576 C.2       6 UNK         0.5000 
     41 O           0.8085  -19.3382  -41.5381 O.2       6 UNK        -0.5000 
     42 CA          1.7161  -17.5354  -40.2414 C.3       6 UNK         0.1400 
     43 CB          2.0332  -18.0358  -38.8248 C.3       6 UNK        -0.1800 
     44 N           2.5835  -16.3968  -40.5587 N.am      6 UNK        -0.5000 
     45 C           2.5076  -15.6623  -41.6759 C.2       5 UNK         0.5000 
     46 O           1.6902  -15.8718  -42.5740 O.2       5 UNK        -0.5000 
     47 CA          3.5207  -14.5117  -41.8082 C.3       5 UNK         0.1400 
     48 CB          3.9817  -14.3172  -43.2623 C.3       5 UNK        -0.1800 
     49 N           2.9511  -13.2585  -41.3286 N.am      5 UNK        -0.5000 
     50 C           2.7414  -12.9232  -40.0522 C.2       4 UNK         0.5000 
     51 O           3.0516  -13.6445  -39.1030 O.2       4 UNK        -0.5000 
     52 CA          2.0807  -11.5554  -39.7772 C.3       4 UNK         0.1400 
     53 CB          3.1325  -10.4298  -39.7585 C.3       4 UNK        -0.1800 
     54 N           0.9493  -11.2124  -40.6542 N.am      4 UNK        -0.5000 
     55 C           0.9381  -10.9777  -41.9740 C.2       3 UNK         0.5000 
     56 O           1.9337  -11.0353  -42.6989 O.2       3 UNK        -0.5000 
     57 CA         -0.4261  -10.6241  -42.5910 C.3       3 UNK         0.1400 
     58 CB         -0.4486   -9.1686  -43.0815 C.3       3 UNK        -0.1800 
     59 N          -0.7479  -11.5201  -43.7007 N.am      3 UNK        -0.5000 
     60 C          -1.0838  -12.8095  -43.5522 C.2       2 UNK         0.5000 
     61 O          -1.1784  -13.3529  -42.4515 O.2       2 UNK        -0.5000 
     62 CA         -1.4084  -13.6250  -44.8213 C.3       2 UNK         0.1400 
     63 CB         -2.8529  -14.1518  -44.7758 C.3       2 UNK        -0.1800 
     64 N          -1.2454  -12.8613  -46.0601 N.am      2 UNK        -0.5000 
     65 C          -0.1116  -12.7859  -46.7687 C.2       1 UNK         0.5000 
     66 O           0.9454  -13.3121  -46.4260 O.2       1 UNK        -0.5000 
     67 C          -1.8101  -20.9203  -48.0748 C.2       11 UNK         0.5000 
     68 O          -2.3788  -21.6126  -48.9148 O.2       11 UNK        -0.5000 
     69 N          -2.2725  -19.7318  -47.6618 N.am      12 UNK        -0.5000 
     70 CA         -3.5052  -19.1069  -48.1451 C.3       12 UNK         0.1400 
     71 CB         -3.6283  -17.6905  -47.5630 C.3       12 UNK        -0.1800 
     72 C          -4.7680  -19.9275  -47.8217 C.2       12 UNK         0.5000 
     73 O          -5.6736  -20.0030  -48.6521 O.2       12 UNK        -0.5000 
     74 N          -4.8037  -20.5296  -46.6248 N.am      13 UNK        -0.5000 
     75 CA         -5.8812  -21.4097  -46.1751 C.3       13 UNK         0.1400 
     76 CB         -5.7663  -21.6241  -44.6579 C.3       13 UNK        -0.1800 
     77 C          -5.8944  -22.7559  -46.9237 C.2       13 UNK         0.5000 
     78 O          -6.9646  -23.2209  -47.3179 O.2       13 UNK        -0.5000 
     79 N          -4.7100  -23.3551  -47.1037 N.am      14 UNK        -0.5000 
     80 CA         -4.5122  -24.6203  -47.8121 C.3       14 UNK         0.1400 
     81 CB         -3.1148  -25.1564  -47.4769 C.3       14 UNK        -0.1800 
     82 C          -4.6960  -24.4984  -49.3363 C.2       14 UNK         0.5000 
     83 O          -5.2171  -25.4248  -49.9599 O.2       14 UNK        -0.5000 
     84 N          -4.2641  -23.3640  -49.9033 N.am      15 UNK        -0.5000 
     85 CA         -4.3180  -22.9858  -51.3139 C.3       15 UNK         0.1400 
     86 CB         -5.7723  -22.6503  -51.7131 C.3       15 UNK        -0.1800 
     87 C          -3.6344  -24.0402  -52.2049 C.2       15 UNK         0.5000 
     88 O          -2.4283  -24.2562  -52.0684 O.2       15 UNK        -0.5000 
     89 N          -4.4198  -24.7175  -53.0534 N.am      16 UNK        -0.5000 
     90 CA         -3.9889  -25.7686  -53.9774 C.3       16 UNK         0.1400 
     91 CB         -5.2001  -26.2122  -54.8114 C.3       16 UNK        -0.1800 
     92 C          -3.3227  -26.9891  -53.3060 C.2       16 UNK         0.5000 
     93 O          -2.6005  -27.7250  -53.9791 O.2       16 UNK        -0.5000 
     94 N          -3.5689  -27.1919  -52.0034 N.am      17 UNK        -0.5000 
     95 CA         -2.9343  -28.2408  -51.2060 C.3       17 UNK         0.1400 
     96 CB         -3.8261  -28.5642  -49.9972 C.3       17 UNK        -0.1800 
     97 C          -1.5038  -27.8821  -50.7514 C.2       17 UNK         0.5000 
     98 O          -0.7621  -28.7921  -50.3780 O.2       17 UNK        -0.5000 
     99 N          -1.1378  -26.5914  -50.7745 N.am      18 UNK        -0.5000 
    100 CA         0.1759  -26.0958  -50.3541 C.3       18 UNK         0.1400 
    101 CB        -0.0032  -25.0173  -49.2754 C.3       18 UNK        -0.1800 
    102 C          0.9944  -25.5412  -51.5294 C.2       18 UNK         0.5000 
    103 O          2.2011  -25.7834  -51.5863 O.2       18 UNK        -0.5000 
    104 N          0.3428  -24.8104  -52.4393 N.am      19 UNK        -0.5000 
    105 CA         0.9647  -24.1595  -53.5878 C.3       19 UNK         0.1400 
    106 CB         1.5345  -22.7881  -53.1631 C.3       19 UNK        -0.1800 
    107 C         -0.0566  -24.0948  -54.7351 C.2       19 UNK         0.5000 
    108 O         -0.7209  -25.0950  -55.0098 O.2       19 UNK        -0.5000 
    109 N         -0.1634  -22.9373  -55.3966 N.am      20 UNK        -0.5000 
    110 CA        -1.1941  -22.6434  -56.3889 C.3       20 UNK         0.1400 
    111 CB        -0.7227  -21.4622  -57.2516 C.3       20 UNK        -0.1800 
    112 C         -2.5308  -22.3067  -55.7043 C.2       20 UNK         0.5000 
    113 O         -2.5390  -21.8499  -54.5585 O.2       20 UNK        -0.5000 
    114 N         -3.6358  -22.5018  -56.4348 N.am      21 UNK        -0.5000 
    115 CA        -4.9779  -22.0990  -56.0162 C.3       21 UNK         0.1400 
    116 CB        -6.0078  -22.6450  -57.0171 C.3       21 UNK        -0.1800 
    117 C         -5.0830  -20.5659  -55.9038 C.2       21 UNK         0.5000 
    118 O         -4.6843  -19.8608  -56.8340 O.2       21 UNK        -0.5000 
    119 N         -5.6042  -20.0845  -54.7708 N.am      22 UNK        -0.5000 
    120 CA        -5.6845  -18.6518  -54.4393 C.3       22 UNK         0.1400 
    121 C         -6.8739  -17.8951  -55.1017 C.2       22 UNK         0.5000 
    122 N         -7.7987  -18.5642  -55.7796 N.am      22 UNK        -0.7600 
    123 O         -6.9547  -16.6736  -55.0061 O.2       22 UNK        -0.5000 
    124 C124       -5.6591  -18.4088  -52.9065 C.3       23 UNK        -0.0398 
    125 S125       -4.2727  -19.2175  -52.0337 S.3       23 UNK        -0.2404 
    126 C126       -2.8346  -18.3490  -52.7295 C.3       23 UNK        -0.0205 
    127 H127       -0.7219   -7.5574  -47.3134 H         1 UNK         0.0600 
    128 H128       -1.6251   -8.2672  -45.9717 H         1 UNK         0.0600 
    129 H129       -2.1768   -8.5058  -47.6318 H         1 UNK         0.0600 
    130 H130       -1.7202  -10.5478  -48.3789 H         1 UNK         0.3000 
    131 H131        0.8561  -11.7264  -48.3583 H         1 UNK         0.0600 
    132 H132       -1.8477  -13.0382  -48.9733 H         1 UNK         0.0800 
    133 H133       -0.9355  -12.0804  -50.0918 H         1 UNK         0.0800 
    134 H134       -0.3559  -15.7763  -48.0746 H         1 UNK         0.0800 
    135 H135       -1.8193  -15.2783  -48.8806 H         1 UNK         0.0800 
    136 H136       -2.5618  -16.3025  -50.9697 H         1 UNK         0.1150 
    137 H137       -0.6814  -19.9556  -52.1929 H         1 UNK         0.1150 
    138 H138        1.0761  -17.5605  -49.0934 H         1 UNK         0.1150 
    139 H139        1.8443  -20.0672  -51.5410 H         1 UNK         0.0800 
    140 H140        2.3289  -19.3947  -50.0087 H         1 UNK         0.0800 
    141 H141        1.6198  -21.2169  -47.4167 H         1 UNK         0.0800 
    142 H142        0.7558  -19.7975  -47.9324 H         1 UNK         0.0800 
    143 H143       -0.5231  -22.5460  -47.5704 H         1 UNK         0.0600 
    144 H144        0.1476  -20.7321  -45.5248 H         1 UNK         0.3000 
    145 H145       -2.4437  -21.6530  -43.2167 H         1 UNK         0.0600 
    146 H146       -0.4234  -21.9629  -41.8154 H         1 UNK         0.0600 
    147 H147       -0.5766  -23.2870  -42.9609 H         1 UNK         0.0600 
    148 H148        0.6006  -22.0119  -43.2477 H         1 UNK         0.0600 
    149 H149       -0.3789  -19.7121  -43.0219 H         1 UNK         0.3000 
    150 H150       -2.1866  -16.9783  -44.5051 H         1 UNK         0.0600 
    151 H151       -2.8261  -17.0005  -42.1346 H         1 UNK         0.0600 
    152 H152       -1.3810  -16.0158  -42.3131 H         1 UNK         0.0600 
    153 H153       -1.2627  -17.6452  -41.6592 H         1 UNK         0.0600 
    154 H154        0.4783  -17.1280  -43.5236 H         1 UNK         0.3000 
    155 H155        2.0221  -18.2815  -46.5455 H         1 UNK         0.0600 
    156 H156        3.3699  -16.2066  -46.1080 H         1 UNK         0.0600 
    157 H157        2.0046  -15.5321  -45.2162 H         1 UNK         0.0600 
    158 H158        1.8541  -15.8770  -46.9312 H         1 UNK         0.0600 
    159 H159        2.9135  -17.5165  -43.8915 H         1 UNK         0.3000 
    160 H160        2.8750  -20.8335  -42.5730 H         1 UNK         0.0600 
    161 H161        5.2215  -19.0509  -43.4262 H         1 UNK         0.0600 
    162 H162        4.9862  -20.7277  -43.9047 H         1 UNK         0.0600 
    163 H163        5.2780  -20.3348  -42.2180 H         1 UNK         0.0600 
    164 H164        3.7896  -18.3229  -41.5350 H         1 UNK         0.3000 
    165 H165        0.6855  -17.1758  -40.2523 H         1 UNK         0.0600 
    166 H166        3.0646  -18.3802  -38.7402 H         1 UNK         0.0600 
    167 H167        1.8795  -17.2495  -38.0853 H         1 UNK         0.0600 
    168 H168        1.3846  -18.8691  -38.5508 H         1 UNK         0.0600 
    169 H169        3.2469  -16.1229  -39.8470 H         1 UNK         0.3000 
    170 H170        4.4009  -14.7530  -41.2086 H         1 UNK         0.0600 
    171 H171        4.3532  -15.2503  -43.6874 H         1 UNK         0.0600 
    172 H172        3.1698  -13.9612  -43.8978 H         1 UNK         0.0600 
    173 H173        4.7901  -13.5883  -43.3219 H         1 UNK         0.0600 
    174 H174        2.6532  -12.5902  -42.0352 H         1 UNK         0.3000 
    175 H175        1.6585  -11.6176  -38.7729 H         1 UNK         0.0600 
    176 H176        2.6835   -9.4751  -39.4844 H         1 UNK         0.0600 
    177 H177        3.9152  -10.6419  -39.0291 H         1 UNK         0.0600 
    178 H178        3.6173  -10.3069  -40.7274 H         1 UNK         0.0600 
    179 H179        0.0584  -11.1793  -40.1780 H         1 UNK         0.3000 
    180 H180       -1.2026  -10.7316  -41.8303 H         1 UNK         0.0600 
    181 H181       -1.4195   -8.9083  -43.5031 H         1 UNK         0.0600 
    182 H182       -0.2559   -8.4787  -42.2590 H         1 UNK         0.0600 
    183 H183        0.3101   -8.9870  -43.8434 H         1 UNK         0.0600 
    184 H184       -0.6149  -11.1569  -44.6332 H         1 UNK         0.3000 
    185 H185       -0.7352  -14.4854  -44.8294 H         1 UNK         0.0600 
    186 H186       -3.0601  -14.8043  -45.6245 H         1 UNK         0.0600 
    187 H187       -3.0367  -14.7308  -43.8704 H         1 UNK         0.0600 
    188 H188       -3.5782  -13.3376  -44.7925 H         1 UNK         0.0600 
    189 H189       -2.0597  -12.3650  -46.3920 H         1 UNK         0.3000 
    190 H190       -1.7112  -19.1850  -47.0133 H         1 UNK         0.3000 
    191 H191       -3.4218  -19.0252  -49.2294 H         1 UNK         0.0600 
    192 H192       -4.4606  -17.1542  -48.0196 H         1 UNK         0.0600 
    193 H193       -2.7265  -17.1103  -47.7428 H         1 UNK         0.0600 
    194 H194       -3.7986  -17.7068  -46.4868 H         1 UNK         0.0600 
    195 H195       -4.0423  -20.3640  -45.9754 H         1 UNK         0.3000 
    196 H196       -6.8316  -20.9094  -46.3724 H         1 UNK         0.0600 
    197 H197       -6.5770  -22.2542  -44.2904 H         1 UNK         0.0600 
    198 H198       -5.8206  -20.6765  -44.1215 H         1 UNK         0.0600 
    199 H199       -4.8268  -22.1061  -44.3869 H         1 UNK         0.0600 
    200 H200       -3.8807  -22.9281  -46.6994 H         1 UNK         0.3000 
    201 H201       -5.2489  -25.3393  -47.4481 H         1 UNK         0.0600 
    202 H202       -3.0310  -25.4005  -46.4178 H         1 UNK         0.0600 
    203 H203       -2.3504  -24.4147  -47.7063 H         1 UNK         0.0600 
    204 H204       -2.8828  -26.0598  -48.0408 H         1 UNK         0.0600 
    205 H205       -3.7460  -22.7061  -49.3230 H         1 UNK         0.3000 
    206 H206       -3.7226  -22.0775  -51.4132 H         1 UNK         0.0600 
    207 H207       -6.1594  -21.8386  -51.0961 H         1 UNK         0.0600 
    208 H208       -5.8315  -22.3173  -52.7482 H         1 UNK         0.0600 
    209 H209       -6.4435  -23.5011  -51.5919 H         1 UNK         0.0600 
    210 H210       -5.4082  -24.5150  -53.0421 H         1 UNK         0.3000 
    211 H211       -3.2583  -25.3252  -54.6541 H         1 UNK         0.0600 
    212 H212       -5.9779  -26.6528  -54.1863 H         1 UNK         0.0600 
    213 H213       -4.9122  -26.9586  -55.5529 H         1 UNK         0.0600 
    214 H214       -5.6377  -25.3731  -55.3512 H         1 UNK         0.0600 
    215 H215       -4.1819  -26.5515  -51.5110 H         1 UNK         0.3000 
    216 H216       -2.8627  -29.1463  -51.8124 H         1 UNK         0.0600 
    217 H217       -3.4060  -29.3808  -49.4088 H         1 UNK         0.0600 
    218 H218       -4.8226  -28.8722  -50.3140 H         1 UNK         0.0600 
    219 H219       -3.9368  -27.7076  -49.3341 H         1 UNK         0.0600 
    220 H220       -1.7816  -25.9016  -51.1476 H         1 UNK         0.3000 
    221 H221        0.7674  -26.9000  -49.9118 H         1 UNK         0.0600 
    222 H222       -0.6912  -24.2333  -49.5960 H         1 UNK         0.0600 
    223 H223       -0.3835  -25.4551  -48.3538 H         1 UNK         0.0600 
    224 H224        0.9475  -24.5410  -49.0316 H         1 UNK         0.0600 
    225 H225       -0.6603  -24.6600  -52.3457 H         1 UNK         0.3000 
    226 H226        1.7875  -24.7784  -53.9511 H         1 UNK         0.0600 
    227 H227        2.2429  -22.8948  -52.3414 H         1 UNK         0.0600 
    228 H228        2.0721  -22.3061  -53.9802 H         1 UNK         0.0600 
    229 H229        0.7451  -22.1129  -52.8296 H         1 UNK         0.0600 
    230 H230        0.3875  -22.1530  -55.0813 H         1 UNK         0.3000 
    231 H231       -1.3339  -23.5154  -57.0316 H         1 UNK         0.0600 
    232 H232       -1.4541  -21.2252  -58.0255 H         1 UNK         0.0600 
    233 H233        0.2177  -21.6904  -57.7537 H         1 UNK         0.0600 
    234 H234       -0.5754  -20.5611  -56.6546 H         1 UNK         0.0600 
    235 H235       -3.5455  -22.8398  -57.3816 H         1 UNK         0.3000 
    236 H236       -5.1739  -22.5489  -55.0416 H         1 UNK         0.0600 
    237 H237       -5.8655  -22.2218  -58.0125 H         1 UNK         0.0600 
    238 H238       -5.9427  -23.7293  -57.1040 H         1 UNK         0.0600 
    239 H239       -7.0235  -22.4048  -56.7008 H         1 UNK         0.0600 
    240 H240       -5.9076  -20.7191  -54.0486 H         1 UNK         0.3000 
    241 H241       -4.7907  -18.1761  -54.8468 H         1 UNK         0.0600 
    242 H242       -8.5609  -18.0622  -56.2079 H         1 UNK         0.3800 
    243 H243       -7.7430  -19.5654  -55.8725 H         1 UNK         0.3800 
    244 H244       -5.6156  -17.3404  -52.6877 H         1 UNK         0.0800 
    245 H245       -6.5849  -18.7696  -52.4553 H         1 UNK         0.0800 
    246 H246       -2.4548  -18.9184  -53.5797 H         1 UNK         0.0800 
    247 H247       -3.1360  -17.3764  -53.1210 H         1 UNK         0.0800 
@<TRIPOS>BOND
     1    1    2 1    
     2    1  127 1    
     3    1  128 1    
     4    1  129 1    
     5    2    3 2    
     6    2    4 am   BACKBONE|DICT|INTERRES
     7    4    5 1    
     8    4  130 1    
     9    5    6 1    
    10    5   65 1    
    11    5  131 1    
    12    6    7 1    
    13    6  132 1    
    14    6  133 1    
    15    7    8 1    
    16    8    9 1    
    17    8  134 1    
    18    8  135 1    
    19    9   10 ar   
    20    9   14 ar   
    21   10   11 ar   
    22   10  136 1    
    23   11   12 ar   
    24   11  126 1    
    25   12   13 ar   
    26   12  137 1    
    27   13   14 ar   
    28   13   15 1    
    29   14  138 1    
    30   15   16 1    
    31   15  139 1    
    32   15  140 1    
    33   16   17 1    
    34   17   18 1    
    35   17  141 1    
    36   17  142 1    
    37   18   19 1    
    38   18   67 1    
    39   18  143 1    
    40   19   20 am   BACKBONE|DICT|INTERRES
    41   19  144 1    
    42   20   21 2    
    43   20   22 1    
    44   22   23 1    
    45   22   24 1    
    46   22  145 1    
    47   23  146 1    
    48   23  147 1    
    49   23  148 1    
    50   24   25 am   BACKBONE|DICT|INTERRES
    51   24  149 1    
    52   25   26 2    
    53   25   27 1    
    54   27   28 1    
    55   27   29 1    
    56   27  150 1    
    57   28  151 1    
    58   28  152 1    
    59   28  153 1    
    60   29   30 am   BACKBONE|DICT|INTERRES
    61   29  154 1    
    62   30   31 2    
    63   30   32 1    
    64   32   33 1    
    65   32   34 1    
    66   32  155 1    
    67   33  156 1    
    68   33  157 1    
    69   33  158 1    
    70   34   35 am   BACKBONE|DICT|INTERRES
    71   34  159 1    
    72   35   36 2    
    73   35   37 1    
    74   37   38 1    
    75   37   39 1    
    76   37  160 1    
    77   38  161 1    
    78   38  162 1    
    79   38  163 1    
    80   39   40 am   BACKBONE|DICT|INTERRES
    81   39  164 1    
    82   40   41 2    
    83   40   42 1    
    84   42   43 1    
    85   42   44 1    
    86   42  165 1    
    87   43  166 1    
    88   43  167 1    
    89   43  168 1    
    90   44   45 am   BACKBONE|DICT|INTERRES
    91   44  169 1    
    92   45   46 2    
    93   45   47 1    
    94   47   48 1    
    95   47   49 1    
    96   47  170 1    
    97   48  171 1    
    98   48  172 1    
    99   48  173 1    
   100   49   50 am   BACKBONE|DICT|INTERRES
   101   49  174 1    
   102   50   51 2    
   103   50   52 1    
   104   52   53 1    
   105   52   54 1    
   106   52  175 1    
   107   53  176 1    
   108   53  177 1    
   109   53  178 1    
   110   54   55 am   BACKBONE|DICT|INTERRES
   111   54  179 1    
   112   55   56 2    
   113   55   57 1    
   114   57   58 1    
   115   57   59 1    
   116   57  180 1    
   117   58  181 1    
   118   58  182 1    
   119   58  183 1    
   120   59   60 am   BACKBONE|DICT|INTERRES
   121   59  184 1    
   122   60   61 2    
   123   60   62 1    
   124   62   63 1    
   125   62   64 1    
   126   62  185 1    
   127   63  186 1    
   128   63  187 1    
   129   63  188 1    
   130   64   65 am   BACKBONE|DICT|INTERRES
   131   64  189 1    
   132   65   66 2    
   133   67   68 2    
   134   67   69 am   BACKBONE|DICT|INTERRES
   135   69   70 1    
   136   69  190 1    
   137   70   71 1    
   138   70   72 1    
   139   70  191 1    
   140   71  192 1    
   141   71  193 1    
   142   71  194 1    
   143   72   73 2    
   144   72   74 am   BACKBONE|DICT|INTERRES
   145   74   75 1    
   146   74  195 1    
   147   75   76 1    
   148   75   77 1    
   149   75  196 1    
   150   76  197 1    
   151   76  198 1    
   152   76  199 1    
   153   77   78 2    
   154   77   79 am   BACKBONE|DICT|INTERRES
   155   79   80 1    
   156   79  200 1    
   157   80   81 1    
   158   80   82 1    
   159   80  201 1    
   160   81  202 1    
   161   81  203 1    
   162   81  204 1    
   163   82   83 2    
   164   82   84 am   BACKBONE|DICT|INTERRES
   165   84   85 1    
   166   84  205 1    
   167   85   86 1    
   168   85   87 1    
   169   85  206 1    
   170   86  207 1    
   171   86  208 1    
   172   86  209 1    
   173   87   88 2    
   174   87   89 am   BACKBONE|DICT|INTERRES
   175   89   90 1    
   176   89  210 1    
   177   90   91 1    
   178   90   92 1    
   179   90  211 1    
   180   91  212 1    
   181   91  213 1    
   182   91  214 1    
   183   92   93 2    
   184   92   94 am   BACKBONE|DICT|INTERRES
   185   94   95 1    
   186   94  215 1    
   187   95   96 1    
   188   95   97 1    
   189   95  216 1    
   190   96  217 1    
   191   96  218 1    
   192   96  219 1    
   193   97   98 2    
   194   97   99 am   BACKBONE|DICT|INTERRES
   195   99  100 1    
   196   99  220 1    
   197  100  101 1    
   198  100  102 1    
   199  100  221 1    
   200  101  222 1    
   201  101  223 1    
   202  101  224 1    
   203  102  103 2    
   204  102  104 am   BACKBONE|DICT|INTERRES
   205  104  105 1    
   206  104  225 1    
   207  105  106 1    
   208  105  107 1    
   209  105  226 1    
   210  106  227 1    
   211  106  228 1    
   212  106  229 1    
   213  107  108 2    
   214  107  109 am   BACKBONE|DICT|INTERRES
   215  109  110 1    
   216  109  230 1    
   217  110  111 1    
   218  110  112 1    
   219  110  231 1    
   220  111  232 1    
   221  111  233 1    
   222  111  234 1    
   223  112  113 2    
   224  112  114 am   BACKBONE|DICT|INTERRES
   225  114  115 1    
   226  114  235 1    
   227  115  116 1    
   228  115  117 1    
   229  115  236 1    
   230  116  237 1    
   231  116  238 1    
   232  116  239 1    
   233  117  118 2    
   234  117  119 am   BACKBONE|DICT|INTERRES
   235  119  120 1    
   236  119  240 1    
   237  120  121 1    
   238  120  124 1    
   239  120  241 1    
   240  121  122 am   BACKBONE|DICT|INTERRES
   241  121  123 2    
   242  122  242 1    
   243  122  243 1    
   244  124  125 1    
   245  124  244 1    
   246  124  245 1    
   247  125  126 1    
   248  126  246 1    
   249  126  247 1    
@<TRIPOS>SUBSTRUCTURE
     1 UNK         1 GROUP             0       ****    0 ROOT    
