@<TRIPOS>MOLECULE
3R540
247   249    1
SMALL
USER_CHARGES


@<TRIPOS>ATOM
      1 CA         -6.5132  -11.8321  -45.2399 C.3       0 UNK        -0.1800 
      2 C          -5.1254  -12.0303  -45.8317 C.2       0 UNK         0.5000 
      3 O          -4.2372  -11.2086  -45.6032 O.2       0 UNK        -0.5000 
      4 N          -4.9318  -13.1236  -46.5824 N.am      1 UNK        -0.5000 
      5 CA         -3.6768  -13.4736  -47.2649 C.3       1 UNK         0.1400 
      6 C6         -3.8234  -14.7058  -48.1862 C.3       23 UNK        -0.0398 
      7 S7         -5.1740  -14.5619  -49.4092 S.3       23 UNK        -0.2404 
      8 C8         -6.4272  -15.7555  -48.8205 C.3       23 UNK        -0.0205 
      9 C9         -5.8391  -17.1133  -48.4579 C.ar      23 UNK        -0.0193 
     10 C10        -5.2182  -17.9029  -49.4276 C.ar      23 UNK        -0.1150 
     11 C11        -4.6086  -19.1092  -49.0752 C.ar      23 UNK        -0.0193 
     12 C12        -4.6574  -19.5443  -47.7469 C.ar      23 UNK        -0.1150 
     13 C13        -5.2923  -18.7719  -46.7626 C.ar      23 UNK        -0.0193 
     14 C14        -5.8781  -17.5585  -47.1341 C.ar      23 UNK        -0.1150 
     15 C15        -5.3602  -19.1653  -45.2840 C.3       23 UNK        -0.0205 
     16 S16        -4.8578  -20.8683  -44.8642 S.3       23 UNK        -0.2404 
     17 C17        -3.0392  -20.7298  -44.9074 C.3       23 UNK        -0.0398 
     18 CA         -2.3690  -22.0730  -45.2840 C.3       11 UNK         0.1400 
     19 N          -1.0578  -21.8876  -45.9134 N.am      11 UNK        -0.5000 
     20 C          -0.3207  -22.8617  -46.4666 C.2       10 UNK         0.5000 
     21 O          -0.6812  -24.0367  -46.5361 O.2       10 UNK        -0.5000 
     22 CA          1.0729  -22.4774  -46.9891 C.3       10 UNK         0.1400 
     23 CB          0.9732  -21.7898  -48.3567 C.3       10 UNK        -0.1800 
     24 N           1.8047  -21.6318  -46.0475 N.am      10 UNK        -0.5000 
     25 C           2.1779  -22.0259  -44.8212 C.2       9 UNK         0.5000 
     26 O           1.9897  -23.1604  -44.3819 O.2       9 UNK        -0.5000 
     27 CA          2.8249  -20.9657  -43.9141 C.3       9 UNK         0.1400 
     28 CB          4.3130  -20.7920  -44.2514 C.3       9 UNK        -0.1800 
     29 N           2.1474  -19.6714  -43.9869 N.am      9 UNK        -0.5000 
     30 C           0.8745  -19.4537  -43.6248 C.2       8 UNK         0.5000 
     31 O           0.1329  -20.3203  -43.1609 O.2       8 UNK        -0.5000 
     32 CA          0.3231  -18.0379  -43.8706 C.3       8 UNK         0.1400 
     33 CB          0.8751  -17.0594  -42.8234 C.3       8 UNK        -0.1800 
     34 N           0.6198  -17.5503  -45.2198 N.am      8 UNK        -0.5000 
     35 C           0.2053  -18.1479  -46.3483 C.2       7 UNK         0.5000 
     36 O          -0.5193  -19.1402  -46.3674 O.2       7 UNK        -0.5000 
     37 CA          0.7310  -17.5830  -47.6769 C.3       7 UNK         0.1400 
     38 CB         -0.1148  -16.3894  -48.1372 C.3       7 UNK        -0.1800 
     39 N           2.1373  -17.1936  -47.5853 N.am      7 UNK        -0.5000 
     40 C           3.1473  -18.0628  -47.4355 C.2       6 UNK         0.5000 
     41 O           3.0023  -19.2835  -47.3736 O.2       6 UNK        -0.5000 
     42 CA          4.5516  -17.4566  -47.2681 C.3       6 UNK         0.1400 
     43 CB          5.1183  -17.0039  -48.6223 C.3       6 UNK        -0.1800 
     44 N           4.5630  -16.3317  -46.3318 N.am      6 UNK        -0.5000 
     45 C           4.2924  -16.4354  -45.0229 C.2       5 UNK         0.5000 
     46 O           4.0342  -17.4988  -44.4602 O.2       5 UNK        -0.5000 
     47 CA          4.2721  -15.1272  -44.2115 C.3       5 UNK         0.1400 
     48 CB          5.6735  -14.8078  -43.6705 C.3       5 UNK        -0.1800 
     49 N           3.7673  -13.9742  -44.9625 N.am      5 UNK        -0.5000 
     50 C           2.5240  -13.8691  -45.4485 C.2       4 UNK         0.5000 
     51 O           1.6822  -14.7688  -45.3794 O.2       4 UNK        -0.5000 
     52 CA          2.1682  -12.5452  -46.1424 C.3       4 UNK         0.1400 
     53 CB          1.9365  -12.7624  -47.6457 C.3       4 UNK        -0.1800 
     54 N           0.9546  -12.0108  -45.5354 N.am      4 UNK        -0.5000 
     55 C           0.9323  -11.2020  -44.4649 C.2       3 UNK         0.5000 
     56 O           1.9378  -10.6732  -43.9889 O.2       3 UNK        -0.5000 
     57 CA         -0.4355  -10.9703  -43.7843 C.3       3 UNK         0.1400 
     58 CB         -1.1247   -9.7259  -44.3632 C.3       3 UNK        -0.1800 
     59 N          -1.3303  -12.1191  -43.9248 N.am      3 UNK        -0.5000 
     60 C          -1.0841  -13.3392  -43.4266 C.2       2 UNK         0.5000 
     61 O          -0.2196  -13.5534  -42.5766 O.2       2 UNK        -0.5000 
     62 CA         -1.9009  -14.5243  -43.9902 C.3       2 UNK         0.1400 
     63 CB         -2.6741  -15.2513  -42.8786 C.3       2 UNK        -0.1800 
     64 N          -2.8339  -14.1855  -45.0689 N.am      2 UNK        -0.5000 
     65 C          -2.5114  -13.7208  -46.2857 C.2       1 UNK         0.5000 
     66 O          -1.3610  -13.4630  -46.6362 O.2       1 UNK        -0.5000 
     67 C          -2.3098  -23.0303  -44.0770 C.2       11 UNK         0.5000 
     68 O          -3.1605  -23.9130  -43.9585 O.2       11 UNK        -0.5000 
     69 N          -1.2837  -22.8635  -43.2301 N.am      12 UNK        -0.5000 
     70 CA         -1.0036  -23.7319  -42.0869 C.3       12 UNK         0.1400 
     71 CB          0.1209  -23.1160  -41.2408 C.3       12 UNK        -0.1800 
     72 C          -0.6522  -25.1742  -42.4990 C.2       12 UNK         0.5000 
     73 O          -1.0309  -26.1105  -41.7938 O.2       12 UNK        -0.5000 
     74 N           0.0487  -25.3283  -43.6313 N.am      13 UNK        -0.5000 
     75 CA          0.3939  -26.6197  -44.2184 C.3       13 UNK         0.1400 
     76 CB          1.5095  -26.4434  -45.2614 C.3       13 UNK        -0.1800 
     77 C          -0.8289  -27.3388  -44.8172 C.2       13 UNK         0.5000 
     78 O          -1.0874  -28.4840  -44.4428 O.2       13 UNK        -0.5000 
     79 N          -1.5561  -26.6692  -45.7250 N.am      14 UNK        -0.5000 
     80 CA         -2.7042  -27.2478  -46.4372 C.3       14 UNK         0.1400 
     81 CB         -2.2226  -28.3321  -47.4271 C.3       14 UNK        -0.1800 
     82 C          -3.5742  -26.2322  -47.2019 C.2       14 UNK         0.5000 
     83 O          -4.6954  -26.5849  -47.5720 O.2       14 UNK        -0.5000 
     84 N          -3.0467  -25.0357  -47.5009 N.am      15 UNK        -0.5000 
     85 CA         -3.5521  -24.0180  -48.4360 C.3       15 UNK         0.1400 
     86 CB         -4.9754  -23.5355  -48.0897 C.3       15 UNK        -0.1800 
     87 C          -3.4305  -24.4723  -49.9017 C.2       15 UNK         0.5000 
     88 O          -2.7528  -23.8067  -50.6835 O.2       15 UNK        -0.5000 
     89 N          -4.0478  -25.6184  -50.2214 N.am      16 UNK        -0.5000 
     90 CA         -3.9631  -26.4348  -51.4407 C.3       16 UNK         0.1400 
     91 CB         -2.5268  -26.9572  -51.6334 C.3       16 UNK        -0.1800 
     92 C          -4.4876  -25.8002  -52.7458 C.2       16 UNK         0.5000 
     93 O          -4.9620  -26.5348  -53.6138 O.2       16 UNK        -0.5000 
     94 N          -4.3969  -24.4765  -52.8805 N.am      17 UNK        -0.5000 
     95 CA         -4.7587  -23.7064  -54.0642 C.3       17 UNK         0.1400 
     96 CB         -3.5820  -23.7368  -55.0590 C.3       17 UNK        -0.1800 
     97 C          -5.1430  -22.2737  -53.6569 C.2       17 UNK         0.5000 
     98 O          -5.1825  -21.9581  -52.4651 O.2       17 UNK        -0.5000 
     99 N          -5.4383  -21.4371  -54.6599 N.am      18 UNK        -0.5000 
    100 CA        -5.7635  -20.0167  -54.5160 C.3       18 UNK         0.1400 
    101 CB        -6.2644  -19.4972  -55.8736 C.3       18 UNK        -0.1800 
    102 C         -4.5666  -19.1740  -54.0327 C.2       18 UNK         0.5000 
    103 O         -3.4215  -19.6236  -54.1073 O.2       18 UNK        -0.5000 
    104 N         -4.8534  -17.9418  -53.5911 N.am      19 UNK        -0.5000 
    105 CA        -3.8965  -16.9696  -53.0468 C.3       19 UNK         0.1400 
    106 CB        -4.6401  -15.6574  -52.7601 C.3       19 UNK        -0.1800 
    107 C         -2.6769  -16.6920  -53.9444 C.2       19 UNK         0.5000 
    108 O         -1.5570  -16.5909  -53.4425 O.2       19 UNK        -0.5000 
    109 N         -2.9163  -16.6119  -55.2601 N.am      20 UNK        -0.5000 
    110 CA        -1.8921  -16.3966  -56.2835 C.3       20 UNK         0.1400 
    111 CB        -2.5851  -16.0988  -57.6221 C.3       20 UNK        -0.1800 
    112 C         -0.9110  -17.5762  -56.4365 C.2       20 UNK         0.5000 
    113 O          0.2108  -17.3671  -56.9002 O.2       20 UNK        -0.5000 
    114 N         -1.3463  -18.7829  -56.0532 N.am      21 UNK        -0.5000 
    115 CA        -0.5421  -19.9998  -56.0710 C.3       21 UNK         0.1400 
    116 CB        -1.4225  -21.1764  -56.5167 C.3       21 UNK        -0.1800 
    117 C          0.0892  -20.2715  -54.6958 C.2       21 UNK         0.5000 
    118 O          1.2642  -20.6378  -54.6419 O.2       21 UNK        -0.5000 
    119 N         -0.6875  -20.0982  -53.6157 N.am      22 UNK        -0.5000 
    120 CA        -0.2336  -20.3275  -52.2346 C.3       22 UNK         0.1400 
    121 C          0.7467  -19.2441  -51.6917 C.2       22 UNK         0.5000 
    122 N          0.6795  -17.9990  -52.1497 N.am      22 UNK        -0.7600 
    123 O          1.6008  -19.5461  -50.8645 O.2       22 UNK        -0.5000 
    124 C124       -1.4116  -20.6765  -51.2757 C.3       23 UNK        -0.0398 
    125 S125       -2.1843  -19.2917  -50.3657 S.3       23 UNK        -0.2404 
    126 C126       -3.8708  -19.9252  -50.1242 C.3       23 UNK        -0.0205 
    127 H127       -6.4554  -11.7985  -44.1519 H         1 UNK         0.0600 
    128 H128       -7.1928  -12.6372  -45.5202 H         1 UNK         0.0600 
    129 H129       -6.9383  -10.8911  -45.5891 H         1 UNK         0.0600 
    130 H130       -5.7060  -13.7487  -46.7513 H         1 UNK         0.3000 
    131 H131       -3.3994  -12.6190  -47.8858 H         1 UNK         0.0600 
    132 H132       -2.9027  -14.8537  -48.7538 H         1 UNK         0.0800 
    133 H133       -3.9408  -15.6081  -47.5877 H         1 UNK         0.0800 
    134 H134       -7.1767  -15.8907  -49.6014 H         1 UNK         0.0800 
    135 H135       -6.9525  -15.3221  -47.9685 H         1 UNK         0.0800 
    136 H136       -5.1775  -17.5592  -50.4497 H         1 UNK         0.1150 
    137 H137       -4.1822  -20.4793  -47.4929 H         1 UNK         0.1150 
    138 H138       -6.3537  -16.9470  -46.3799 H         1 UNK         0.1150 
    139 H139       -4.7579  -18.4653  -44.7030 H         1 UNK         0.0800 
    140 H140       -6.3886  -19.0389  -44.9421 H         1 UNK         0.0800 
    141 H141       -2.6737  -20.3452  -43.9533 H         1 UNK         0.0800 
    142 H142       -2.7878  -19.9699  -45.6455 H         1 UNK         0.0800 
    143 H143       -2.9905  -22.5541  -46.0377 H         1 UNK         0.0600 
    144 H144       -0.7035  -20.9334  -45.9395 H         1 UNK         0.3000 
    145 H145        1.6448  -23.3986  -47.1182 H         1 UNK         0.0600 
    146 H146        1.9601  -21.5428  -48.7482 H         1 UNK         0.0600 
    147 H147        0.4921  -22.4455  -49.0828 H         1 UNK         0.0600 
    148 H148        0.3945  -20.8670  -48.3089 H         1 UNK         0.0600 
    149 H149        2.0398  -20.6943  -46.3599 H         1 UNK         0.3000 
    150 H150        2.7497  -21.3212  -42.8845 H         1 UNK         0.0600 
    151 H151        4.8408  -21.7449  -44.1958 H         1 UNK         0.0600 
    152 H152        4.7975  -20.1102  -43.5523 H         1 UNK         0.0600 
    153 H153        4.4547  -20.3945  -45.2570 H         1 UNK         0.0600 
    154 H154        2.7011  -18.8912  -44.3303 H         1 UNK         0.3000 
    155 H155       -0.7632  -18.0741  -43.7663 H         1 UNK         0.0600 
    156 H156        1.9643  -17.0421  -42.8164 H         1 UNK         0.0600 
    157 H157        0.5474  -17.3387  -41.8215 H         1 UNK         0.0600 
    158 H158        0.5338  -16.0433  -43.0059 H         1 UNK         0.0600 
    159 H159        1.1820  -16.7077  -45.2921 H         1 UNK         0.3000 
    160 H160        0.6439  -18.3676  -48.4317 H         1 UNK         0.0600 
    161 H161       -0.0539  -15.5648  -47.4286 H         1 UNK         0.0600 
    162 H162       -1.1648  -16.6708  -48.2291 H         1 UNK         0.0600 
    163 H163        0.2107  -16.0246  -49.1114 H         1 UNK         0.0600 
    164 H164        2.3362  -16.2049  -47.5653 H         1 UNK         0.3000 
    165 H165        5.2047  -18.2356  -46.8686 H         1 UNK         0.0600 
    166 H166        6.1458  -16.6538  -48.5223 H         1 UNK         0.0600 
    167 H167        5.1247  -17.8286  -49.3365 H         1 UNK         0.0600 
    168 H168        4.5291  -16.1967  -49.0590 H         1 UNK         0.0600 
    169 H169        4.7655  -15.4188  -46.7110 H         1 UNK         0.3000 
    170 H170        3.6071  -15.2813  -43.3594 H         1 UNK         0.0600 
    171 H171        6.0661  -15.6420  -43.0874 H         1 UNK         0.0600 
    172 H172        6.3812  -14.6083  -44.4760 H         1 UNK         0.0600 
    173 H173        5.6546  -13.9365  -43.0154 H         1 UNK         0.0600 
    174 H174        4.3989  -13.1923  -45.0604 H         1 UNK         0.3000 
    175 H175        2.9894  -11.8352  -46.0242 H         1 UNK         0.0600 
    176 H176        1.1228  -13.4630  -47.8343 H         1 UNK         0.0600 
    177 H177        1.6890  -11.8249  -48.1436 H         1 UNK         0.0600 
    178 H178        2.8312  -13.1605  -48.1257 H         1 UNK         0.0600 
    179 H179        0.0901  -12.4535  -45.8360 H         1 UNK         0.3000 
    180 H180       -0.2574  -10.8047  -42.7199 H         1 UNK         0.0600 
    181 H181       -1.3462   -9.8467  -45.4245 H         1 UNK         0.0600 
    182 H182       -0.4928   -8.8433  -44.2562 H         1 UNK         0.0600 
    183 H183       -2.0630   -9.5192  -43.8479 H         1 UNK         0.0600 
    184 H184       -2.0798  -12.0231  -44.5966 H         1 UNK         0.3000 
    185 H185       -1.1757  -15.2233  -44.4108 H         1 UNK         0.0600 
    186 H186       -3.1666  -16.1459  -43.2606 H         1 UNK         0.0600 
    187 H187       -2.0056  -15.5707  -42.0779 H         1 UNK         0.0600 
    188 H188       -3.4357  -14.6092  -42.4348 H         1 UNK         0.0600 
    189 H189       -3.8130  -14.3258  -44.8677 H         1 UNK         0.3000 
    190 H190       -0.6518  -22.0795  -43.3707 H         1 UNK         0.3000 
    191 H191       -1.9057  -23.7741  -41.4732 H         1 UNK         0.0600 
    192 H192        1.0479  -23.0259  -41.8072 H         1 UNK         0.0600 
    193 H193        0.3299  -23.7288  -40.3631 H         1 UNK         0.0600 
    194 H194       -0.1518  -22.1218  -40.8865 H         1 UNK         0.0600 
    195 H195        0.3750  -24.5020  -44.1194 H         1 UNK         0.3000 
    196 H196        0.7913  -27.2528  -43.4221 H         1 UNK         0.0600 
    197 H197        1.7997  -27.4050  -45.6862 H         1 UNK         0.0600 
    198 H198        2.4005  -26.0043  -44.8123 H         1 UNK         0.0600 
    199 H199        1.2035  -25.8015  -46.0866 H         1 UNK         0.0600 
    200 H200       -1.2865  -25.7169  -45.9531 H         1 UNK         0.3000 
    201 H201       -3.3589  -27.7147  -45.6985 H         1 UNK         0.0600 
    202 H202       -1.7538  -29.1722  -46.9160 H         1 UNK         0.0600 
    203 H203       -1.5005  -27.9279  -48.1374 H         1 UNK         0.0600 
    204 H204       -3.0534  -28.7413  -48.0037 H         1 UNK         0.0600 
    205 H205       -2.1105  -24.8284  -47.1619 H         1 UNK         0.3000 
    206 H206       -2.8870  -23.1603  -48.3252 H         1 UNK         0.0600 
    207 H207       -5.0467  -23.2202  -47.0492 H         1 UNK         0.0600 
    208 H208       -5.2540  -22.6815  -48.7077 H         1 UNK         0.0600 
    209 H209       -5.7278  -24.3064  -48.2544 H         1 UNK         0.0600 
    210 H210       -4.5686  -26.0509  -49.4637 H         1 UNK         0.3000 
    211 H211       -4.5998  -27.3000  -51.2496 H         1 UNK         0.0600 
    212 H212       -2.1813  -27.4957  -50.7508 H         1 UNK         0.0600 
    213 H213       -1.8241  -26.1466  -51.8289 H         1 UNK         0.0600 
    214 H214       -2.4714  -27.6467  -52.4767 H         1 UNK         0.0600 
    215 H215       -3.9982  -23.9374  -52.1157 H         1 UNK         0.3000 
    216 H216       -5.6383  -24.1543  -54.5309 H         1 UNK         0.0600 
    217 H217       -3.8197  -23.2079  -55.9819 H         1 UNK         0.0600 
    218 H218       -3.3271  -24.7591  -55.3389 H         1 UNK         0.0600 
    219 H219       -2.6898  -23.2799  -54.6290 H         1 UNK         0.0600 
    220 H220       -5.3646  -21.7771  -55.6069 H         1 UNK         0.3000 
    221 H221       -6.5655  -19.9237  -53.7809 H         1 UNK         0.0600 
    222 H222       -5.4903  -19.5635  -56.6396 H         1 UNK         0.0600 
    223 H223       -7.1275  -20.0665  -56.2195 H         1 UNK         0.0600 
    224 H224       -6.5744  -18.4535  -55.8107 H         1 UNK         0.0600 
    225 H225       -5.8195  -17.6486  -53.5916 H         1 UNK         0.3000 
    226 H226       -3.5224  -17.3680  -52.1039 H         1 UNK         0.0600 
    227 H227       -5.4893  -15.8184  -52.0969 H         1 UNK         0.0600 
    228 H228       -3.9814  -14.9339  -52.2781 H         1 UNK         0.0600 
    229 H229       -5.0178  -15.1988  -53.6747 H         1 UNK         0.0600 
    230 H230       -3.8667  -16.7182  -55.5827 H         1 UNK         0.3000 
    231 H231       -1.3077  -15.5197  -55.9970 H         1 UNK         0.0600 
    232 H232       -3.2230  -15.2178  -57.5495 H         1 UNK         0.0600 
    233 H233       -3.2025  -16.9361  -57.9502 H         1 UNK         0.0600 
    234 H234       -1.8527  -15.9039  -58.4067 H         1 UNK         0.0600 
    235 H235       -2.2582  -18.8587  -55.6187 H         1 UNK         0.3000 
    236 H236        0.2693  -19.9030  -56.7955 H         1 UNK         0.0600 
    237 H237       -0.8731  -22.1179  -56.4785 H         1 UNK         0.0600 
    238 H238       -2.3015  -21.2784  -55.8821 H         1 UNK         0.0600 
    239 H239       -1.7678  -21.0410  -57.5416 H         1 UNK         0.0600 
    240 H240       -1.6597  -19.8232  -53.7374 H         1 UNK         0.3000 
    241 H241        0.3652  -21.2399  -52.2790 H         1 UNK         0.0600 
    242 H242        1.3297  -17.3146  -51.8020 H         1 UNK         0.3800 
    243 H243       -0.0699  -17.7052  -52.7679 H         1 UNK         0.3800 
    244 H244       -1.0577  -21.3778  -50.5205 H         1 UNK         0.0800 
    245 H245       -2.1852  -21.2201  -51.8216 H         1 UNK         0.0800 
    246 H246       -4.4081  -19.8845  -51.0713 H         1 UNK         0.0800 
    247 H247       -3.8310  -20.9754  -49.8323 H         1 UNK         0.0800 
@<TRIPOS>BOND
     1    1    2 1    
     2    1  127 1    
     3    1  128 1    
     4    1  129 1    
     5    2    3 2    
     6    2    4 am   BACKBONE|DICT|INTERRES
     7    4    5 1    
     8    4  130 1    
     9    5    6 1    
    10    5   65 1    
    11    5  131 1    
    12    6    7 1    
    13    6  132 1    
    14    6  133 1    
    15    7    8 1    
    16    8    9 1    
    17    8  134 1    
    18    8  135 1    
    19    9   10 ar   
    20    9   14 ar   
    21   10   11 ar   
    22   10  136 1    
    23   11   12 ar   
    24   11  126 1    
    25   12   13 ar   
    26   12  137 1    
    27   13   14 ar   
    28   13   15 1    
    29   14  138 1    
    30   15   16 1    
    31   15  139 1    
    32   15  140 1    
    33   16   17 1    
    34   17   18 1    
    35   17  141 1    
    36   17  142 1    
    37   18   19 1    
    38   18   67 1    
    39   18  143 1    
    40   19   20 am   BACKBONE|DICT|INTERRES
    41   19  144 1    
    42   20   21 2    
    43   20   22 1    
    44   22   23 1    
    45   22   24 1    
    46   22  145 1    
    47   23  146 1    
    48   23  147 1    
    49   23  148 1    
    50   24   25 am   BACKBONE|DICT|INTERRES
    51   24  149 1    
    52   25   26 2    
    53   25   27 1    
    54   27   28 1    
    55   27   29 1    
    56   27  150 1    
    57   28  151 1    
    58   28  152 1    
    59   28  153 1    
    60   29   30 am   BACKBONE|DICT|INTERRES
    61   29  154 1    
    62   30   31 2    
    63   30   32 1    
    64   32   33 1    
    65   32   34 1    
    66   32  155 1    
    67   33  156 1    
    68   33  157 1    
    69   33  158 1    
    70   34   35 am   BACKBONE|DICT|INTERRES
    71   34  159 1    
    72   35   36 2    
    73   35   37 1    
    74   37   38 1    
    75   37   39 1    
    76   37  160 1    
    77   38  161 1    
    78   38  162 1    
    79   38  163 1    
    80   39   40 am   BACKBONE|DICT|INTERRES
    81   39  164 1    
    82   40   41 2    
    83   40   42 1    
    84   42   43 1    
    85   42   44 1    
    86   42  165 1    
    87   43  166 1    
    88   43  167 1    
    89   43  168 1    
    90   44   45 am   BACKBONE|DICT|INTERRES
    91   44  169 1    
    92   45   46 2    
    93   45   47 1    
    94   47   48 1    
    95   47   49 1    
    96   47  170 1    
    97   48  171 1    
    98   48  172 1    
    99   48  173 1    
   100   49   50 am   BACKBONE|DICT|INTERRES
   101   49  174 1    
   102   50   51 2    
   103   50   52 1    
   104   52   53 1    
   105   52   54 1    
   106   52  175 1    
   107   53  176 1    
   108   53  177 1    
   109   53  178 1    
   110   54   55 am   BACKBONE|DICT|INTERRES
   111   54  179 1    
   112   55   56 2    
   113   55   57 1    
   114   57   58 1    
   115   57   59 1    
   116   57  180 1    
   117   58  181 1    
   118   58  182 1    
   119   58  183 1    
   120   59   60 am   BACKBONE|DICT|INTERRES
   121   59  184 1    
   122   60   61 2    
   123   60   62 1    
   124   62   63 1    
   125   62   64 1    
   126   62  185 1    
   127   63  186 1    
   128   63  187 1    
   129   63  188 1    
   130   64   65 am   BACKBONE|DICT|INTERRES
   131   64  189 1    
   132   65   66 2    
   133   67   68 2    
   134   67   69 am   BACKBONE|DICT|INTERRES
   135   69   70 1    
   136   69  190 1    
   137   70   71 1    
   138   70   72 1    
   139   70  191 1    
   140   71  192 1    
   141   71  193 1    
   142   71  194 1    
   143   72   73 2    
   144   72   74 am   BACKBONE|DICT|INTERRES
   145   74   75 1    
   146   74  195 1    
   147   75   76 1    
   148   75   77 1    
   149   75  196 1    
   150   76  197 1    
   151   76  198 1    
   152   76  199 1    
   153   77   78 2    
   154   77   79 am   BACKBONE|DICT|INTERRES
   155   79   80 1    
   156   79  200 1    
   157   80   81 1    
   158   80   82 1    
   159   80  201 1    
   160   81  202 1    
   161   81  203 1    
   162   81  204 1    
   163   82   83 2    
   164   82   84 am   BACKBONE|DICT|INTERRES
   165   84   85 1    
   166   84  205 1    
   167   85   86 1    
   168   85   87 1    
   169   85  206 1    
   170   86  207 1    
   171   86  208 1    
   172   86  209 1    
   173   87   88 2    
   174   87   89 am   BACKBONE|DICT|INTERRES
   175   89   90 1    
   176   89  210 1    
   177   90   91 1    
   178   90   92 1    
   179   90  211 1    
   180   91  212 1    
   181   91  213 1    
   182   91  214 1    
   183   92   93 2    
   184   92   94 am   BACKBONE|DICT|INTERRES
   185   94   95 1    
   186   94  215 1    
   187   95   96 1    
   188   95   97 1    
   189   95  216 1    
   190   96  217 1    
   191   96  218 1    
   192   96  219 1    
   193   97   98 2    
   194   97   99 am   BACKBONE|DICT|INTERRES
   195   99  100 1    
   196   99  220 1    
   197  100  101 1    
   198  100  102 1    
   199  100  221 1    
   200  101  222 1    
   201  101  223 1    
   202  101  224 1    
   203  102  103 2    
   204  102  104 am   BACKBONE|DICT|INTERRES
   205  104  105 1    
   206  104  225 1    
   207  105  106 1    
   208  105  107 1    
   209  105  226 1    
   210  106  227 1    
   211  106  228 1    
   212  106  229 1    
   213  107  108 2    
   214  107  109 am   BACKBONE|DICT|INTERRES
   215  109  110 1    
   216  109  230 1    
   217  110  111 1    
   218  110  112 1    
   219  110  231 1    
   220  111  232 1    
   221  111  233 1    
   222  111  234 1    
   223  112  113 2    
   224  112  114 am   BACKBONE|DICT|INTERRES
   225  114  115 1    
   226  114  235 1    
   227  115  116 1    
   228  115  117 1    
   229  115  236 1    
   230  116  237 1    
   231  116  238 1    
   232  116  239 1    
   233  117  118 2    
   234  117  119 am   BACKBONE|DICT|INTERRES
   235  119  120 1    
   236  119  240 1    
   237  120  121 1    
   238  120  124 1    
   239  120  241 1    
   240  121  122 am   BACKBONE|DICT|INTERRES
   241  121  123 2    
   242  122  242 1    
   243  122  243 1    
   244  124  125 1    
   245  124  244 1    
   246  124  245 1    
   247  125  126 1    
   248  126  246 1    
   249  126  247 1    
@<TRIPOS>SUBSTRUCTURE
     1 UNK         1 GROUP             0       ****    0 ROOT    
