@<TRIPOS>MOLECULE
3R540
247   249    1
SMALL
USER_CHARGES


@<TRIPOS>ATOM
      1 CA          3.8163  -17.1615  -48.4737 C.3       0 UNK        -0.1800 
      2 C           3.1014  -16.1111  -47.6380 C.2       0 UNK         0.5000 
      3 O           3.3896  -15.9654  -46.4527 O.2       0 UNK        -0.5000 
      4 N           2.1748  -15.3626  -48.2484 N.am      1 UNK        -0.5000 
      5 CA          1.3767  -14.3009  -47.6117 C.3       1 UNK         0.1400 
      6 C6          0.0284  -14.0535  -48.3407 C.3       23 UNK        -0.0398 
      7 S7          0.1489  -13.9277  -50.1610 S.3       23 UNK        -0.2404 
      8 C8         -0.2629  -15.6248  -50.6961 C.3       23 UNK        -0.0205 
      9 C9         -1.7223  -15.9870  -50.4570 C.ar      23 UNK        -0.0193 
     10 C10        -2.7072  -15.5245  -51.3330 C.ar      23 UNK        -0.1150 
     11 C11        -4.0444  -15.8870  -51.1528 C.ar      23 UNK        -0.0193 
     12 C12        -4.3976  -16.6897  -50.0634 C.ar      23 UNK        -0.1150 
     13 C13        -3.4237  -17.1632  -49.1798 C.ar      23 UNK        -0.0193 
     14 C14        -2.0865  -16.8120  -49.3871 C.ar      23 UNK        -0.1150 
     15 C15        -3.8171  -18.0498  -48.0047 C.3       23 UNK        -0.0205 
     16 S16        -4.4969  -19.6433  -48.5670 S.3       23 UNK        -0.2404 
     17 C17        -3.8686  -20.8087  -47.3124 C.3       23 UNK        -0.0398 
     18 CA         -2.6474  -21.5965  -47.8421 C.3       11 UNK         0.1400 
     19 N          -1.4597  -20.7533  -48.0165 N.am      11 UNK        -0.5000 
     20 C          -0.3554  -21.1221  -48.6824 C.2       10 UNK         0.5000 
     21 O          -0.2274  -22.2176  -49.2215 O.2       10 UNK        -0.5000 
     22 CA          0.8122  -20.1208  -48.7488 C.3       10 UNK         0.1400 
     23 CB          0.8064  -19.3829  -50.0958 C.3       10 UNK        -0.1800 
     24 N           0.7870  -19.1453  -47.6599 N.am      10 UNK        -0.5000 
     25 C           1.0342  -19.4341  -46.3752 C.2       9 UNK         0.5000 
     26 O           1.4027  -20.5469  -45.9917 O.2       9 UNK        -0.5000 
     27 CA          0.8148  -18.2954  -45.3515 C.3       9 UNK         0.1400 
     28 CB         -0.1055  -17.1664  -45.8671 C.3       9 UNK        -0.1800 
     29 N           0.3054  -18.7637  -44.0604 N.am      9 UNK        -0.5000 
     30 C          -0.7917  -19.5077  -43.8536 C.2       8 UNK         0.5000 
     31 O          -1.4914  -19.9792  -44.7519 O.2       8 UNK        -0.5000 
     32 CA         -1.1965  -19.7104  -42.3850 C.3       8 UNK         0.1400 
     33 CB         -0.0108  -20.1237  -41.4934 C.3       8 UNK        -0.1800 
     34 N          -1.7913  -18.4802  -41.8676 N.am      8 UNK        -0.5000 
     35 C          -3.0454  -18.0781  -42.1169 C.2       7 UNK         0.5000 
     36 O          -3.8739  -18.7485  -42.7336 O.2       7 UNK        -0.5000 
     37 CA         -3.4457  -16.6926  -41.5813 C.3       7 UNK         0.1400 
     38 CB         -4.0270  -16.8097  -40.1640 C.3       7 UNK        -0.1800 
     39 N          -2.3312  -15.7451  -41.5613 N.am      7 UNK        -0.5000 
     40 C          -1.8278  -15.1187  -42.6300 C.2       6 UNK         0.5000 
     41 O          -2.2375  -15.3001  -43.7762 O.2       6 UNK        -0.5000 
     42 CA         -0.6945  -14.0994  -42.3858 C.3       6 UNK         0.1400 
     43 CB         -1.2525  -12.7940  -41.7892 C.3       6 UNK        -0.1800 
     44 N           0.4508  -14.5786  -41.5989 N.am      6 UNK        -0.5000 
     45 C           0.4975  -15.0222  -40.3323 C.2       5 UNK         0.5000 
     46 O          -0.4871  -15.1797  -39.6097 O.2       5 UNK        -0.5000 
     47 CA          1.8990  -15.3246  -39.7682 C.3       5 UNK         0.1400 
     48 CB          2.3290  -16.7525  -40.1395 C.3       5 UNK        -0.1800 
     49 N           2.9186  -14.3773  -40.2260 N.am      5 UNK        -0.5000 
     50 C           2.9245  -13.0626  -39.9566 C.2       4 UNK         0.5000 
     51 O           2.0950  -12.5123  -39.2313 O.2       4 UNK        -0.5000 
     52 CA          4.0397  -12.2104  -40.5975 C.3       4 UNK         0.1400 
     53 CB          5.0835  -11.8116  -39.5421 C.3       4 UNK        -0.1800 
     54 N           4.7303  -12.8502  -41.7220 N.am      4 UNK        -0.5000 
     55 C           4.1813  -13.1312  -42.9105 C.2       3 UNK         0.5000 
     56 O           2.9897  -12.9555  -43.1773 O.2       3 UNK        -0.5000 
     57 CA          5.1213  -13.7714  -43.9472 C.3       3 UNK         0.1400 
     58 CB          5.1070  -15.3007  -43.7971 C.3       3 UNK        -0.1800 
     59 N           4.7501  -13.4147  -45.3167 N.am      3 UNK        -0.5000 
     60 C           4.9214  -12.1969  -45.8574 C.2       2 UNK         0.5000 
     61 O           5.4630  -11.2635  -45.2629 O.2       2 UNK        -0.5000 
     62 CA          4.4291  -11.9732  -47.3047 C.3       2 UNK         0.1400 
     63 CB          5.6124  -11.9973  -48.2848 C.3       2 UNK        -0.1800 
     64 N           3.4481  -12.9699  -47.7300 N.am      2 UNK        -0.5000 
     65 C           2.1717  -13.0067  -47.3249 C.2       1 UNK         0.5000 
     66 O           1.6357  -12.0930  -46.6968 O.2       1 UNK        -0.5000 
     67 C          -2.3499  -22.8324  -46.9733 C.2       11 UNK         0.5000 
     68 O          -2.8392  -23.9167  -47.2883 O.2       11 UNK        -0.5000 
     69 N          -1.5154  -22.6718  -45.9374 N.am      12 UNK        -0.5000 
     70 CA         -1.0156  -23.7726  -45.1127 C.3       12 UNK         0.1400 
     71 CB         -0.2834  -23.2099  -43.8864 C.3       12 UNK        -0.1800 
     72 C          -0.1074  -24.7342  -45.9018 C.2       12 UNK         0.5000 
     73 O          -0.2354  -25.9491  -45.7502 O.2       12 UNK        -0.5000 
     74 N           0.7631  -24.1766  -46.7558 N.am      13 UNK        -0.5000 
     75 CA          1.6635  -24.9299  -47.6329 C.3       13 UNK         0.1400 
     76 CB          2.7180  -23.9795  -48.2208 C.3       13 UNK        -0.1800 
     77 C           0.9134  -25.6790  -48.7513 C.2       13 UNK         0.5000 
     78 O           1.2528  -26.8229  -49.0550 O.2       13 UNK        -0.5000 
     79 N          -0.1108  -25.0299  -49.3196 N.am      14 UNK        -0.5000 
     80 CA         -0.9938  -25.5682  -50.3554 C.3       14 UNK         0.1400 
     81 CB         -1.6891  -24.3929  -51.0627 C.3       14 UNK        -0.1800 
     82 C          -2.0407  -26.5680  -49.8219 C.2       14 UNK         0.5000 
     83 O          -2.7498  -27.1696  -50.6275 O.2       14 UNK        -0.5000 
     84 N          -2.1424  -26.7135  -48.4920 N.am      15 UNK        -0.5000 
     85 CA         -3.0984  -27.5510  -47.7599 C.3       15 UNK         0.1400 
     86 CB         -2.8450  -29.0487  -48.0315 C.3       15 UNK        -0.1800 
     87 C          -4.5587  -27.1193  -48.0104 C.2       15 UNK         0.5000 
     88 O          -5.4138  -27.9475  -48.3278 O.2       15 UNK        -0.5000 
     89 N          -4.7949  -25.8075  -47.8719 N.am      16 UNK        -0.5000 
     90 CA         -6.0617  -25.0846  -48.0240 C.3       16 UNK         0.1400 
     91 CB         -7.1445  -25.6290  -47.0691 C.3       16 UNK        -0.1800 
     92 C          -6.5626  -24.9591  -49.4776 C.2       16 UNK         0.5000 
     93 O          -7.6855  -24.4953  -49.6869 O.2       16 UNK        -0.5000 
     94 N          -5.7303  -25.3198  -50.4650 N.am      17 UNK        -0.5000 
     95 CA         -5.9973  -25.1116  -51.8873 C.3       17 UNK         0.1400 
     96 CB         -5.1611  -26.0950  -52.7229 C.3       17 UNK        -0.1800 
     97 C          -5.7279  -23.6435  -52.2649 C.2       17 UNK         0.5000 
     98 O          -4.6565  -23.3184  -52.7818 O.2       17 UNK        -0.5000 
     99 N          -6.7077  -22.7749  -51.9811 N.am      18 UNK        -0.5000 
    100 CA        -6.6623  -21.3286  -52.2196 C.3       18 UNK         0.1400 
    101 CB        -7.9781  -20.6921  -51.7502 C.3       18 UNK        -0.1800 
    102 C         -6.3682  -20.9504  -53.6839 C.2       18 UNK         0.5000 
    103 O         -5.6450  -19.9879  -53.9307 O.2       18 UNK        -0.5000 
    104 N         -6.8795  -21.7552  -54.6262 N.am      19 UNK        -0.5000 
    105 CA        -6.6380  -21.6228  -56.0646 C.3       19 UNK         0.1400 
    106 CB        -7.5066  -22.6457  -56.8123 C.3       19 UNK        -0.1800 
    107 C         -5.1564  -21.7773  -56.4661 C.2       19 UNK         0.5000 
    108 O         -4.7414  -21.1857  -57.4633 O.2       19 UNK        -0.5000 
    109 N         -4.3880  -22.5502  -55.6854 N.am      20 UNK        -0.5000 
    110 CA        -2.9406  -22.6769  -55.8307 C.3       20 UNK         0.1400 
    111 CB        -2.4936  -24.0748  -55.3726 C.3       20 UNK        -0.1800 
    112 C         -2.2178  -21.5771  -55.0361 C.2       20 UNK         0.5000 
    113 O         -1.3131  -20.9381  -55.5747 O.2       20 UNK        -0.5000 
    114 N         -2.6400  -21.3643  -53.7804 N.am      21 UNK        -0.5000 
    115 CA        -2.0406  -20.4167  -52.8362 C.3       21 UNK         0.1400 
    116 CB        -2.7534  -20.5262  -51.4860 C.3       21 UNK        -0.1800 
    117 C         -2.0434  -18.9548  -53.3182 C.2       21 UNK         0.5000 
    118 O         -1.0340  -18.2681  -53.1569 O.2       21 UNK        -0.5000 
    119 N         -3.1536  -18.5203  -53.9289 N.am      22 UNK        -0.5000 
    120 CA        -3.2905  -17.1907  -54.5443 C.3       22 UNK         0.1400 
    121 C         -2.5525  -17.0320  -55.9094 C.2       22 UNK         0.5000 
    122 N         -1.9092  -18.0557  -56.4601 N.am      22 UNK        -0.7600 
    123 O         -2.5545  -15.9460  -56.4829 O.2       22 UNK        -0.5000 
    124 C124       -4.7686  -16.7267  -54.6576 C.3       23 UNK        -0.0398 
    125 S125       -5.7520  -16.8128  -53.1185 S.3       23 UNK        -0.2404 
    126 C126       -5.1129  -15.4226  -52.1307 C.3       23 UNK        -0.0205 
    127 H127        3.5096  -17.1254  -49.5191 H         1 UNK         0.0600 
    128 H128        3.6017  -18.1580  -48.0881 H         1 UNK         0.0600 
    129 H129        4.8939  -17.0038  -48.4305 H         1 UNK         0.0600 
    130 H130        2.0153  -15.4750  -49.2394 H         1 UNK         0.3000 
    131 H131        1.1160  -14.6538  -46.6124 H         1 UNK         0.0600 
    132 H132       -0.4580  -13.1500  -47.9690 H         1 UNK         0.0800 
    133 H133       -0.6631  -14.8551  -48.0882 H         1 UNK         0.0800 
    134 H134        0.3927  -16.3389  -50.1989 H         1 UNK         0.0800 
    135 H135       -0.0471  -15.7173  -51.7619 H         1 UNK         0.0800 
    136 H136       -2.4255  -14.8943  -52.1645 H         1 UNK         0.1150 
    137 H137       -5.4319  -16.9685  -49.9177 H         1 UNK         0.1150 
    138 H138       -1.3283  -17.1794  -48.7137 H         1 UNK         0.1150 
    139 H139       -2.9585  -18.2200  -47.3558 H         1 UNK         0.0800 
    140 H140       -4.5633  -17.5375  -47.3961 H         1 UNK         0.0800 
    141 H141       -4.6890  -21.4890  -47.0764 H         1 UNK         0.0800 
    142 H142       -3.6347  -20.2851  -46.3841 H         1 UNK         0.0800 
    143 H143       -2.9133  -21.9868  -48.8260 H         1 UNK         0.0600 
    144 H144       -1.4744  -19.8570  -47.5567 H         1 UNK         0.3000 
    145 H145        1.7408  -20.6909  -48.6767 H         1 UNK         0.0600 
    146 H146        1.6530  -18.7024  -50.1804 H         1 UNK         0.0600 
    147 H147        0.8769  -20.0882  -50.9250 H         1 UNK         0.0600 
    148 H148       -0.1070  -18.8063  -50.2404 H         1 UNK         0.0600 
    149 H149        0.5075  -18.2072  -47.8979 H         1 UNK         0.3000 
    150 H150        1.8006  -17.8680  -45.1639 H         1 UNK         0.0600 
    151 H151        0.2257  -16.7695  -46.8226 H         1 UNK         0.0600 
    152 H152       -0.1166  -16.3321  -45.1664 H         1 UNK         0.0600 
    153 H153       -1.1349  -17.5022  -45.9904 H         1 UNK         0.0600 
    154 H154        0.8322  -18.4651  -43.2539 H         1 UNK         0.3000 
    155 H155       -1.9380  -20.5114  -42.3504 H         1 UNK         0.0600 
    156 H156        0.7283  -19.3291  -41.3891 H         1 UNK         0.0600 
    157 H157        0.5000  -20.9975  -41.8996 H         1 UNK         0.0600 
    158 H158       -0.3525  -20.3870  -40.4923 H         1 UNK         0.0600 
    159 H159       -1.1859  -17.8535  -41.3596 H         1 UNK         0.3000 
    160 H160       -4.2244  -16.2960  -42.2365 H         1 UNK         0.0600 
    161 H161       -3.2855  -17.1785  -39.4541 H         1 UNK         0.0600 
    162 H162       -4.8735  -17.4974  -40.1438 H         1 UNK         0.0600 
    163 H163       -4.3842  -15.8446  -39.8042 H         1 UNK         0.0600 
    164 H164       -1.8967  -15.5503  -40.6612 H         1 UNK         0.3000 
    165 H165       -0.2853  -13.8548  -43.3677 H         1 UNK         0.0600 
    166 H166       -1.6621  -12.9447  -40.7899 H         1 UNK         0.0600 
    167 H167       -0.4760  -12.0319  -41.7200 H         1 UNK         0.0600 
    168 H168       -2.0510  -12.3894  -42.4123 H         1 UNK         0.0600 
    169 H169        1.3400  -14.4798  -42.0707 H         1 UNK         0.3000 
    170 H170        1.8412  -15.2553  -38.6799 H         1 UNK         0.0600 
    171 H171        1.5998  -17.4831  -39.7870 H         1 UNK         0.0600 
    172 H172        2.4273  -16.8784  -41.2185 H         1 UNK         0.0600 
    173 H173        3.2860  -17.0068  -39.6837 H         1 UNK         0.0600 
    174 H174        3.6523  -14.7439  -40.8132 H         1 UNK         0.3000 
    175 H175        3.5691  -11.2989  -40.9719 H         1 UNK         0.0600 
    176 H176        5.6049  -12.6827  -39.1433 H         1 UNK         0.0600 
    177 H177        5.8290  -11.1344  -39.9594 H         1 UNK         0.0600 
    178 H178        4.6153  -11.2967  -38.7020 H         1 UNK         0.0600 
    179 H179        5.7102  -13.0503  -41.5809 H         1 UNK         0.3000 
    180 H180        6.1387  -13.4166  -43.7692 H         1 UNK         0.0600 
    181 H181        4.0991  -15.7058  -43.8954 H         1 UNK         0.0600 
    182 H182        5.4854  -15.6020  -42.8197 H         1 UNK         0.0600 
    183 H183        5.7348  -15.7789  -44.5493 H         1 UNK         0.0600 
    184 H184        4.2649  -14.1304  -45.8446 H         1 UNK         0.3000 
    185 H185        3.9678  -10.9844  -47.3490 H         1 UNK         0.0600 
    186 H186        5.2857  -11.7854  -49.3031 H         1 UNK         0.0600 
    187 H187        6.3548  -11.2434  -48.0197 H         1 UNK         0.0600 
    188 H188        6.1143  -12.9657  -48.2867 H         1 UNK         0.0600 
    189 H189        3.8018  -13.7600  -48.2487 H         1 UNK         0.3000 
    190 H190       -1.2005  -21.7356  -45.7033 H         1 UNK         0.3000 
    191 H191       -1.8747  -24.3467  -44.7588 H         1 UNK         0.0600 
    192 H192        0.1336  -24.0118  -43.2758 H         1 UNK         0.0600 
    193 H193       -0.9656  -22.6445  -43.2529 H         1 UNK         0.0600 
    194 H194        0.5380  -22.5516  -44.1724 H         1 UNK         0.0600 
    195 H195        0.7913  -23.1694  -46.8267 H         1 UNK         0.3000 
    196 H196        2.1818  -25.6740  -47.0243 H         1 UNK         0.0600 
    197 H197        2.2673  -23.2139  -48.8523 H         1 UNK         0.0600 
    198 H198        3.2796  -23.4767  -47.4333 H         1 UNK         0.0600 
    199 H199        3.4355  -24.5269  -48.8333 H         1 UNK         0.0600 
    200 H200       -0.2650  -24.0558  -49.0687 H         1 UNK         0.3000 
    201 H201       -0.3821  -26.0953  -51.0902 H         1 UNK         0.0600 
    202 H202       -2.3662  -23.8658  -50.3900 H         1 UNK         0.0600 
    203 H203       -2.2740  -24.7354  -51.9148 H         1 UNK         0.0600 
    204 H204       -0.9656  -23.6724  -51.4445 H         1 UNK         0.0600 
    205 H205       -1.5340  -26.1457  -47.9179 H         1 UNK         0.3000 
    206 H206       -2.9059  -27.3747  -46.7005 H         1 UNK         0.0600 
    207 H207       -1.8085  -29.3155  -47.8254 H         1 UNK         0.0600 
    208 H208       -3.4734  -29.6710  -47.3935 H         1 UNK         0.0600 
    209 H209       -3.0619  -29.3194  -49.0652 H         1 UNK         0.0600 
    210 H210       -4.0006  -25.2101  -47.6403 H         1 UNK         0.3000 
    211 H211       -5.8435  -24.0634  -47.7082 H         1 UNK         0.0600 
    212 H212       -8.0160  -24.9736  -47.0525 H         1 UNK         0.0600 
    213 H213       -6.7724  -25.6956  -46.0468 H         1 UNK         0.0600 
    214 H214       -7.4908  -26.6186  -47.3675 H         1 UNK         0.0600 
    215 H215       -4.8256  -25.6994  -50.2240 H         1 UNK         0.3000 
    216 H216       -7.0484  -25.3276  -52.0907 H         1 UNK         0.0600 
    217 H217       -4.0918  -25.9415  -52.5886 H         1 UNK         0.0600 
    218 H218       -5.3740  -25.9799  -53.7863 H         1 UNK         0.0600 
    219 H219       -5.3840  -27.1278  -52.4549 H         1 UNK         0.0600 
    220 H220       -7.5215  -23.1269  -51.4925 H         1 UNK         0.3000 
    221 H221       -5.8602  -20.9247  -51.6026 H         1 UNK         0.0600 
    222 H222       -8.1473  -20.8748  -50.6888 H         1 UNK         0.0600 
    223 H223       -8.8345  -21.0833  -52.3007 H         1 UNK         0.0600 
    224 H224       -7.9595  -19.6106  -51.8935 H         1 UNK         0.0600 
    225 H225       -7.4549  -22.5301  -54.3315 H         1 UNK         0.3000 
    226 H226       -6.9540  -20.6208  -56.3623 H         1 UNK         0.0600 
    227 H227       -7.2535  -23.6691  -56.5322 H         1 UNK         0.0600 
    228 H228       -8.5657  -22.4916  -56.6050 H         1 UNK         0.0600 
    229 H229       -7.3722  -22.5579  -57.8913 H         1 UNK         0.0600 
    230 H230       -4.7912  -22.9573  -54.8506 H         1 UNK         0.3000 
    231 H231       -2.6661  -22.5706  -56.8825 H         1 UNK         0.0600 
    232 H232       -2.7229  -24.2553  -54.3226 H         1 UNK         0.0600 
    233 H233       -1.4172  -24.1984  -55.4971 H         1 UNK         0.0600 
    234 H234       -2.9806  -24.8545  -55.9583 H         1 UNK         0.0600 
    235 H235       -3.3881  -21.9480  -53.4195 H         1 UNK         0.3000 
    236 H236       -1.0011  -20.7190  -52.6945 H         1 UNK         0.0600 
    237 H237       -2.7746  -21.5544  -51.1285 H         1 UNK         0.0600 
    238 H238       -2.2507  -19.9209  -50.7322 H         1 UNK         0.0600 
    239 H239       -3.7782  -20.1652  -51.5497 H         1 UNK         0.0600 
    240 H240       -3.9663  -19.1296  -53.9894 H         1 UNK         0.3000 
    241 H241       -2.7925  -16.4821  -53.8846 H         1 UNK         0.0600 
    242 H242       -1.4380  -17.9234  -57.3407 H         1 UNK         0.3800 
    243 H243       -1.8550  -18.9549  -55.9971 H         1 UNK         0.3800 
    244 H244       -5.2847  -17.3390  -55.3990 H         1 UNK         0.0800 
    245 H245       -4.8204  -15.7020  -55.0294 H         1 UNK         0.0800 
    246 H246       -4.7364  -14.6352  -52.7853 H         1 UNK         0.0800 
    247 H247       -5.9383  -14.9840  -51.5684 H         1 UNK         0.0800 
@<TRIPOS>BOND
     1    1    2 1    
     2    1  127 1    
     3    1  128 1    
     4    1  129 1    
     5    2    3 2    
     6    2    4 am   BACKBONE|DICT|INTERRES
     7    4    5 1    
     8    4  130 1    
     9    5    6 1    
    10    5   65 1    
    11    5  131 1    
    12    6    7 1    
    13    6  132 1    
    14    6  133 1    
    15    7    8 1    
    16    8    9 1    
    17    8  134 1    
    18    8  135 1    
    19    9   10 ar   
    20    9   14 ar   
    21   10   11 ar   
    22   10  136 1    
    23   11   12 ar   
    24   11  126 1    
    25   12   13 ar   
    26   12  137 1    
    27   13   14 ar   
    28   13   15 1    
    29   14  138 1    
    30   15   16 1    
    31   15  139 1    
    32   15  140 1    
    33   16   17 1    
    34   17   18 1    
    35   17  141 1    
    36   17  142 1    
    37   18   19 1    
    38   18   67 1    
    39   18  143 1    
    40   19   20 am   BACKBONE|DICT|INTERRES
    41   19  144 1    
    42   20   21 2    
    43   20   22 1    
    44   22   23 1    
    45   22   24 1    
    46   22  145 1    
    47   23  146 1    
    48   23  147 1    
    49   23  148 1    
    50   24   25 am   BACKBONE|DICT|INTERRES
    51   24  149 1    
    52   25   26 2    
    53   25   27 1    
    54   27   28 1    
    55   27   29 1    
    56   27  150 1    
    57   28  151 1    
    58   28  152 1    
    59   28  153 1    
    60   29   30 am   BACKBONE|DICT|INTERRES
    61   29  154 1    
    62   30   31 2    
    63   30   32 1    
    64   32   33 1    
    65   32   34 1    
    66   32  155 1    
    67   33  156 1    
    68   33  157 1    
    69   33  158 1    
    70   34   35 am   BACKBONE|DICT|INTERRES
    71   34  159 1    
    72   35   36 2    
    73   35   37 1    
    74   37   38 1    
    75   37   39 1    
    76   37  160 1    
    77   38  161 1    
    78   38  162 1    
    79   38  163 1    
    80   39   40 am   BACKBONE|DICT|INTERRES
    81   39  164 1    
    82   40   41 2    
    83   40   42 1    
    84   42   43 1    
    85   42   44 1    
    86   42  165 1    
    87   43  166 1    
    88   43  167 1    
    89   43  168 1    
    90   44   45 am   BACKBONE|DICT|INTERRES
    91   44  169 1    
    92   45   46 2    
    93   45   47 1    
    94   47   48 1    
    95   47   49 1    
    96   47  170 1    
    97   48  171 1    
    98   48  172 1    
    99   48  173 1    
   100   49   50 am   BACKBONE|DICT|INTERRES
   101   49  174 1    
   102   50   51 2    
   103   50   52 1    
   104   52   53 1    
   105   52   54 1    
   106   52  175 1    
   107   53  176 1    
   108   53  177 1    
   109   53  178 1    
   110   54   55 am   BACKBONE|DICT|INTERRES
   111   54  179 1    
   112   55   56 2    
   113   55   57 1    
   114   57   58 1    
   115   57   59 1    
   116   57  180 1    
   117   58  181 1    
   118   58  182 1    
   119   58  183 1    
   120   59   60 am   BACKBONE|DICT|INTERRES
   121   59  184 1    
   122   60   61 2    
   123   60   62 1    
   124   62   63 1    
   125   62   64 1    
   126   62  185 1    
   127   63  186 1    
   128   63  187 1    
   129   63  188 1    
   130   64   65 am   BACKBONE|DICT|INTERRES
   131   64  189 1    
   132   65   66 2    
   133   67   68 2    
   134   67   69 am   BACKBONE|DICT|INTERRES
   135   69   70 1    
   136   69  190 1    
   137   70   71 1    
   138   70   72 1    
   139   70  191 1    
   140   71  192 1    
   141   71  193 1    
   142   71  194 1    
   143   72   73 2    
   144   72   74 am   BACKBONE|DICT|INTERRES
   145   74   75 1    
   146   74  195 1    
   147   75   76 1    
   148   75   77 1    
   149   75  196 1    
   150   76  197 1    
   151   76  198 1    
   152   76  199 1    
   153   77   78 2    
   154   77   79 am   BACKBONE|DICT|INTERRES
   155   79   80 1    
   156   79  200 1    
   157   80   81 1    
   158   80   82 1    
   159   80  201 1    
   160   81  202 1    
   161   81  203 1    
   162   81  204 1    
   163   82   83 2    
   164   82   84 am   BACKBONE|DICT|INTERRES
   165   84   85 1    
   166   84  205 1    
   167   85   86 1    
   168   85   87 1    
   169   85  206 1    
   170   86  207 1    
   171   86  208 1    
   172   86  209 1    
   173   87   88 2    
   174   87   89 am   BACKBONE|DICT|INTERRES
   175   89   90 1    
   176   89  210 1    
   177   90   91 1    
   178   90   92 1    
   179   90  211 1    
   180   91  212 1    
   181   91  213 1    
   182   91  214 1    
   183   92   93 2    
   184   92   94 am   BACKBONE|DICT|INTERRES
   185   94   95 1    
   186   94  215 1    
   187   95   96 1    
   188   95   97 1    
   189   95  216 1    
   190   96  217 1    
   191   96  218 1    
   192   96  219 1    
   193   97   98 2    
   194   97   99 am   BACKBONE|DICT|INTERRES
   195   99  100 1    
   196   99  220 1    
   197  100  101 1    
   198  100  102 1    
   199  100  221 1    
   200  101  222 1    
   201  101  223 1    
   202  101  224 1    
   203  102  103 2    
   204  102  104 am   BACKBONE|DICT|INTERRES
   205  104  105 1    
   206  104  225 1    
   207  105  106 1    
   208  105  107 1    
   209  105  226 1    
   210  106  227 1    
   211  106  228 1    
   212  106  229 1    
   213  107  108 2    
   214  107  109 am   BACKBONE|DICT|INTERRES
   215  109  110 1    
   216  109  230 1    
   217  110  111 1    
   218  110  112 1    
   219  110  231 1    
   220  111  232 1    
   221  111  233 1    
   222  111  234 1    
   223  112  113 2    
   224  112  114 am   BACKBONE|DICT|INTERRES
   225  114  115 1    
   226  114  235 1    
   227  115  116 1    
   228  115  117 1    
   229  115  236 1    
   230  116  237 1    
   231  116  238 1    
   232  116  239 1    
   233  117  118 2    
   234  117  119 am   BACKBONE|DICT|INTERRES
   235  119  120 1    
   236  119  240 1    
   237  120  121 1    
   238  120  124 1    
   239  120  241 1    
   240  121  122 am   BACKBONE|DICT|INTERRES
   241  121  123 2    
   242  122  242 1    
   243  122  243 1    
   244  124  125 1    
   245  124  244 1    
   246  124  245 1    
   247  125  126 1    
   248  126  246 1    
   249  126  247 1    
@<TRIPOS>SUBSTRUCTURE
     1 UNK         1 GROUP             0       ****    0 ROOT    
