@<TRIPOS>MOLECULE
3R540
247   249    1
SMALL
USER_CHARGES


@<TRIPOS>ATOM
      1 CA          4.4690   -9.7649  -46.9121 C.3       0 UNK        -0.1800 
      2 C           3.4552  -10.8870  -46.7452 C.2       0 UNK         0.5000 
      3 O           2.2764  -10.6114  -46.5269 O.2       0 UNK        -0.5000 
      4 N           3.9107  -12.1427  -46.8630 N.am      1 UNK        -0.5000 
      5 CA          3.1324  -13.3823  -46.7232 C.3       1 UNK         0.1400 
      6 C6          4.0461  -14.6198  -46.9526 C.3       23 UNK        -0.0398 
      7 S7          3.2147  -16.2475  -46.8982 S.3       23 UNK        -0.2404 
      8 C8          3.1817  -16.6701  -48.6663 C.3       23 UNK        -0.0205 
      9 C9          2.0683  -17.6502  -48.9926 C.ar      23 UNK        -0.0193 
     10 C10         0.7438  -17.2060  -49.0396 C.ar      23 UNK        -0.1150 
     11 C11        -0.2895  -18.0715  -49.4193 C.ar      23 UNK        -0.0193 
     12 C12         0.0224  -19.4014  -49.7180 C.ar      23 UNK        -0.1150 
     13 C13         1.3396  -19.8642  -49.6604 C.ar      23 UNK        -0.0193 
     14 C14         2.3602  -18.9820  -49.2964 C.ar      23 UNK        -0.1150 
     15 C15         1.6668  -21.3027  -50.0378 C.3       23 UNK        -0.0205 
     16 S16         2.1890  -22.2933  -48.6030 S.3       23 UNK        -0.2404 
     17 C17         0.6369  -22.4382  -47.6582 C.3       23 UNK        -0.0398 
     18 CA          0.3544  -23.8880  -47.1967 C.3       11 UNK         0.1400 
     19 N           1.4298  -24.4362  -46.3668 N.am      11 UNK        -0.5000 
     20 C           1.5648  -25.7280  -46.0407 C.2       10 UNK         0.5000 
     21 O           0.7935  -26.6119  -46.4129 O.2       10 UNK        -0.5000 
     22 CA          2.7390  -26.0795  -45.1085 C.3       10 UNK         0.1400 
     23 CB          4.0376  -26.2420  -45.9124 C.3       10 UNK        -0.1800 
     24 N           2.9397  -25.0775  -44.0592 N.am      10 UNK        -0.5000 
     25 C           2.0762  -24.8536  -43.0588 C.2       9 UNK         0.5000 
     26 O           1.0404  -25.4967  -42.8954 O.2       9 UNK        -0.5000 
     27 CA          2.3950  -23.6794  -42.1138 C.3       9 UNK         0.1400 
     28 CB          3.3621  -24.1246  -41.0068 C.3       9 UNK        -0.1800 
     29 N           2.9390  -22.4958  -42.7896 N.am      9 UNK        -0.5000 
     30 C           2.3270  -21.8297  -43.7779 C.2       8 UNK         0.5000 
     31 O           1.2688  -22.1972  -44.2921 O.2       8 UNK        -0.5000 
     32 CA          3.0394  -20.5697  -44.3058 C.3       8 UNK         0.1400 
     33 CB          4.1596  -20.9591  -45.2826 C.3       8 UNK        -0.1800 
     34 N           2.1213  -19.6590  -44.9913 N.am      8 UNK        -0.5000 
     35 C           1.1065  -19.0084  -44.4080 C.2       7 UNK         0.5000 
     36 O           0.8541  -19.0595  -43.2007 O.2       7 UNK        -0.5000 
     37 CA          0.2024  -18.1942  -45.3532 C.3       7 UNK         0.1400 
     38 CB         -0.9547  -19.0690  -45.8611 C.3       7 UNK        -0.1800 
     39 N          -0.3644  -16.9909  -44.7435 N.am      7 UNK        -0.5000 
     40 C           0.3156  -15.9928  -44.1636 C.2       6 UNK         0.5000 
     41 O           1.5379  -15.9724  -44.0133 O.2       6 UNK        -0.5000 
     42 CA         -0.5325  -14.7831  -43.7427 C.3       6 UNK         0.1400 
     43 CB          0.2697  -13.7311  -42.9549 C.3       6 UNK        -0.1800 
     44 N          -1.0627  -14.1515  -44.9437 N.am      6 UNK        -0.5000 
     45 C          -2.2673  -14.3589  -45.4865 C.2       5 UNK         0.5000 
     46 O          -3.0974  -15.1429  -45.0236 O.2       5 UNK        -0.5000 
     47 CA         -2.5726  -13.5386  -46.7591 C.3       5 UNK         0.1400 
     48 CB         -4.0742  -13.4797  -47.1063 C.3       5 UNK        -0.1800 
     49 N          -1.9791  -12.1967  -46.6976 N.am      5 UNK        -0.5000 
     50 C          -2.2490  -11.2268  -45.8091 C.2       4 UNK         0.5000 
     51 O          -3.1724  -11.2725  -44.9957 O.2       4 UNK        -0.5000 
     52 CA         -1.2974  -10.0153  -45.7890 C.3       4 UNK         0.1400 
     53 CB         -0.3696  -10.0956  -44.5660 C.3       4 UNK        -0.1800 
     54 N          -0.4714   -9.9165  -46.9926 N.am      4 UNK        -0.5000 
     55 C          -0.8823   -9.3907  -48.1536 C.2       3 UNK         0.5000 
     56 O          -1.9990   -8.9022  -48.3295 O.2       3 UNK        -0.5000 
     57 CA          0.1200   -9.4430  -49.3188 C.3       3 UNK         0.1400 
     58 CB          1.1935   -8.3534  -49.1703 C.3       3 UNK        -0.1800 
     59 N           0.7626  -10.7532  -49.4287 N.am      3 UNK        -0.5000 
     60 C           0.1575  -11.8573  -49.8887 C.2       2 UNK         0.5000 
     61 O          -1.0087  -11.8822  -50.2812 O.2       2 UNK        -0.5000 
     62 CA          0.9883  -13.1535  -49.9156 C.3       2 UNK         0.1400 
     63 CB          1.5835  -13.3909  -51.3110 C.3       2 UNK        -0.1800 
     64 N           2.0663  -13.1713  -48.9254 N.am      2 UNK        -0.5000 
     65 C           1.8715  -13.3831  -47.6168 C.2       1 UNK         0.5000 
     66 O           0.7599  -13.5283  -47.1071 O.2       1 UNK        -0.5000 
     67 C          -1.0031  -23.9598  -46.4740 C.2       11 UNK         0.5000 
     68 O          -2.0098  -24.2505  -47.1167 O.2       11 UNK        -0.5000 
     69 N          -0.9941  -23.6941  -45.1605 N.am      12 UNK        -0.5000 
     70 CA         -2.1545  -23.7510  -44.2736 C.3       12 UNK         0.1400 
     71 CB         -1.8290  -22.9868  -42.9816 C.3       12 UNK        -0.1800 
     72 C          -2.6101  -25.1880  -43.9596 C.2       12 UNK         0.5000 
     73 O          -3.8043  -25.4059  -43.7521 O.2       12 UNK        -0.5000 
     74 N          -1.6657  -26.1399  -43.9238 N.am      13 UNK        -0.5000 
     75 CA         -1.9429  -27.5727  -43.7946 C.3       13 UNK         0.1400 
     76 CB         -0.6489  -28.3175  -43.4325 C.3       13 UNK        -0.1800 
     77 C          -2.5682  -28.1553  -45.0762 C.2       13 UNK         0.5000 
     78 O          -3.4563  -29.0053  -44.9936 O.2       13 UNK        -0.5000 
     79 N          -2.1029  -27.6683  -46.2324 N.am      14 UNK        -0.5000 
     80 CA         -2.6788  -27.9145  -47.5513 C.3       14 UNK         0.1400 
     81 CB         -1.5731  -27.6836  -48.5990 C.3       14 UNK        -0.1800 
     82 C          -3.9002  -27.0054  -47.8136 C.2       14 UNK         0.5000 
     83 O          -4.3241  -26.2448  -46.9416 O.2       14 UNK        -0.5000 
     84 N          -4.4400  -27.0780  -49.0365 N.am      15 UNK        -0.5000 
     85 CA         -5.4520  -26.1410  -49.5345 C.3       15 UNK         0.1400 
     86 CB         -6.2515  -26.8235  -50.6551 C.3       15 UNK        -0.1800 
     87 C          -4.8341  -24.8243  -50.0501 C.2       15 UNK         0.5000 
     88 O          -5.5641  -23.8525  -50.2467 O.2       15 UNK        -0.5000 
     89 N          -3.5128  -24.8190  -50.2856 N.am      16 UNK        -0.5000 
     90 CA         -2.7409  -23.7708  -50.9613 C.3       16 UNK         0.1400 
     91 CB         -1.2738  -24.2150  -51.0511 C.3       16 UNK        -0.1800 
     92 C          -2.8405  -22.3604  -50.3513 C.2       16 UNK         0.5000 
     93 O          -2.6205  -21.3896  -51.0695 O.2       16 UNK        -0.5000 
     94 N          -3.1898  -22.2541  -49.0622 N.am      17 UNK        -0.5000 
     95 CA         -3.4857  -20.9868  -48.3884 C.3       17 UNK         0.1400 
     96 CB         -3.6391  -21.2361  -46.8812 C.3       17 UNK        -0.1800 
     97 C          -4.7213  -20.2435  -48.9430 C.2       17 UNK         0.5000 
     98 O          -4.8349  -19.0391  -48.7148 O.2       17 UNK        -0.5000 
     99 N          -5.6178  -20.9581  -49.6376 N.am      18 UNK        -0.5000 
    100 CA        -6.8057  -20.4016  -50.2860 C.3       18 UNK         0.1400 
    101 CB        -8.0573  -20.8869  -49.5374 C.3       18 UNK        -0.1800 
    102 C         -6.8895  -20.7771  -51.7761 C.2       18 UNK         0.5000 
    103 O         -7.4123  -19.9874  -52.5640 O.2       18 UNK        -0.5000 
    104 N         -6.4101  -21.9727  -52.1469 N.am      19 UNK        -0.5000 
    105 CA        -6.3948  -22.4667  -53.5209 C.3       19 UNK         0.1400 
    106 CB        -6.1879  -23.9901  -53.5172 C.3       19 UNK        -0.1800 
    107 C         -5.3069  -21.7597  -54.3469 C.2       19 UNK         0.5000 
    108 O         -4.1199  -21.9203  -54.0557 O.2       19 UNK        -0.5000 
    109 N         -5.7424  -21.0072  -55.3659 N.am      20 UNK        -0.5000 
    110 CA        -4.9627  -20.2189  -56.3276 C.3       20 UNK         0.1400 
    111 CB        -4.0029  -21.1031  -57.1487 C.3       20 UNK        -0.1800 
    112 C         -4.2367  -19.0108  -55.7056 C.2       20 UNK         0.5000 
    113 O         -4.5021  -17.8763  -56.1072 O.2       20 UNK        -0.5000 
    114 N         -3.3402  -19.2614  -54.7454 N.am      21 UNK        -0.5000 
    115 CA        -2.6164  -18.2313  -54.0054 C.3       21 UNK         0.1400 
    116 CB        -1.3761  -18.8491  -53.3424 C.3       21 UNK        -0.1800 
    117 C         -3.5241  -17.5632  -52.9591 C.2       21 UNK         0.5000 
    118 O         -4.3487  -18.2363  -52.3383 O.2       21 UNK        -0.5000 
    119 N         -3.3320  -16.2512  -52.7788 N.am      22 UNK        -0.5000 
    120 CA        -4.0299  -15.3947  -51.8008 C.3       22 UNK         0.1400 
    121 C         -5.5512  -15.1797  -52.0753 C.2       22 UNK         0.5000 
    122 N         -6.0667  -15.5097  -53.2535 N.am      22 UNK        -0.7600 
    123 O         -6.2733  -14.6687  -51.2235 O.2       22 UNK        -0.5000 
    124 C124       -3.7428  -15.7906  -50.3243 C.3       23 UNK        -0.0398 
    125 S125       -1.9560  -15.8524  -49.9531 S.3       23 UNK        -0.2404 
    126 C126       -1.7446  -17.6118  -49.5191 C.3       23 UNK        -0.0205 
    127 H127        5.4815  -10.1476  -47.0424 H         1 UNK         0.0600 
    128 H128        4.4601   -9.1196  -46.0337 H         1 UNK         0.0600 
    129 H129        4.2186   -9.1597  -47.7832 H         1 UNK         0.0600 
    130 H130        4.8954  -12.2735  -47.0459 H         1 UNK         0.3000 
    131 H131        2.7814  -13.4199  -45.6898 H         1 UNK         0.0600 
    132 H132        4.5795  -14.5264  -47.8999 H         1 UNK         0.0800 
    133 H133        4.8219  -14.6341  -46.1859 H         1 UNK         0.0800 
    134 H134        3.0348  -15.7727  -49.2674 H         1 UNK         0.0800 
    135 H135        4.1532  -17.0744  -48.9544 H         1 UNK         0.0800 
    136 H136        0.5291  -16.1772  -48.7905 H         1 UNK         0.1150 
    137 H137       -0.7628  -20.0775  -50.0172 H         1 UNK         0.1150 
    138 H138        3.3828  -19.3315  -49.2679 H         1 UNK         0.1150 
    139 H139        0.8160  -21.7833  -50.5229 H         1 UNK         0.0800 
    140 H140        2.4727  -21.3004  -50.7728 H         1 UNK         0.0800 
    141 H141       -0.1904  -22.0706  -48.2679 H         1 UNK         0.0800 
    142 H142        0.7072  -21.7671  -46.8029 H         1 UNK         0.0800 
    143 H143        0.2822  -24.5183  -48.0842 H         1 UNK         0.0600 
    144 H144        2.0763  -23.7660  -45.9785 H         1 UNK         0.3000 
    145 H145        2.5109  -27.0345  -44.6303 H         1 UNK         0.0600 
    146 H146        4.8601  -26.5615  -45.2723 H         1 UNK         0.0600 
    147 H147        3.9214  -26.9964  -46.6917 H         1 UNK         0.0600 
    148 H148        4.3316  -25.3107  -46.3983 H         1 UNK         0.0600 
    149 H149        3.7657  -24.5013  -44.1234 H         1 UNK         0.3000 
    150 H150        1.4565  -23.3802  -41.6426 H         1 UNK         0.0600 
    151 H151        4.3389  -24.3956  -41.4093 H         1 UNK         0.0600 
    152 H152        2.9733  -24.9942  -40.4749 H         1 UNK         0.0600 
    153 H153        3.5092  -23.3348  -40.2699 H         1 UNK         0.0600 
    154 H154        3.8152  -22.1423  -42.4331 H         1 UNK         0.3000 
    155 H155        3.4754  -20.0369  -43.4584 H         1 UNK         0.0600 
    156 H156        3.7714  -21.5017  -46.1449 H         1 UNK         0.0600 
    157 H157        4.9001  -21.5980  -44.8000 H         1 UNK         0.0600 
    158 H158        4.6855  -20.0781  -45.6514 H         1 UNK         0.0600 
    159 H159        2.2430  -19.5748  -45.9895 H         1 UNK         0.3000 
    160 H160        0.7939  -17.8684  -46.2095 H         1 UNK         0.0600 
    161 H161       -1.5176  -19.5094  -45.0368 H         1 UNK         0.0600 
    162 H162       -0.5849  -19.8846  -46.4806 H         1 UNK         0.0600 
    163 H163       -1.6519  -18.4949  -46.4690 H         1 UNK         0.0600 
    164 H164       -1.3675  -16.8904  -44.8122 H         1 UNK         0.3000 
    165 H165       -1.3452  -15.1394  -43.1063 H         1 UNK         0.0600 
    166 H166       -0.3659  -12.8979  -42.6546 H         1 UNK         0.0600 
    167 H167        0.6927  -14.1620  -42.0468 H         1 UNK         0.0600 
    168 H168        1.0936  -13.3256  -43.5439 H         1 UNK         0.0600 
    169 H169       -0.4016  -13.6055  -45.4869 H         1 UNK         0.3000 
    170 H170       -2.0657  -14.0529  -47.5758 H         1 UNK         0.0600 
    171 H171       -4.4749  -14.4809  -47.2675 H         1 UNK         0.0600 
    172 H172       -4.6605  -13.0219  -46.3097 H         1 UNK         0.0600 
    173 H173       -4.2440  -12.9104  -48.0202 H         1 UNK         0.0600 
    174 H174       -1.1731  -12.0590  -47.2916 H         1 UNK         0.3000 
    175 H175       -1.9071   -9.1140  -45.6974 H         1 UNK         0.0600 
    176 H176       -0.9429  -10.1302  -43.6387 H         1 UNK         0.0600 
    177 H177        0.2581  -10.9873  -44.5974 H         1 UNK         0.0600 
    178 H178        0.2870   -9.2272  -44.5109 H         1 UNK         0.0600 
    179 H179        0.4840  -10.2601  -46.9139 H         1 UNK         0.3000 
    180 H180       -0.4290   -9.2501  -50.2431 H         1 UNK         0.0600 
    181 H181        1.7785   -8.4805  -48.2591 H         1 UNK         0.0600 
    182 H182        0.7381   -7.3631  -49.1299 H         1 UNK         0.0600 
    183 H183        1.8822   -8.3597  -50.0153 H         1 UNK         0.0600 
    184 H184        1.7091  -10.8283  -49.0876 H         1 UNK         0.3000 
    185 H185        0.3074  -13.9773  -49.6978 H         1 UNK         0.0600 
    186 H186        0.8006  -13.4089  -52.0704 H         1 UNK         0.0600 
    187 H187        2.2916  -12.6084  -51.5863 H         1 UNK         0.0600 
    188 H188        2.1019  -14.3487  -51.3599 H         1 UNK         0.0600 
    189 H189        3.0041  -13.0196  -49.2666 H         1 UNK         0.3000 
    190 H190       -0.1215  -23.3808  -44.7419 H         1 UNK         0.3000 
    191 H191       -2.9877  -23.2473  -44.7662 H         1 UNK         0.0600 
    192 H192       -1.5628  -21.9507  -43.1933 H         1 UNK         0.0600 
    193 H193       -2.6865  -22.9733  -42.3079 H         1 UNK         0.0600 
    194 H194       -0.9955  -23.4427  -42.4461 H         1 UNK         0.0600 
    195 H195       -0.6925  -25.8669  -43.9977 H         1 UNK         0.3000 
    196 H196       -2.6554  -27.7143  -42.9794 H         1 UNK         0.0600 
    197 H197       -0.8308  -29.3877  -43.3264 H         1 UNK         0.0600 
    198 H198       -0.2420  -27.9617  -42.4859 H         1 UNK         0.0600 
    199 H199        0.1184  -28.1882  -44.1963 H         1 UNK         0.0600 
    200 H200       -1.3592  -26.9825  -46.1957 H         1 UNK         0.3000 
    201 H201       -3.0089  -28.9535  -47.6109 H         1 UNK         0.0600 
    202 H202       -1.9016  -27.9562  -49.6020 H         1 UNK         0.0600 
    203 H203       -0.6932  -28.2888  -48.3789 H         1 UNK         0.0600 
    204 H204       -1.2560  -26.6401  -48.6238 H         1 UNK         0.0600 
    205 H205       -4.0829  -27.7519  -49.6988 H         1 UNK         0.3000 
    206 H206       -6.1456  -25.8881  -48.7297 H         1 UNK         0.0600 
    207 H207       -6.7226  -27.7407  -50.3014 H         1 UNK         0.0600 
    208 H208       -7.0470  -26.1719  -51.0190 H         1 UNK         0.0600 
    209 H209       -5.6190  -27.0762  -51.5071 H         1 UNK         0.0600 
    210 H210       -3.0022  -25.6558  -50.0523 H         1 UNK         0.3000 
    211 H211       -3.1302  -23.6960  -51.9783 H         1 UNK         0.0600 
    212 H212       -0.8329  -24.3354  -50.0631 H         1 UNK         0.0600 
    213 H213       -0.6751  -23.4817  -51.5929 H         1 UNK         0.0600 
    214 H214       -1.1781  -25.1630  -51.5806 H         1 UNK         0.0600 
    215 H215       -3.2893  -23.1011  -48.5147 H         1 UNK         0.3000 
    216 H216       -2.6294  -20.3261  -48.5294 H         1 UNK         0.0600 
    217 H217       -3.9403  -20.3277  -46.3577 H         1 UNK         0.0600 
    218 H218       -2.6947  -21.5541  -46.4434 H         1 UNK         0.0600 
    219 H219       -4.3874  -22.0017  -46.6728 H         1 UNK         0.0600 
    220 H220       -5.4516  -21.9503  -49.7686 H         1 UNK         0.3000 
    221 H221       -6.7848  -19.3105  -50.2439 H         1 UNK         0.0600 
    222 H222       -8.1287  -21.9754  -49.5392 H         1 UNK         0.0600 
    223 H223       -8.0479  -20.5533  -48.4996 H         1 UNK         0.0600 
    224 H224       -8.9655  -20.4952  -49.9972 H         1 UNK         0.0600 
    225 H225       -6.0286  -22.6011  -51.4453 H         1 UNK         0.3000 
    226 H226       -7.3714  -22.2692  -53.9681 H         1 UNK         0.0600 
    227 H227       -6.2124  -24.3879  -54.5323 H         1 UNK         0.0600 
    228 H228       -5.2290  -24.2691  -53.0806 H         1 UNK         0.0600 
    229 H229       -6.9722  -24.4927  -52.9513 H         1 UNK         0.0600 
    230 H230       -6.7434  -20.9170  -55.4734 H         1 UNK         0.3000 
    231 H231       -5.6945  -19.8118  -57.0272 H         1 UNK         0.0600 
    232 H232       -3.2257  -21.5541  -56.5315 H         1 UNK         0.0600 
    233 H233       -3.5029  -20.5173  -57.9209 H         1 UNK         0.0600 
    234 H234       -4.5411  -21.9079  -57.6493 H         1 UNK         0.0600 
    235 H235       -3.2749  -20.2147  -54.3992 H         1 UNK         0.3000 
    236 H236       -2.2764  -17.4728  -54.7139 H         1 UNK         0.0600 
    237 H237       -0.7030  -19.2783  -54.0844 H         1 UNK         0.0600 
    238 H238       -0.8136  -18.0983  -52.7854 H         1 UNK         0.0600 
    239 H239       -1.6473  -19.6369  -52.6419 H         1 UNK         0.0600 
    240 H240       -2.6349  -15.7814  -53.3380 H         1 UNK         0.3000 
    241 H241       -3.5978  -14.4036  -51.9441 H         1 UNK         0.0600 
    242 H242       -5.4922  -15.9351  -53.9642 H         1 UNK         0.3800 
    243 H243       -7.0477  -15.3563  -53.4260 H         1 UNK         0.3800 
    244 H244       -4.1867  -15.0621  -49.6456 H         1 UNK         0.0800 
    245 H245       -4.2114  -16.7461  -50.0848 H         1 UNK         0.0800 
    246 H246       -2.2468  -17.7979  -48.5708 H         1 UNK         0.0800 
    247 H247       -2.2621  -18.2153  -50.2669 H         1 UNK         0.0800 
@<TRIPOS>BOND
     1    1    2 1    
     2    1  127 1    
     3    1  128 1    
     4    1  129 1    
     5    2    3 2    
     6    2    4 am   BACKBONE|DICT|INTERRES
     7    4    5 1    
     8    4  130 1    
     9    5    6 1    
    10    5   65 1    
    11    5  131 1    
    12    6    7 1    
    13    6  132 1    
    14    6  133 1    
    15    7    8 1    
    16    8    9 1    
    17    8  134 1    
    18    8  135 1    
    19    9   10 ar   
    20    9   14 ar   
    21   10   11 ar   
    22   10  136 1    
    23   11   12 ar   
    24   11  126 1    
    25   12   13 ar   
    26   12  137 1    
    27   13   14 ar   
    28   13   15 1    
    29   14  138 1    
    30   15   16 1    
    31   15  139 1    
    32   15  140 1    
    33   16   17 1    
    34   17   18 1    
    35   17  141 1    
    36   17  142 1    
    37   18   19 1    
    38   18   67 1    
    39   18  143 1    
    40   19   20 am   BACKBONE|DICT|INTERRES
    41   19  144 1    
    42   20   21 2    
    43   20   22 1    
    44   22   23 1    
    45   22   24 1    
    46   22  145 1    
    47   23  146 1    
    48   23  147 1    
    49   23  148 1    
    50   24   25 am   BACKBONE|DICT|INTERRES
    51   24  149 1    
    52   25   26 2    
    53   25   27 1    
    54   27   28 1    
    55   27   29 1    
    56   27  150 1    
    57   28  151 1    
    58   28  152 1    
    59   28  153 1    
    60   29   30 am   BACKBONE|DICT|INTERRES
    61   29  154 1    
    62   30   31 2    
    63   30   32 1    
    64   32   33 1    
    65   32   34 1    
    66   32  155 1    
    67   33  156 1    
    68   33  157 1    
    69   33  158 1    
    70   34   35 am   BACKBONE|DICT|INTERRES
    71   34  159 1    
    72   35   36 2    
    73   35   37 1    
    74   37   38 1    
    75   37   39 1    
    76   37  160 1    
    77   38  161 1    
    78   38  162 1    
    79   38  163 1    
    80   39   40 am   BACKBONE|DICT|INTERRES
    81   39  164 1    
    82   40   41 2    
    83   40   42 1    
    84   42   43 1    
    85   42   44 1    
    86   42  165 1    
    87   43  166 1    
    88   43  167 1    
    89   43  168 1    
    90   44   45 am   BACKBONE|DICT|INTERRES
    91   44  169 1    
    92   45   46 2    
    93   45   47 1    
    94   47   48 1    
    95   47   49 1    
    96   47  170 1    
    97   48  171 1    
    98   48  172 1    
    99   48  173 1    
   100   49   50 am   BACKBONE|DICT|INTERRES
   101   49  174 1    
   102   50   51 2    
   103   50   52 1    
   104   52   53 1    
   105   52   54 1    
   106   52  175 1    
   107   53  176 1    
   108   53  177 1    
   109   53  178 1    
   110   54   55 am   BACKBONE|DICT|INTERRES
   111   54  179 1    
   112   55   56 2    
   113   55   57 1    
   114   57   58 1    
   115   57   59 1    
   116   57  180 1    
   117   58  181 1    
   118   58  182 1    
   119   58  183 1    
   120   59   60 am   BACKBONE|DICT|INTERRES
   121   59  184 1    
   122   60   61 2    
   123   60   62 1    
   124   62   63 1    
   125   62   64 1    
   126   62  185 1    
   127   63  186 1    
   128   63  187 1    
   129   63  188 1    
   130   64   65 am   BACKBONE|DICT|INTERRES
   131   64  189 1    
   132   65   66 2    
   133   67   68 2    
   134   67   69 am   BACKBONE|DICT|INTERRES
   135   69   70 1    
   136   69  190 1    
   137   70   71 1    
   138   70   72 1    
   139   70  191 1    
   140   71  192 1    
   141   71  193 1    
   142   71  194 1    
   143   72   73 2    
   144   72   74 am   BACKBONE|DICT|INTERRES
   145   74   75 1    
   146   74  195 1    
   147   75   76 1    
   148   75   77 1    
   149   75  196 1    
   150   76  197 1    
   151   76  198 1    
   152   76  199 1    
   153   77   78 2    
   154   77   79 am   BACKBONE|DICT|INTERRES
   155   79   80 1    
   156   79  200 1    
   157   80   81 1    
   158   80   82 1    
   159   80  201 1    
   160   81  202 1    
   161   81  203 1    
   162   81  204 1    
   163   82   83 2    
   164   82   84 am   BACKBONE|DICT|INTERRES
   165   84   85 1    
   166   84  205 1    
   167   85   86 1    
   168   85   87 1    
   169   85  206 1    
   170   86  207 1    
   171   86  208 1    
   172   86  209 1    
   173   87   88 2    
   174   87   89 am   BACKBONE|DICT|INTERRES
   175   89   90 1    
   176   89  210 1    
   177   90   91 1    
   178   90   92 1    
   179   90  211 1    
   180   91  212 1    
   181   91  213 1    
   182   91  214 1    
   183   92   93 2    
   184   92   94 am   BACKBONE|DICT|INTERRES
   185   94   95 1    
   186   94  215 1    
   187   95   96 1    
   188   95   97 1    
   189   95  216 1    
   190   96  217 1    
   191   96  218 1    
   192   96  219 1    
   193   97   98 2    
   194   97   99 am   BACKBONE|DICT|INTERRES
   195   99  100 1    
   196   99  220 1    
   197  100  101 1    
   198  100  102 1    
   199  100  221 1    
   200  101  222 1    
   201  101  223 1    
   202  101  224 1    
   203  102  103 2    
   204  102  104 am   BACKBONE|DICT|INTERRES
   205  104  105 1    
   206  104  225 1    
   207  105  106 1    
   208  105  107 1    
   209  105  226 1    
   210  106  227 1    
   211  106  228 1    
   212  106  229 1    
   213  107  108 2    
   214  107  109 am   BACKBONE|DICT|INTERRES
   215  109  110 1    
   216  109  230 1    
   217  110  111 1    
   218  110  112 1    
   219  110  231 1    
   220  111  232 1    
   221  111  233 1    
   222  111  234 1    
   223  112  113 2    
   224  112  114 am   BACKBONE|DICT|INTERRES
   225  114  115 1    
   226  114  235 1    
   227  115  116 1    
   228  115  117 1    
   229  115  236 1    
   230  116  237 1    
   231  116  238 1    
   232  116  239 1    
   233  117  118 2    
   234  117  119 am   BACKBONE|DICT|INTERRES
   235  119  120 1    
   236  119  240 1    
   237  120  121 1    
   238  120  124 1    
   239  120  241 1    
   240  121  122 am   BACKBONE|DICT|INTERRES
   241  121  123 2    
   242  122  242 1    
   243  122  243 1    
   244  124  125 1    
   245  124  244 1    
   246  124  245 1    
   247  125  126 1    
   248  126  246 1    
   249  126  247 1    
@<TRIPOS>SUBSTRUCTURE
     1 UNK         1 GROUP             0       ****    0 ROOT    
