@<TRIPOS>MOLECULE
3R540
247   249    1
SMALL
USER_CHARGES


@<TRIPOS>ATOM
      1 CA          5.3912  -11.4702  -45.5067 C.3       0 UNK        -0.1800 
      2 C           4.6127  -12.7769  -45.5199 C.2       0 UNK         0.5000 
      3 O           5.1054  -13.7887  -45.0216 O.2       0 UNK        -0.5000 
      4 N           3.3901  -12.7625  -46.0682 N.am      1 UNK        -0.5000 
      5 CA          2.5022  -13.9284  -46.1850 C.3       1 UNK         0.1400 
      6 C6          1.2219  -13.5855  -46.9845 C.3       23 UNK        -0.0398 
      7 S7          0.4548  -15.0601  -47.7318 S.3       23 UNK        -0.2404 
      8 C8          0.6373  -14.7014  -49.5046 C.3       23 UNK        -0.0205 
      9 C9          0.1062  -15.8487  -50.3470 C.ar      23 UNK        -0.0193 
     10 C10        -1.1394  -15.7597  -50.9749 C.ar      23 UNK        -0.1150 
     11 C11        -1.6250  -16.8268  -51.7380 C.ar      23 UNK        -0.0193 
     12 C12        -0.8592  -17.9890  -51.8673 C.ar      23 UNK        -0.1150 
     13 C13         0.3893  -18.0847  -51.2478 C.ar      23 UNK        -0.0193 
     14 C14         0.8688  -17.0084  -50.4970 C.ar      23 UNK        -0.1150 
     15 C15         1.2368  -19.3369  -51.3979 C.3       23 UNK        -0.0205 
     16 S16         1.5069  -20.1651  -49.7997 S.3       23 UNK        -0.2404 
     17 C17        -0.0380  -21.1033  -49.5805 C.3       23 UNK        -0.0398 
     18 CA         -0.8612  -20.6286  -48.3545 C.3       11 UNK         0.1400 
     19 N          -1.6198  -19.4029  -48.6425 N.am      11 UNK        -0.5000 
     20 C          -1.8994  -18.4459  -47.7504 C.2       10 UNK         0.5000 
     21 O          -1.4555  -18.4262  -46.6040 O.2       10 UNK        -0.5000 
     22 CA         -2.9403  -17.4058  -48.1784 C.3       10 UNK         0.1400 
     23 CB         -4.3634  -17.9807  -48.0451 C.3       10 UNK        -0.1800 
     24 N          -2.8130  -16.2107  -47.3531 N.am      10 UNK        -0.5000 
     25 C          -3.2502  -14.9970  -47.7081 C.2       9 UNK         0.5000 
     26 O          -3.8488  -14.7778  -48.7627 O.2       9 UNK        -0.5000 
     27 CA         -2.9830  -13.8392  -46.7298 C.3       9 UNK         0.1400 
     28 CB         -3.9884  -12.6802  -46.8849 C.3       9 UNK        -0.1800 
     29 N          -2.9661  -14.2927  -45.3376 N.am      9 UNK        -0.5000 
     30 C          -2.2408  -13.7193  -44.3698 C.2       8 UNK         0.5000 
     31 O          -1.4517  -12.7944  -44.5656 O.2       8 UNK        -0.5000 
     32 CA         -2.4468  -14.2257  -42.9295 C.3       8 UNK         0.1400 
     33 CB         -3.3958  -13.2879  -42.1673 C.3       8 UNK        -0.1800 
     34 N          -2.9435  -15.5992  -42.8111 N.am      8 UNK        -0.5000 
     35 C          -2.2180  -16.6844  -43.1046 C.2       7 UNK         0.5000 
     36 O          -1.1324  -16.6414  -43.6829 O.2       7 UNK        -0.5000 
     37 CA         -2.7884  -18.0402  -42.6480 C.3       7 UNK         0.1400 
     38 CB         -3.4693  -18.7944  -43.8007 C.3       7 UNK        -0.1800 
     39 N          -1.7115  -18.8630  -42.1028 N.am      7 UNK        -0.5000 
     40 C          -1.1920  -18.7170  -40.8758 C.2       6 UNK         0.5000 
     41 O          -1.6829  -17.9932  -40.0083 O.2       6 UNK        -0.5000 
     42 CA          0.1011  -19.4992  -40.5667 C.3       6 UNK         0.1400 
     43 CB         -0.2140  -20.7950  -39.8037 C.3       6 UNK        -0.1800 
     44 N           0.8804  -19.8135  -41.7700 N.am      6 UNK        -0.5000 
     45 C           1.5959  -18.9037  -42.4461 C.2       5 UNK         0.5000 
     46 O           1.7107  -17.7310  -42.0880 O.2       5 UNK        -0.5000 
     47 CA          2.2849  -19.3879  -43.7310 C.3       5 UNK         0.1400 
     48 CB          1.2780  -19.4916  -44.8888 C.3       5 UNK        -0.1800 
     49 N           3.3298  -18.4405  -44.1038 N.am      5 UNK        -0.5000 
     50 C           4.5720  -18.7553  -44.4833 C.2       4 UNK         0.5000 
     51 O           4.9792  -19.9113  -44.6081 O.2       4 UNK        -0.5000 
     52 CA          5.5311  -17.5828  -44.7656 C.3       4 UNK         0.1400 
     53 CB          5.3710  -17.0953  -46.2141 C.3       4 UNK        -0.1800 
     54 N           5.3533  -16.4491  -43.8569 N.am      4 UNK        -0.5000 
     55 C           5.6192  -16.4618  -42.5421 C.2       3 UNK         0.5000 
     56 O           6.0660  -17.4414  -41.9442 O.2       3 UNK        -0.5000 
     57 CA          5.3361  -15.1660  -41.7617 C.3       3 UNK         0.1400 
     58 CB          6.5138  -14.1855  -41.8814 C.3       3 UNK        -0.1800 
     59 N           4.1145  -14.5270  -42.2500 N.am      3 UNK        -0.5000 
     60 C           2.9149  -14.6395  -41.6623 C.2       2 UNK         0.5000 
     61 O           2.7517  -15.1420  -40.5495 O.2       2 UNK        -0.5000 
     62 CA          1.6866  -14.0811  -42.4151 C.3       2 UNK         0.1400 
     63 CB          1.1165  -12.8559  -41.6813 C.3       2 UNK        -0.1800 
     64 N           1.9502  -13.7043  -43.8054 N.am      2 UNK        -0.5000 
     65 C           2.1716  -14.5607  -44.8130 C.2       1 UNK         0.5000 
     66 O           2.2089  -15.7822  -44.6788 O.2       1 UNK        -0.5000 
     67 C          -1.7871  -21.7535  -47.8271 C.2       11 UNK         0.5000 
     68 O          -1.3767  -22.9131  -47.8063 O.2       11 UNK        -0.5000 
     69 N          -3.0098  -21.4119  -47.3894 N.am      12 UNK        -0.5000 
     70 CA         -4.0644  -22.3333  -46.9468 C.3       12 UNK         0.1400 
     71 CB         -5.3104  -21.5166  -46.5706 C.3       12 UNK        -0.1800 
     72 C          -3.6619  -23.2597  -45.7837 C.2       12 UNK         0.5000 
     73 O          -4.1833  -24.3702  -45.6825 O.2       12 UNK        -0.5000 
     74 N          -2.7240  -22.7942  -44.9481 N.am      13 UNK        -0.5000 
     75 CA         -2.1140  -23.5630  -43.8647 C.3       13 UNK         0.1400 
     76 CB         -1.3388  -22.5999  -42.9551 C.3       13 UNK        -0.1800 
     77 C          -1.1894  -24.6925  -44.3636 C.2       13 UNK         0.5000 
     78 O          -1.0236  -25.6863  -43.6553 O.2       13 UNK        -0.5000 
     79 N          -0.6064  -24.5254  -45.5592 N.am      14 UNK        -0.5000 
     80 CA          0.2121  -25.5328  -46.2281 C.3       14 UNK         0.1400 
     81 CB          1.2921  -24.8491  -47.0837 C.3       14 UNK        -0.1800 
     82 C          -0.6721  -26.4582  -47.0778 C.2       14 UNK         0.5000 
     83 O          -0.5805  -27.6779  -46.9318 O.2       14 UNK        -0.5000 
     84 N          -1.5303  -25.8701  -47.9225 N.am      15 UNK        -0.5000 
     85 CA         -2.4861  -26.5825  -48.7642 C.3       15 UNK         0.1400 
     86 CB         -1.7650  -27.2776  -49.9362 C.3       15 UNK        -0.1800 
     87 C          -3.5301  -25.6033  -49.3087 C.2       15 UNK         0.5000 
     88 O          -3.1790  -24.4940  -49.7154 O.2       15 UNK        -0.5000 
     89 N          -4.7866  -26.0564  -49.3995 N.am      16 UNK        -0.5000 
     90 CA         -5.8802  -25.3165  -50.0373 C.3       16 UNK         0.1400 
     91 CB         -7.2077  -26.0446  -49.7840 C.3       16 UNK        -0.1800 
     92 C          -5.6525  -25.1080  -51.5473 C.2       16 UNK         0.5000 
     93 O          -6.0360  -24.0696  -52.0823 O.2       16 UNK        -0.5000 
     94 N          -4.9764  -26.0683  -52.1942 N.am      17 UNK        -0.5000 
     95 CA         -4.5534  -25.9959  -53.5940 C.3       17 UNK         0.1400 
     96 CB         -4.0053  -27.3648  -54.0237 C.3       17 UNK        -0.1800 
     97 C          -3.5097  -24.8921  -53.8566 C.2       17 UNK         0.5000 
     98 O          -3.5002  -24.3163  -54.9447 O.2       17 UNK        -0.5000 
     99 N          -2.6673  -24.5997  -52.8547 N.am      18 UNK        -0.5000 
    100 CA        -1.6828  -23.5198  -52.9057 C.3       18 UNK         0.1400 
    101 CB        -0.5812  -23.7715  -51.8657 C.3       18 UNK        -0.1800 
    102 C         -2.3382  -22.1422  -52.7071 C.2       18 UNK         0.5000 
    103 O         -1.9006  -21.1738  -53.3249 O.2       18 UNK        -0.5000 
    104 N         -3.3926  -22.0771  -51.8806 N.am      19 UNK        -0.5000 
    105 CA        -4.2314  -20.8880  -51.7137 C.3       19 UNK         0.1400 
    106 CB        -5.1303  -21.0597  -50.4832 C.3       19 UNK        -0.1800 
    107 C         -5.0783  -20.5884  -52.9641 C.2       19 UNK         0.5000 
    108 O         -5.1941  -19.4279  -53.3592 O.2       19 UNK        -0.5000 
    109 N         -5.6207  -21.6446  -53.5877 N.am      20 UNK        -0.5000 
    110 CA        -6.4425  -21.5903  -54.8009 C.3       20 UNK         0.1400 
    111 CB        -6.9725  -22.9961  -55.1197 C.3       20 UNK        -0.1800 
    112 C         -5.7284  -20.9938  -56.0299 C.2       20 UNK         0.5000 
    113 O         -6.4038  -20.5074  -56.9380 O.2       20 UNK        -0.5000 
    114 N         -4.3870  -20.9891  -56.0239 N.am      21 UNK        -0.5000 
    115 CA        -3.5370  -20.3504  -57.0320 C.3       21 UNK         0.1400 
    116 CB        -2.0660  -20.6608  -56.7187 C.3       21 UNK        -0.1800 
    117 C         -3.7524  -18.8263  -57.1553 C.2       21 UNK         0.5000 
    118 O         -3.5006  -18.2720  -58.2262 O.2       21 UNK        -0.5000 
    119 N         -4.2389  -18.1847  -56.0833 N.am      22 UNK        -0.5000 
    120 CA        -4.6769  -16.7793  -56.0809 C.3       22 UNK         0.1400 
    121 C         -6.1047  -16.5575  -56.6674 C.2       22 UNK         0.5000 
    122 N         -6.8531  -17.5863  -57.0501 N.am      22 UNK        -0.7600 
    123 O         -6.5432  -15.4172  -56.7935 O.2       22 UNK        -0.5000 
    124 C124       -4.5429  -16.1320  -54.6784 C.3       23 UNK        -0.0398 
    125 S125       -2.8123  -16.0725  -54.1030 S.3       23 UNK        -0.2404 
    126 C126       -2.9793  -16.7293  -52.4177 C.3       23 UNK        -0.0205 
    127 H127        6.3248  -11.5861  -46.0570 H         1 UNK         0.0600 
    128 H128        5.6314  -11.1888  -44.4814 H         1 UNK         0.0600 
    129 H129        4.8259  -10.6561  -45.9608 H         1 UNK         0.0600 
    130 H130        3.0379  -11.8977  -46.4536 H         1 UNK         0.3000 
    131 H131        3.0645  -14.6722  -46.7536 H         1 UNK         0.0600 
    132 H132        0.4872  -13.0765  -46.3595 H         1 UNK         0.0800 
    133 H133        1.4597  -12.8830  -47.7843 H         1 UNK         0.0800 
    134 H134        0.1111  -13.7761  -49.7444 H         1 UNK         0.0800 
    135 H135        1.6900  -14.5338  -49.7375 H         1 UNK         0.0800 
    136 H136       -1.7358  -14.8646  -50.8649 H         1 UNK         0.1150 
    137 H137       -1.2315  -18.8115  -52.4614 H         1 UNK         0.1150 
    138 H138        1.8328  -17.0807  -50.0131 H         1 UNK         0.1150 
    139 H139        0.7936  -20.0350  -52.1103 H         1 UNK         0.0800 
    140 H140        2.2054  -19.0538  -51.8117 H         1 UNK         0.0800 
    141 H141        0.2805  -22.1412  -49.4755 H         1 UNK         0.0800 
    142 H142       -0.6419  -21.0646  -50.4870 H         1 UNK         0.0800 
    143 H143       -0.1601  -20.4315  -47.5407 H         1 UNK         0.0600 
    144 H144       -2.0090  -19.3346  -49.5705 H         1 UNK         0.3000 
    145 H145       -2.7535  -17.1469  -49.2198 H         1 UNK         0.0600 
    146 H146       -5.1143  -17.2669  -48.3838 H         1 UNK         0.0600 
    147 H147       -4.4842  -18.8782  -48.6498 H         1 UNK         0.0600 
    148 H148       -4.5956  -18.2430  -47.0121 H         1 UNK         0.0600 
    149 H149       -2.2517  -16.3311  -46.5175 H         1 UNK         0.3000 
    150 H150       -1.9945  -13.4598  -46.9939 H         1 UNK         0.0600 
    151 H151       -5.0056  -13.0024  -46.6600 H         1 UNK         0.0600 
    152 H152       -3.9833  -12.2851  -47.9014 H         1 UNK         0.0600 
    153 H153       -3.7447  -11.8515  -46.2200 H         1 UNK         0.0600 
    154 H154       -3.5879  -15.0526  -45.1002 H         1 UNK         0.3000 
    155 H155       -1.4741  -14.1869  -42.4366 H         1 UNK         0.0600 
    156 H156       -4.4004  -13.3009  -42.5919 H         1 UNK         0.0600 
    157 H157       -3.0387  -12.2576  -42.2011 H         1 UNK         0.0600 
    158 H158       -3.4697  -13.5685  -41.1165 H         1 UNK         0.0600 
    159 H159       -3.8342  -15.7139  -42.3489 H         1 UNK         0.3000 
    160 H160       -3.5345  -17.8655  -41.8697 H         1 UNK         0.0600 
    161 H161       -3.9868  -19.6814  -43.4348 H         1 UNK         0.0600 
    162 H162       -2.7488  -19.1207  -44.5482 H         1 UNK         0.0600 
    163 H163       -4.2085  -18.1686  -44.3021 H         1 UNK         0.0600 
    164 H164       -1.1948  -19.4149  -42.7691 H         1 UNK         0.3000 
    165 H165        0.7143  -18.8717  -39.9159 H         1 UNK         0.0600 
    166 H166       -0.7127  -20.5752  -38.8589 H         1 UNK         0.0600 
    167 H167       -0.8722  -21.4516  -40.3706 H         1 UNK         0.0600 
    168 H168        0.6954  -21.3480  -39.5680 H         1 UNK         0.0600 
    169 H169        0.8532  -20.7688  -42.0938 H         1 UNK         0.3000 
    170 H170        2.7139  -20.3723  -43.5333 H         1 UNK         0.0600 
    171 H171        0.4741  -20.1912  -44.6614 H         1 UNK         0.0600 
    172 H172        0.8197  -18.5240  -45.1010 H         1 UNK         0.0600 
    173 H173        1.7611  -19.8371  -45.8030 H         1 UNK         0.0600 
    174 H174        3.0624  -17.4618  -44.0236 H         1 UNK         0.3000 
    175 H175        6.5515  -17.9512  -44.6419 H         1 UNK         0.0600 
    176 H176        6.0773  -16.2971  -46.4439 H         1 UNK         0.0600 
    177 H177        5.5524  -17.9057  -46.9211 H         1 UNK         0.0600 
    178 H178        4.3654  -16.7171  -46.4002 H         1 UNK         0.0600 
    179 H179        5.0508  -15.5788  -44.2821 H         1 UNK         0.3000 
    180 H180        5.2323  -15.4297  -40.7072 H         1 UNK         0.0600 
    181 H181        6.7069  -13.9011  -42.9158 H         1 UNK         0.0600 
    182 H182        7.4294  -14.6299  -41.4892 H         1 UNK         0.0600 
    183 H183        6.3256  -13.2743  -41.3136 H         1 UNK         0.0600 
    184 H184        4.1693  -14.1010  -43.1666 H         1 UNK         0.3000 
    185 H185        0.9284  -14.8674  -42.4183 H         1 UNK         0.0600 
    186 H186        0.8183  -13.1129  -40.6641 H         1 UNK         0.0600 
    187 H187        1.8503  -12.0517  -41.6152 H         1 UNK         0.0600 
    188 H188        0.2348  -12.4623  -42.1872 H         1 UNK         0.0600 
    189 H189        1.9719  -12.7149  -44.0046 H         1 UNK         0.3000 
    190 H190       -3.2499  -20.4337  -47.3975 H         1 UNK         0.3000 
    191 H191       -4.3184  -22.9724  -47.7938 H         1 UNK         0.0600 
    192 H192       -5.6784  -20.9367  -47.4167 H         1 UNK         0.0600 
    193 H193       -6.1239  -22.1694  -46.2513 H         1 UNK         0.0600 
    194 H194       -5.1053  -20.8243  -45.7531 H         1 UNK         0.0600 
    195 H195       -2.3602  -21.8681  -45.1123 H         1 UNK         0.3000 
    196 H196       -2.9127  -24.0221  -43.2783 H         1 UNK         0.0600 
    197 H197       -0.8925  -23.1356  -42.1163 H         1 UNK         0.0600 
    198 H198       -1.9969  -21.8350  -42.5425 H         1 UNK         0.0600 
    199 H199       -0.5325  -22.1018  -43.4934 H         1 UNK         0.0600 
    200 H200       -0.8580  -23.7200  -46.1217 H         1 UNK         0.3000 
    201 H201        0.7231  -26.1431  -45.4801 H         1 UNK         0.0600 
    202 H202        1.9457  -25.5906  -47.5447 H         1 UNK         0.0600 
    203 H203        0.8653  -24.2496  -47.8875 H         1 UNK         0.0600 
    204 H204        1.9190  -24.1957  -46.4769 H         1 UNK         0.0600 
    205 H205       -1.5619  -24.8546  -47.9910 H         1 UNK         0.3000 
    206 H206       -2.9958  -27.3322  -48.1554 H         1 UNK         0.0600 
    207 H207       -1.0769  -28.0463  -49.5852 H         1 UNK         0.0600 
    208 H208       -2.4762  -27.7675  -50.6023 H         1 UNK         0.0600 
    209 H209       -1.1922  -26.5660  -50.5317 H         1 UNK         0.0600 
    210 H210       -5.0073  -26.9787  -49.0520 H         1 UNK         0.3000 
    211 H211       -5.9370  -24.3297  -49.5727 H         1 UNK         0.0600 
    212 H212       -7.2043  -27.0499  -50.2072 H         1 UNK         0.0600 
    213 H213       -8.0413  -25.5022  -50.2323 H         1 UNK         0.0600 
    214 H214       -7.4133  -26.1293  -48.7168 H         1 UNK         0.0600 
    215 H215       -4.7078  -26.8942  -51.6808 H         1 UNK         0.3000 
    216 H216       -5.4332  -25.7733  -54.2010 H         1 UNK         0.0600 
    217 H217       -3.7025  -27.3524  -55.0717 H         1 UNK         0.0600 
    218 H218       -4.7597  -28.1442  -53.9144 H         1 UNK         0.0600 
    219 H219       -3.1345  -27.6539  -53.4338 H         1 UNK         0.0600 
    220 H220       -2.7656  -25.0812  -51.9725 H         1 UNK         0.3000 
    221 H221       -1.2141  -23.5231  -53.8923 H         1 UNK         0.0600 
    222 H222       -0.9688  -23.7571  -50.8474 H         1 UNK         0.0600 
    223 H223       -0.1013  -24.7368  -52.0265 H         1 UNK         0.0600 
    224 H224        0.1967  -23.0103  -51.9342 H         1 UNK         0.0600 
    225 H225       -3.6696  -22.9126  -51.3818 H         1 UNK         0.3000 
    226 H226       -3.5773  -20.0317  -51.5388 H         1 UNK         0.0600 
    227 H227       -5.7342  -20.1679  -50.3124 H         1 UNK         0.0600 
    228 H228       -5.8152  -21.9002  -50.5899 H         1 UNK         0.0600 
    229 H229       -4.5336  -21.2296  -49.5915 H         1 UNK         0.0600 
    230 H230       -5.5365  -22.5565  -53.1472 H         1 UNK         0.3000 
    231 H231       -7.2973  -20.9465  -54.5842 H         1 UNK         0.0600 
    232 H232       -6.1606  -23.6906  -55.3340 H         1 UNK         0.0600 
    233 H233       -7.6273  -22.9790  -55.9919 H         1 UNK         0.0600 
    234 H234       -7.5518  -23.3993  -54.2890 H         1 UNK         0.0600 
    235 H235       -3.9143  -21.4113  -55.2373 H         1 UNK         0.3000 
    236 H236       -3.7835  -20.7968  -57.9973 H         1 UNK         0.0600 
    237 H237       -1.8953  -21.7341  -56.6294 H         1 UNK         0.0600 
    238 H238       -1.4133  -20.2912  -57.5105 H         1 UNK         0.0600 
    239 H239       -1.7475  -20.1900  -55.7882 H         1 UNK         0.0600 
    240 H240       -4.4303  -18.7099  -55.2379 H         1 UNK         0.3000 
    241 H241       -4.0127  -16.2242  -56.7462 H         1 UNK         0.0600 
    242 H242       -7.7684  -17.4085  -57.4322 H         1 UNK         0.3800 
    243 H243       -6.5243  -18.5434  -56.9792 H         1 UNK         0.3800 
    244 H244       -5.1617  -16.6679  -53.9567 H         1 UNK         0.0800 
    245 H245       -4.9099  -15.1042  -54.6885 H         1 UNK         0.0800 
    246 H246       -3.4455  -17.7131  -52.4548 H         1 UNK         0.0800 
    247 H247       -3.6470  -16.0890  -51.8385 H         1 UNK         0.0800 
@<TRIPOS>BOND
     1    1    2 1    
     2    1  127 1    
     3    1  128 1    
     4    1  129 1    
     5    2    3 2    
     6    2    4 am   BACKBONE|DICT|INTERRES
     7    4    5 1    
     8    4  130 1    
     9    5    6 1    
    10    5   65 1    
    11    5  131 1    
    12    6    7 1    
    13    6  132 1    
    14    6  133 1    
    15    7    8 1    
    16    8    9 1    
    17    8  134 1    
    18    8  135 1    
    19    9   10 ar   
    20    9   14 ar   
    21   10   11 ar   
    22   10  136 1    
    23   11   12 ar   
    24   11  126 1    
    25   12   13 ar   
    26   12  137 1    
    27   13   14 ar   
    28   13   15 1    
    29   14  138 1    
    30   15   16 1    
    31   15  139 1    
    32   15  140 1    
    33   16   17 1    
    34   17   18 1    
    35   17  141 1    
    36   17  142 1    
    37   18   19 1    
    38   18   67 1    
    39   18  143 1    
    40   19   20 am   BACKBONE|DICT|INTERRES
    41   19  144 1    
    42   20   21 2    
    43   20   22 1    
    44   22   23 1    
    45   22   24 1    
    46   22  145 1    
    47   23  146 1    
    48   23  147 1    
    49   23  148 1    
    50   24   25 am   BACKBONE|DICT|INTERRES
    51   24  149 1    
    52   25   26 2    
    53   25   27 1    
    54   27   28 1    
    55   27   29 1    
    56   27  150 1    
    57   28  151 1    
    58   28  152 1    
    59   28  153 1    
    60   29   30 am   BACKBONE|DICT|INTERRES
    61   29  154 1    
    62   30   31 2    
    63   30   32 1    
    64   32   33 1    
    65   32   34 1    
    66   32  155 1    
    67   33  156 1    
    68   33  157 1    
    69   33  158 1    
    70   34   35 am   BACKBONE|DICT|INTERRES
    71   34  159 1    
    72   35   36 2    
    73   35   37 1    
    74   37   38 1    
    75   37   39 1    
    76   37  160 1    
    77   38  161 1    
    78   38  162 1    
    79   38  163 1    
    80   39   40 am   BACKBONE|DICT|INTERRES
    81   39  164 1    
    82   40   41 2    
    83   40   42 1    
    84   42   43 1    
    85   42   44 1    
    86   42  165 1    
    87   43  166 1    
    88   43  167 1    
    89   43  168 1    
    90   44   45 am   BACKBONE|DICT|INTERRES
    91   44  169 1    
    92   45   46 2    
    93   45   47 1    
    94   47   48 1    
    95   47   49 1    
    96   47  170 1    
    97   48  171 1    
    98   48  172 1    
    99   48  173 1    
   100   49   50 am   BACKBONE|DICT|INTERRES
   101   49  174 1    
   102   50   51 2    
   103   50   52 1    
   104   52   53 1    
   105   52   54 1    
   106   52  175 1    
   107   53  176 1    
   108   53  177 1    
   109   53  178 1    
   110   54   55 am   BACKBONE|DICT|INTERRES
   111   54  179 1    
   112   55   56 2    
   113   55   57 1    
   114   57   58 1    
   115   57   59 1    
   116   57  180 1    
   117   58  181 1    
   118   58  182 1    
   119   58  183 1    
   120   59   60 am   BACKBONE|DICT|INTERRES
   121   59  184 1    
   122   60   61 2    
   123   60   62 1    
   124   62   63 1    
   125   62   64 1    
   126   62  185 1    
   127   63  186 1    
   128   63  187 1    
   129   63  188 1    
   130   64   65 am   BACKBONE|DICT|INTERRES
   131   64  189 1    
   132   65   66 2    
   133   67   68 2    
   134   67   69 am   BACKBONE|DICT|INTERRES
   135   69   70 1    
   136   69  190 1    
   137   70   71 1    
   138   70   72 1    
   139   70  191 1    
   140   71  192 1    
   141   71  193 1    
   142   71  194 1    
   143   72   73 2    
   144   72   74 am   BACKBONE|DICT|INTERRES
   145   74   75 1    
   146   74  195 1    
   147   75   76 1    
   148   75   77 1    
   149   75  196 1    
   150   76  197 1    
   151   76  198 1    
   152   76  199 1    
   153   77   78 2    
   154   77   79 am   BACKBONE|DICT|INTERRES
   155   79   80 1    
   156   79  200 1    
   157   80   81 1    
   158   80   82 1    
   159   80  201 1    
   160   81  202 1    
   161   81  203 1    
   162   81  204 1    
   163   82   83 2    
   164   82   84 am   BACKBONE|DICT|INTERRES
   165   84   85 1    
   166   84  205 1    
   167   85   86 1    
   168   85   87 1    
   169   85  206 1    
   170   86  207 1    
   171   86  208 1    
   172   86  209 1    
   173   87   88 2    
   174   87   89 am   BACKBONE|DICT|INTERRES
   175   89   90 1    
   176   89  210 1    
   177   90   91 1    
   178   90   92 1    
   179   90  211 1    
   180   91  212 1    
   181   91  213 1    
   182   91  214 1    
   183   92   93 2    
   184   92   94 am   BACKBONE|DICT|INTERRES
   185   94   95 1    
   186   94  215 1    
   187   95   96 1    
   188   95   97 1    
   189   95  216 1    
   190   96  217 1    
   191   96  218 1    
   192   96  219 1    
   193   97   98 2    
   194   97   99 am   BACKBONE|DICT|INTERRES
   195   99  100 1    
   196   99  220 1    
   197  100  101 1    
   198  100  102 1    
   199  100  221 1    
   200  101  222 1    
   201  101  223 1    
   202  101  224 1    
   203  102  103 2    
   204  102  104 am   BACKBONE|DICT|INTERRES
   205  104  105 1    
   206  104  225 1    
   207  105  106 1    
   208  105  107 1    
   209  105  226 1    
   210  106  227 1    
   211  106  228 1    
   212  106  229 1    
   213  107  108 2    
   214  107  109 am   BACKBONE|DICT|INTERRES
   215  109  110 1    
   216  109  230 1    
   217  110  111 1    
   218  110  112 1    
   219  110  231 1    
   220  111  232 1    
   221  111  233 1    
   222  111  234 1    
   223  112  113 2    
   224  112  114 am   BACKBONE|DICT|INTERRES
   225  114  115 1    
   226  114  235 1    
   227  115  116 1    
   228  115  117 1    
   229  115  236 1    
   230  116  237 1    
   231  116  238 1    
   232  116  239 1    
   233  117  118 2    
   234  117  119 am   BACKBONE|DICT|INTERRES
   235  119  120 1    
   236  119  240 1    
   237  120  121 1    
   238  120  124 1    
   239  120  241 1    
   240  121  122 am   BACKBONE|DICT|INTERRES
   241  121  123 2    
   242  122  242 1    
   243  122  243 1    
   244  124  125 1    
   245  124  244 1    
   246  124  245 1    
   247  125  126 1    
   248  126  246 1    
   249  126  247 1    
@<TRIPOS>SUBSTRUCTURE
     1 UNK         1 GROUP             0       ****    0 ROOT    
