@<TRIPOS>MOLECULE
3R540
247   249    1
SMALL
USER_CHARGES


@<TRIPOS>ATOM
      1 CA         -0.5012  -16.8747  -48.7413 C.3       0 UNK        -0.1800 
      2 C           0.0775  -15.6863  -49.4924 C.2       0 UNK         0.5000 
      3 O          -0.6752  -14.8313  -49.9504 O.2       0 UNK        -0.5000 
      4 N           1.4114  -15.6233  -49.6066 N.am      1 UNK        -0.5000 
      5 CA          2.1716  -14.6176  -50.3676 C.3       1 UNK         0.1400 
      6 C6          3.6838  -14.9568  -50.4102 C.3       23 UNK        -0.0398 
      7 S7          4.0442  -16.3829  -51.4886 S.3       23 UNK        -0.2404 
      8 C8          3.9649  -17.7923  -50.3355 C.3       23 UNK        -0.0205 
      9 C9          3.2176  -18.9575  -50.9665 C.ar      23 UNK        -0.0193 
     10 C10         1.8691  -18.8185  -51.2993 C.ar      23 UNK        -0.1150 
     11 C11         1.1743  -19.8488  -51.9354 C.ar      23 UNK        -0.0193 
     12 C12         1.8286  -21.0586  -52.1856 C.ar      23 UNK        -0.1150 
     13 C13         3.1639  -21.2330  -51.8058 C.ar      23 UNK        -0.0193 
     14 C14         3.8609  -20.1709  -51.2193 C.ar      23 UNK        -0.1150 
     15 C15         3.8427  -22.5848  -51.9745 C.3       23 UNK        -0.0205 
     16 S16         3.1660  -23.8499  -50.8431 S.3       23 UNK        -0.2404 
     17 C17         3.1854  -22.9917  -49.2246 C.3       23 UNK        -0.0398 
     18 CA          2.3772  -23.6805  -48.0965 C.3       11 UNK         0.1400 
     19 N           2.5485  -22.9447  -46.8396 N.am      11 UNK        -0.5000 
     20 C           2.0700  -23.2791  -45.6339 C.2       10 UNK         0.5000 
     21 O           1.2875  -24.2119  -45.4451 O.2       10 UNK        -0.5000 
     22 CA          2.5830  -22.4498  -44.4343 C.3       10 UNK         0.1400 
     23 CB          3.7758  -21.5293  -44.7663 C.3       10 UNK        -0.1800 
     24 N           1.5061  -21.6311  -43.8929 N.am      10 UNK        -0.5000 
     25 C           0.6316  -22.0280  -42.9602 C.2       9 UNK         0.5000 
     26 O           0.7341  -23.0849  -42.3358 O.2       9 UNK        -0.5000 
     27 CA         -0.5641  -21.0966  -42.6581 C.3       9 UNK         0.1400 
     28 CB         -0.3671  -20.4076  -41.2981 C.3       9 UNK        -0.1800 
     29 N          -0.8440  -20.0688  -43.6678 N.am      9 UNK        -0.5000 
     30 C          -1.0746  -20.2671  -44.9739 C.2       8 UNK         0.5000 
     31 O          -1.0723  -21.3731  -45.5085 O.2       8 UNK        -0.5000 
     32 CA         -1.2753  -19.0160  -45.8490 C.3       8 UNK         0.1400 
     33 CB         -2.7649  -18.6613  -45.9597 C.3       8 UNK        -0.1800 
     34 N          -0.5177  -17.8535  -45.3792 N.am      8 UNK        -0.5000 
     35 C           0.8226  -17.7975  -45.3295 C.2       7 UNK         0.5000 
     36 O           1.5591  -18.7225  -45.6737 O.2       7 UNK        -0.5000 
     37 CA          1.4415  -16.4987  -44.7925 C.3       7 UNK         0.1400 
     38 CB          1.5457  -15.4446  -45.9033 C.3       7 UNK        -0.1800 
     39 N           0.6656  -15.9625  -43.6755 N.am      7 UNK        -0.5000 
     40 C           0.8231  -16.3544  -42.4032 C.2       6 UNK         0.5000 
     41 O           1.6927  -17.1428  -42.0317 O.2       6 UNK        -0.5000 
     42 CA         -0.1697  -15.7867  -41.3704 C.3       6 UNK         0.1400 
     43 CB          0.3597  -14.4691  -40.7842 C.3       6 UNK        -0.1800 
     44 N          -1.5117  -15.5638  -41.9114 N.am      6 UNK        -0.5000 
     45 C          -2.3202  -16.5247  -42.3802 C.2       5 UNK         0.5000 
     46 O          -2.0232  -17.7176  -42.4046 O.2       5 UNK        -0.5000 
     47 CA         -3.6715  -16.0716  -42.9615 C.3       5 UNK         0.1400 
     48 CB         -4.7490  -16.0661  -41.8672 C.3       5 UNK        -0.1800 
     49 N          -3.6322  -14.7570  -43.6067 N.am      5 UNK        -0.5000 
     50 C          -2.8551  -14.4193  -44.6439 C.2       4 UNK         0.5000 
     51 O          -2.0144  -15.1669  -45.1572 O.2       4 UNK        -0.5000 
     52 CA         -3.0207  -12.9829  -45.1520 C.3       4 UNK         0.1400 
     53 CB         -2.1761  -12.0099  -44.3114 C.3       4 UNK        -0.1800 
     54 N          -2.5945  -12.9104  -46.5421 N.am      4 UNK        -0.5000 
     55 C          -3.0986  -12.0866  -47.4686 C.2       3 UNK         0.5000 
     56 O          -4.0365  -11.3144  -47.2609 O.2       3 UNK        -0.5000 
     57 CA         -2.4097  -12.1302  -48.8479 C.3       3 UNK         0.1400 
     58 CB         -2.8362  -10.9862  -49.7904 C.3       3 UNK        -0.1800 
     59 N          -0.9508  -12.2066  -48.7278 N.am      3 UNK        -0.5000 
     60 C          -0.1331  -11.3146  -48.1440 C.2       2 UNK         0.5000 
     61 O          -0.5048  -10.2197  -47.7203 O.2       2 UNK        -0.5000 
     62 CA          1.3434  -11.7206  -47.9516 C.3       2 UNK         0.1400 
     63 CB          1.6794  -11.7960  -46.4528 C.3       2 UNK        -0.1800 
     64 N           1.6747  -13.0061  -48.5723 N.am      2 UNK        -0.5000 
     65 C           1.9568  -13.1705  -49.8718 C.2       1 UNK         0.5000 
     66 O           2.0297  -12.2390  -50.6737 O.2       1 UNK        -0.5000 
     67 C           0.9012  -23.9155  -48.4904 C.2       11 UNK         0.5000 
     68 O           0.5593  -25.0313  -48.8850 O.2       11 UNK        -0.5000 
     69 N           0.0505  -22.8840  -48.3750 N.am      12 UNK        -0.5000 
     70 CA         -1.3567  -22.9720  -48.7741 C.3       12 UNK         0.1400 
     71 CB         -1.9955  -21.5774  -48.8428 C.3       12 UNK        -0.1800 
     72 C          -2.1590  -23.9239  -47.8713 C.2       12 UNK         0.5000 
     73 O          -2.8699  -24.7836  -48.3873 O.2       12 UNK        -0.5000 
     74 N          -1.9868  -23.8031  -46.5493 N.am      13 UNK        -0.5000 
     75 CA         -2.6081  -24.6741  -45.5520 C.3       13 UNK         0.1400 
     76 CB         -2.3724  -24.1066  -44.1479 C.3       13 UNK        -0.1800 
     77 C          -2.1162  -26.1288  -45.6404 C.2       13 UNK         0.5000 
     78 O          -2.9191  -27.0441  -45.4603 O.2       13 UNK        -0.5000 
     79 N          -0.8325  -26.3266  -45.9764 N.am      14 UNK        -0.5000 
     80 CA         -0.2469  -27.6409  -46.2601 C.3       14 UNK         0.1400 
     81 CB          1.2775  -27.5082  -46.3922 C.3       14 UNK        -0.1800 
     82 C          -0.8533  -28.3142  -47.5101 C.2       14 UNK         0.5000 
     83 O          -0.9614  -29.5401  -47.5471 O.2       14 UNK        -0.5000 
     84 N          -1.2785  -27.5012  -48.4862 N.am      15 UNK        -0.5000 
     85 CA         -2.0188  -27.9157  -49.6798 C.3       15 UNK         0.1400 
     86 CB         -1.6767  -26.9499  -50.8274 C.3       15 UNK        -0.1800 
     87 C          -3.5467  -27.9886  -49.4522 C.2       15 UNK         0.5000 
     88 O          -4.2742  -28.3042  -50.3947 O.2       15 UNK        -0.5000 
     89 N          -4.0067  -27.6979  -48.2246 N.am      16 UNK        -0.5000 
     90 CA         -5.4011  -27.6488  -47.7697 C.3       16 UNK         0.1400 
     91 CB         -6.0564  -29.0442  -47.8426 C.3       16 UNK        -0.1800 
     92 C          -6.2364  -26.5453  -48.4561 C.2       16 UNK         0.5000 
     93 O          -7.4344  -26.7290  -48.6818 O.2       16 UNK        -0.5000 
     94 N          -5.5926  -25.4145  -48.7639 N.am      17 UNK        -0.5000 
     95 CA         -6.1835  -24.2268  -49.3724 C.3       17 UNK         0.1400 
     96 CB         -5.4387  -23.9483  -50.6911 C.3       17 UNK        -0.1800 
     97 C          -6.0680  -23.0200  -48.4228 C.2       17 UNK         0.5000 
     98 O          -5.3978  -23.0912  -47.3909 O.2       17 UNK        -0.5000 
     99 N          -6.7024  -21.9123  -48.8182 N.am      18 UNK        -0.5000 
    100 CA        -6.5955  -20.5952  -48.1885 C.3       18 UNK         0.1400 
    101 CB        -7.9113  -20.2641  -47.4616 C.3       18 UNK        -0.1800 
    102 C         -6.2326  -19.5756  -49.2825 C.2       18 UNK         0.5000 
    103 O         -6.9100  -18.5603  -49.4537 O.2       18 UNK        -0.5000 
    104 N         -5.1941  -19.9155  -50.0564 N.am      19 UNK        -0.5000 
    105 CA        -4.7589  -19.2469  -51.2812 C.3       19 UNK         0.1400 
    106 CB        -3.8931  -20.2310  -52.0877 C.3       19 UNK        -0.1800 
    107 C         -4.0567  -17.8934  -51.0437 C.2       19 UNK         0.5000 
    108 O         -2.9085  -17.7087  -51.4451 O.2       19 UNK        -0.5000 
    109 N         -4.7810  -16.9330  -50.4557 N.am      20 UNK        -0.5000 
    110 CA        -4.3649  -15.5304  -50.3165 C.3       20 UNK         0.1400 
    111 CB        -5.3988  -14.7833  -49.4609 C.3       20 UNK        -0.1800 
    112 C         -4.1506  -14.8142  -51.6703 C.2       20 UNK         0.5000 
    113 O         -3.4464  -13.8065  -51.7270 O.2       20 UNK        -0.5000 
    114 N         -4.7161  -15.3807  -52.7470 N.am      21 UNK        -0.5000 
    115 CA        -4.5018  -15.0017  -54.1450 C.3       21 UNK         0.1400 
    116 CB        -5.4092  -15.8686  -55.0318 C.3       21 UNK        -0.1800 
    117 C         -3.0337  -15.1015  -54.6156 C.2       21 UNK         0.5000 
    118 O         -2.6886  -14.4737  -55.6179 O.2       21 UNK        -0.5000 
    119 N         -2.1924  -15.8536  -53.8893 N.am      22 UNK        -0.5000 
    120 CA        -0.7298  -15.8496  -54.0518 C.3       22 UNK         0.1400 
    121 C         -0.0500  -14.4920  -53.6926 C.2       22 UNK         0.5000 
    122 N         -0.6809  -13.5965  -52.9406 N.am      22 UNK        -0.7600 
    123 O          1.0770  -14.2465  -54.1127 O.2       22 UNK        -0.5000 
    124 C124       -0.0559  -16.9961  -53.2583 C.3       23 UNK        -0.0398 
    125 S125       -0.5043  -18.6698  -53.8357 S.3       23 UNK        -0.2404 
    126 C126       -0.2878  -19.6602  -52.3160 C.3       23 UNK        -0.0205 
    127 H127       -1.0881  -16.5271  -47.8914 H         1 UNK         0.0600 
    128 H128        0.2787  -17.5418  -48.3745 H         1 UNK         0.0600 
    129 H129       -1.1566  -17.4483  -49.3957 H         1 UNK         0.0600 
    130 H130        1.9673  -16.3562  -49.1943 H         1 UNK         0.3000 
    131 H131        1.7917  -14.6426  -51.3901 H         1 UNK         0.0600 
    132 H132        4.2537  -14.1190  -50.8172 H         1 UNK         0.0800 
    133 H133        4.0816  -15.1293  -49.4086 H         1 UNK         0.0800 
    134 H134        3.4681  -17.5144  -49.4065 H         1 UNK         0.0800 
    135 H135        4.9814  -18.0810  -50.0636 H         1 UNK         0.0800 
    136 H136        1.3684  -17.8893  -51.0849 H         1 UNK         0.1150 
    137 H137        1.2928  -21.8769  -52.6459 H         1 UNK         0.1150 
    138 H138        4.8971  -20.2970  -50.9380 H         1 UNK         0.1150 
    139 H139        4.9174  -22.5003  -51.8057 H         1 UNK         0.0800 
    140 H140        3.7206  -22.9251  -53.0037 H         1 UNK         0.0800 
    141 H141        2.8058  -21.9776  -49.3460 H         1 UNK         0.0800 
    142 H142        4.2288  -22.8887  -48.9233 H         1 UNK         0.0800 
    143 H143        2.8165  -24.6670  -47.9347 H         1 UNK         0.0600 
    144 H144        3.1697  -22.1502  -46.8811 H         1 UNK         0.3000 
    145 H145        2.9208  -23.1623  -43.6789 H         1 UNK         0.0600 
    146 H146        4.1383  -21.0297  -43.8676 H         1 UNK         0.0600 
    147 H147        4.6139  -22.0967  -45.1732 H         1 UNK         0.0600 
    148 H148        3.5105  -20.7523  -45.4845 H         1 UNK         0.0600 
    149 H149        1.3275  -20.7562  -44.3682 H         1 UNK         0.3000 
    150 H150       -1.4493  -21.7299  -42.5889 H         1 UNK         0.0600 
    151 H151       -0.1425  -21.1332  -40.5151 H         1 UNK         0.0600 
    152 H152       -1.2671  -19.8753  -40.9910 H         1 UNK         0.0600 
    153 H153        0.4541  -19.6905  -41.3284 H         1 UNK         0.0600 
    154 H154       -0.9403  -19.1222  -43.3140 H         1 UNK         0.3000 
    155 H155       -0.9104  -19.2546  -46.8496 H         1 UNK         0.0600 
    156 H156       -3.2093  -18.5065  -44.9780 H         1 UNK         0.0600 
    157 H157       -2.9196  -17.7580  -46.5502 H         1 UNK         0.0600 
    158 H158       -3.3210  -19.4660  -46.4422 H         1 UNK         0.0600 
    159 H159       -1.0533  -17.0372  -45.1075 H         1 UNK         0.3000 
    160 H160        2.4554  -16.7279  -44.4567 H         1 UNK         0.0600 
    161 H161        0.5642  -15.1236  -46.2537 H         1 UNK         0.0600 
    162 H162        2.0971  -15.8364  -46.7584 H         1 UNK         0.0600 
    163 H163        2.0854  -14.5681  -45.5469 H         1 UNK         0.0600 
    164 H164       -0.1023  -15.3462  -43.9055 H         1 UNK         0.3000 
    165 H165       -0.2533  -16.5144  -40.5603 H         1 UNK         0.0600 
    166 H166       -0.2905  -14.1006  -39.9906 H         1 UNK         0.0600 
    167 H167        1.3523  -14.6047  -40.3523 H         1 UNK         0.0600 
    168 H168        0.4361  -13.6914  -41.5453 H         1 UNK         0.0600 
    169 H169       -1.8404  -14.6100  -41.9340 H         1 UNK         0.3000 
    170 H170       -3.9673  -16.7967  -43.7196 H         1 UNK         0.0600 
    171 H171       -4.8193  -17.0414  -41.3833 H         1 UNK         0.0600 
    172 H172       -4.5328  -15.3299  -41.0920 H         1 UNK         0.0600 
    173 H173       -5.7318  -15.8401  -42.2814 H         1 UNK         0.0600 
    174 H174       -4.2762  -14.0694  -43.2426 H         1 UNK         0.3000 
    175 H175       -4.0761  -12.7127  -45.0751 H         1 UNK         0.0600 
    176 H176       -1.1148  -12.2587  -44.3546 H         1 UNK         0.0600 
    177 H177       -2.2910  -10.9843  -44.6628 H         1 UNK         0.0600 
    178 H178       -2.4773  -12.0285  -43.2634 H         1 UNK         0.0600 
    179 H179       -1.8678  -13.5663  -46.7945 H         1 UNK         0.3000 
    180 H180       -2.7200  -13.0675  -49.3071 H         1 UNK         0.0600 
    181 H181       -2.6067  -10.0053  -49.3740 H         1 UNK         0.0600 
    182 H182       -3.9096  -11.0200  -49.9795 H         1 UNK         0.0600 
    183 H183       -2.3370  -11.0692  -50.7558 H         1 UNK         0.0600 
    184 H184       -0.5517  -13.0689  -49.0855 H         1 UNK         0.3000 
    185 H185        1.9614  -10.9391  -48.3987 H         1 UNK         0.0600 
    186 H186        2.7075  -12.1199  -46.2899 H         1 UNK         0.0600 
    187 H187        1.0167  -12.4832  -45.9262 H         1 UNK         0.0600 
    188 H188        1.5709  -10.8189  -45.9805 H         1 UNK         0.0600 
    189 H189        1.6296  -13.8222  -47.9820 H         1 UNK         0.3000 
    190 H190        0.3736  -22.0106  -47.9866 H         1 UNK         0.3000 
    191 H191       -1.3836  -23.3863  -49.7847 H         1 UNK         0.0600 
    192 H192       -2.0624  -21.1104  -47.8635 H         1 UNK         0.0600 
    193 H193       -3.0097  -21.6453  -49.2346 H         1 UNK         0.0600 
    194 H194       -1.4330  -20.9124  -49.4983 H         1 UNK         0.0600 
    195 H195       -1.4237  -23.0325  -46.1951 H         1 UNK         0.3000 
    196 H196       -3.6840  -24.6772  -45.7395 H         1 UNK         0.0600 
    197 H197       -2.8437  -24.7302  -43.3875 H         1 UNK         0.0600 
    198 H198       -2.7930  -23.1055  -44.0558 H         1 UNK         0.0600 
    199 H199       -1.3085  -24.0532  -43.9183 H         1 UNK         0.0600 
    200 H200       -0.2191  -25.5220  -46.0603 H         1 UNK         0.3000 
    201 H201       -0.4558  -28.2880  -45.4058 H         1 UNK         0.0600 
    202 H202        1.7166  -27.0875  -45.4874 H         1 UNK         0.0600 
    203 H203        1.5566  -26.8674  -47.2281 H         1 UNK         0.0600 
    204 H204        1.7408  -28.4817  -46.5569 H         1 UNK         0.0600 
    205 H205       -1.1203  -26.5052  -48.3875 H         1 UNK         0.3000 
    206 H206       -1.6898  -28.9143  -49.9739 H         1 UNK         0.0600 
    207 H207       -0.6009  -26.9075  -50.9994 H         1 UNK         0.0600 
    208 H208       -2.1420  -27.2679  -51.7611 H         1 UNK         0.0600 
    209 H209       -2.0203  -25.9366  -50.6195 H         1 UNK         0.0600 
    210 H210       -3.3255  -27.4410  -47.5212 H         1 UNK         0.3000 
    211 H211       -5.3589  -27.3691  -46.7164 H         1 UNK         0.0600 
    212 H212       -6.2049  -29.3707  -48.8721 H         1 UNK         0.0600 
    213 H213       -7.0330  -29.0431  -47.3573 H         1 UNK         0.0600 
    214 H214       -5.4461  -29.7927  -47.3371 H         1 UNK         0.0600 
    215 H215       -4.6092  -25.3183  -48.5148 H         1 UNK         0.3000 
    216 H216       -7.2416  -24.3866  -49.5882 H         1 UNK         0.0600 
    217 H217       -5.8744  -23.1045  -51.2270 H         1 UNK         0.0600 
    218 H218       -5.4869  -24.8104  -51.3567 H         1 UNK         0.0600 
    219 H219       -4.3854  -23.7221  -50.5196 H         1 UNK         0.0600 
    220 H220       -7.2235  -21.9339  -49.6843 H         1 UNK         0.3000 
    221 H221       -5.7836  -20.5780  -47.4582 H         1 UNK         0.0600 
    222 H222       -8.7572  -20.2412  -48.1497 H         1 UNK         0.0600 
    223 H223       -8.1282  -21.0021  -46.6893 H         1 UNK         0.0600 
    224 H224       -7.8548  -19.2903  -46.9737 H         1 UNK         0.0600 
    225 H225       -4.6997  -20.7623  -49.8234 H         1 UNK         0.3000 
    226 H226       -5.6461  -19.0330  -51.8808 H         1 UNK         0.0600 
    227 H227       -4.4535  -21.1291  -52.3475 H         1 UNK         0.0600 
    228 H228       -3.5519  -19.7835  -53.0224 H         1 UNK         0.0600 
    229 H229       -3.0105  -20.5385  -51.5283 H         1 UNK         0.0600 
    230 H230       -5.7064  -17.1819  -50.1173 H         1 UNK         0.3000 
    231 H231       -3.4082  -15.5168  -49.7904 H         1 UNK         0.0600 
    232 H232       -5.1322  -13.7321  -49.3457 H         1 UNK         0.0600 
    233 H233       -5.4653  -15.2125  -48.4609 H         1 UNK         0.0600 
    234 H234       -6.3921  -14.8209  -49.9097 H         1 UNK         0.0600 
    235 H235       -5.2866  -16.1977  -52.5930 H         1 UNK         0.3000 
    236 H236       -4.8059  -13.9588  -54.2534 H         1 UNK         0.0600 
    237 H237       -6.4591  -15.7425  -54.7668 H         1 UNK         0.0600 
    238 H238       -5.3066  -15.5949  -56.0828 H         1 UNK         0.0600 
    239 H239       -5.1634  -16.9276  -54.9431 H         1 UNK         0.0600 
    240 H240       -2.5462  -16.3662  -53.0900 H         1 UNK         0.3000 
    241 H241       -0.5235  -16.0171  -55.1105 H         1 UNK         0.0600 
    242 H242       -1.5971  -13.7855  -52.5478 H         1 UNK         0.3800 
    243 H243       -0.2170  -12.7311  -52.7183 H         1 UNK         0.3800 
    244 H244        1.0316  -16.9179  -53.3171 H         1 UNK         0.0800 
    245 H245       -0.3209  -16.9006  -52.2050 H         1 UNK         0.0800 
    246 H246       -0.7581  -20.6320  -52.4699 H         1 UNK         0.0800 
    247 H247       -0.8208  -19.1949  -51.4872 H         1 UNK         0.0800 
@<TRIPOS>BOND
     1    1    2 1    
     2    1  127 1    
     3    1  128 1    
     4    1  129 1    
     5    2    3 2    
     6    2    4 am   BACKBONE|DICT|INTERRES
     7    4    5 1    
     8    4  130 1    
     9    5    6 1    
    10    5   65 1    
    11    5  131 1    
    12    6    7 1    
    13    6  132 1    
    14    6  133 1    
    15    7    8 1    
    16    8    9 1    
    17    8  134 1    
    18    8  135 1    
    19    9   10 ar   
    20    9   14 ar   
    21   10   11 ar   
    22   10  136 1    
    23   11   12 ar   
    24   11  126 1    
    25   12   13 ar   
    26   12  137 1    
    27   13   14 ar   
    28   13   15 1    
    29   14  138 1    
    30   15   16 1    
    31   15  139 1    
    32   15  140 1    
    33   16   17 1    
    34   17   18 1    
    35   17  141 1    
    36   17  142 1    
    37   18   19 1    
    38   18   67 1    
    39   18  143 1    
    40   19   20 am   BACKBONE|DICT|INTERRES
    41   19  144 1    
    42   20   21 2    
    43   20   22 1    
    44   22   23 1    
    45   22   24 1    
    46   22  145 1    
    47   23  146 1    
    48   23  147 1    
    49   23  148 1    
    50   24   25 am   BACKBONE|DICT|INTERRES
    51   24  149 1    
    52   25   26 2    
    53   25   27 1    
    54   27   28 1    
    55   27   29 1    
    56   27  150 1    
    57   28  151 1    
    58   28  152 1    
    59   28  153 1    
    60   29   30 am   BACKBONE|DICT|INTERRES
    61   29  154 1    
    62   30   31 2    
    63   30   32 1    
    64   32   33 1    
    65   32   34 1    
    66   32  155 1    
    67   33  156 1    
    68   33  157 1    
    69   33  158 1    
    70   34   35 am   BACKBONE|DICT|INTERRES
    71   34  159 1    
    72   35   36 2    
    73   35   37 1    
    74   37   38 1    
    75   37   39 1    
    76   37  160 1    
    77   38  161 1    
    78   38  162 1    
    79   38  163 1    
    80   39   40 am   BACKBONE|DICT|INTERRES
    81   39  164 1    
    82   40   41 2    
    83   40   42 1    
    84   42   43 1    
    85   42   44 1    
    86   42  165 1    
    87   43  166 1    
    88   43  167 1    
    89   43  168 1    
    90   44   45 am   BACKBONE|DICT|INTERRES
    91   44  169 1    
    92   45   46 2    
    93   45   47 1    
    94   47   48 1    
    95   47   49 1    
    96   47  170 1    
    97   48  171 1    
    98   48  172 1    
    99   48  173 1    
   100   49   50 am   BACKBONE|DICT|INTERRES
   101   49  174 1    
   102   50   51 2    
   103   50   52 1    
   104   52   53 1    
   105   52   54 1    
   106   52  175 1    
   107   53  176 1    
   108   53  177 1    
   109   53  178 1    
   110   54   55 am   BACKBONE|DICT|INTERRES
   111   54  179 1    
   112   55   56 2    
   113   55   57 1    
   114   57   58 1    
   115   57   59 1    
   116   57  180 1    
   117   58  181 1    
   118   58  182 1    
   119   58  183 1    
   120   59   60 am   BACKBONE|DICT|INTERRES
   121   59  184 1    
   122   60   61 2    
   123   60   62 1    
   124   62   63 1    
   125   62   64 1    
   126   62  185 1    
   127   63  186 1    
   128   63  187 1    
   129   63  188 1    
   130   64   65 am   BACKBONE|DICT|INTERRES
   131   64  189 1    
   132   65   66 2    
   133   67   68 2    
   134   67   69 am   BACKBONE|DICT|INTERRES
   135   69   70 1    
   136   69  190 1    
   137   70   71 1    
   138   70   72 1    
   139   70  191 1    
   140   71  192 1    
   141   71  193 1    
   142   71  194 1    
   143   72   73 2    
   144   72   74 am   BACKBONE|DICT|INTERRES
   145   74   75 1    
   146   74  195 1    
   147   75   76 1    
   148   75   77 1    
   149   75  196 1    
   150   76  197 1    
   151   76  198 1    
   152   76  199 1    
   153   77   78 2    
   154   77   79 am   BACKBONE|DICT|INTERRES
   155   79   80 1    
   156   79  200 1    
   157   80   81 1    
   158   80   82 1    
   159   80  201 1    
   160   81  202 1    
   161   81  203 1    
   162   81  204 1    
   163   82   83 2    
   164   82   84 am   BACKBONE|DICT|INTERRES
   165   84   85 1    
   166   84  205 1    
   167   85   86 1    
   168   85   87 1    
   169   85  206 1    
   170   86  207 1    
   171   86  208 1    
   172   86  209 1    
   173   87   88 2    
   174   87   89 am   BACKBONE|DICT|INTERRES
   175   89   90 1    
   176   89  210 1    
   177   90   91 1    
   178   90   92 1    
   179   90  211 1    
   180   91  212 1    
   181   91  213 1    
   182   91  214 1    
   183   92   93 2    
   184   92   94 am   BACKBONE|DICT|INTERRES
   185   94   95 1    
   186   94  215 1    
   187   95   96 1    
   188   95   97 1    
   189   95  216 1    
   190   96  217 1    
   191   96  218 1    
   192   96  219 1    
   193   97   98 2    
   194   97   99 am   BACKBONE|DICT|INTERRES
   195   99  100 1    
   196   99  220 1    
   197  100  101 1    
   198  100  102 1    
   199  100  221 1    
   200  101  222 1    
   201  101  223 1    
   202  101  224 1    
   203  102  103 2    
   204  102  104 am   BACKBONE|DICT|INTERRES
   205  104  105 1    
   206  104  225 1    
   207  105  106 1    
   208  105  107 1    
   209  105  226 1    
   210  106  227 1    
   211  106  228 1    
   212  106  229 1    
   213  107  108 2    
   214  107  109 am   BACKBONE|DICT|INTERRES
   215  109  110 1    
   216  109  230 1    
   217  110  111 1    
   218  110  112 1    
   219  110  231 1    
   220  111  232 1    
   221  111  233 1    
   222  111  234 1    
   223  112  113 2    
   224  112  114 am   BACKBONE|DICT|INTERRES
   225  114  115 1    
   226  114  235 1    
   227  115  116 1    
   228  115  117 1    
   229  115  236 1    
   230  116  237 1    
   231  116  238 1    
   232  116  239 1    
   233  117  118 2    
   234  117  119 am   BACKBONE|DICT|INTERRES
   235  119  120 1    
   236  119  240 1    
   237  120  121 1    
   238  120  124 1    
   239  120  241 1    
   240  121  122 am   BACKBONE|DICT|INTERRES
   241  121  123 2    
   242  122  242 1    
   243  122  243 1    
   244  124  125 1    
   245  124  244 1    
   246  124  245 1    
   247  125  126 1    
   248  126  246 1    
   249  126  247 1    
@<TRIPOS>SUBSTRUCTURE
     1 UNK         1 GROUP             0       ****    0 ROOT    
