@<TRIPOS>MOLECULE
3R540
247   249    1
SMALL
USER_CHARGES


@<TRIPOS>ATOM
      1 CA          1.1504   -9.0046  -48.4666 C.3       0 UNK        -0.1800 
      2 C           1.3689  -10.2681  -47.6474 C.2       0 UNK         0.5000 
      3 O           1.6941  -10.1822  -46.4635 O.2       0 UNK        -0.5000 
      4 N           1.1756  -11.4412  -48.2659 N.am      1 UNK        -0.5000 
      5 CA          1.3409  -12.7693  -47.6557 C.3       1 UNK         0.1400 
      6 C6          1.2231  -13.9063  -48.7020 C.3       23 UNK        -0.0398 
      7 S7         -0.3628  -13.9106  -49.6161 S.3       23 UNK        -0.2404 
      8 C8         -1.0549  -15.5288  -49.1544 C.3       23 UNK        -0.0205 
      9 C9         -0.3999  -16.6599  -49.9327 C.ar      23 UNK        -0.0193 
     10 C10        -0.7129  -16.8459  -51.2813 C.ar      23 UNK        -0.1150 
     11 C11        -0.1295  -17.8850  -52.0107 C.ar      23 UNK        -0.0193 
     12 C12         0.7853  -18.7350  -51.3842 C.ar      23 UNK        -0.1150 
     13 C13         1.1104  -18.5586  -50.0358 C.ar      23 UNK        -0.0193 
     14 C14         0.5108  -17.5210  -49.3143 C.ar      23 UNK        -0.1150 
     15 C15         2.1344  -19.4656  -49.3662 C.3       23 UNK        -0.0205 
     16 S16         1.6495  -21.2223  -49.3568 S.3       23 UNK        -0.2404 
     17 C17         0.0054  -21.2035  -48.5650 C.3       23 UNK        -0.0398 
     18 CA         -0.1643  -22.3907  -47.5829 C.3       11 UNK         0.1400 
     19 N           0.3638  -22.1061  -46.2450 N.am      11 UNK        -0.5000 
     20 C           0.5413  -23.0324  -45.2916 C.2       10 UNK         0.5000 
     21 O           0.3068  -24.2297  -45.4542 O.2       10 UNK        -0.5000 
     22 CA          1.0075  -22.5387  -43.9094 C.3       10 UNK         0.1400 
     23 CB          2.4907  -22.1443  -43.9304 C.3       10 UNK        -0.1800 
     24 N           0.2062  -21.4197  -43.4162 N.am      10 UNK        -0.5000 
     25 C          -1.1058  -21.4813  -43.1492 C.2       9 UNK         0.5000 
     26 O          -1.7759  -22.5092  -43.2345 O.2       9 UNK        -0.5000 
     27 CA         -1.8005  -20.1593  -42.7804 C.3       9 UNK         0.1400 
     28 CB         -1.7560  -19.9007  -41.2664 C.3       9 UNK        -0.1800 
     29 N          -1.2442  -19.0209  -43.5160 N.am      9 UNK        -0.5000 
     30 C          -1.4141  -18.8525  -44.8339 C.2       8 UNK         0.5000 
     31 O          -2.0228  -19.6467  -45.5495 O.2       8 UNK        -0.5000 
     32 CA         -0.7861  -17.6049  -45.4692 C.3       8 UNK         0.1400 
     33 CB         -1.5303  -16.3349  -45.0401 C.3       8 UNK        -0.1800 
     34 N           0.6455  -17.4456  -45.2141 N.am      8 UNK        -0.5000 
     35 C           1.5905  -18.3193  -45.5858 C.2       7 UNK         0.5000 
     36 O           1.3462  -19.4434  -46.0186 O.2       7 UNK        -0.5000 
     37 CA          3.0511  -17.8592  -45.4736 C.3       7 UNK         0.1400 
     38 CB          3.2804  -16.4846  -46.1277 C.3       7 UNK        -0.1800 
     39 N           3.4230  -17.8056  -44.0681 N.am      7 UNK        -0.5000 
     40 C           4.1760  -18.7204  -43.4423 C.2       6 UNK         0.5000 
     41 O           4.7856  -19.6189  -44.0227 O.2       6 UNK        -0.5000 
     42 CA          4.2638  -18.6346  -41.9032 C.3       6 UNK         0.1400 
     43 CB          5.6304  -18.0790  -41.4732 C.3       6 UNK        -0.1800 
     44 N           3.2129  -17.8212  -41.2877 N.am      6 UNK        -0.5000 
     45 C           1.8973  -18.0736  -41.3415 C.2       5 UNK         0.5000 
     46 O           1.4130  -19.0640  -41.8876 O.2       5 UNK        -0.5000 
     47 CA          0.9694  -16.9848  -40.7660 C.3       5 UNK         0.1400 
     48 CB          0.6819  -17.2468  -39.2809 C.3       5 UNK        -0.1800 
     49 N           1.5173  -15.6325  -40.9302 N.am      5 UNK        -0.5000 
     50 C           1.7525  -15.0563  -42.1170 C.2       4 UNK         0.5000 
     51 O           1.4718  -15.5857  -43.1929 O.2       4 UNK        -0.5000 
     52 CA          2.4838  -13.7100  -42.1037 C.3       4 UNK         0.1400 
     53 CB          3.7803  -13.7918  -42.9272 C.3       4 UNK        -0.1800 
     54 N           1.6244  -12.6787  -42.6744 N.am      4 UNK        -0.5000 
     55 C           1.2615  -11.5549  -42.0395 C.2       3 UNK         0.5000 
     56 O           1.5927  -11.2932  -40.8819 O.2       3 UNK        -0.5000 
     57 CA          0.4040  -10.5288  -42.8084 C.3       3 UNK         0.1400 
     58 CB          1.2504   -9.3052  -43.1927 C.3       3 UNK        -0.1800 
     59 N          -0.2173  -11.0701  -44.0158 N.am      3 UNK        -0.5000 
     60 C          -1.2873  -11.8773  -44.0211 C.2       2 UNK         0.5000 
     61 O          -1.8865  -12.2166  -43.0002 O.2       2 UNK        -0.5000 
     62 CA         -1.7745  -12.4009  -45.3876 C.3       2 UNK         0.1400 
     63 CB         -3.0044  -11.6095  -45.8573 C.3       2 UNK        -0.1800 
     64 N          -0.7646  -12.3660  -46.4482 N.am      2 UNK        -0.5000 
     65 C           0.4115  -13.0111  -46.4460 C.2       1 UNK         0.5000 
     66 O           0.7923  -13.7319  -45.5258 O.2       1 UNK        -0.5000 
     67 C          -1.6238  -22.8850  -47.5308 C.2       11 UNK         0.5000 
     68 O          -1.9483  -23.8537  -48.2184 O.2       11 UNK        -0.5000 
     69 N          -2.4648  -22.2632  -46.6904 N.am      12 UNK        -0.5000 
     70 CA         -3.8572  -22.6652  -46.4776 C.3       12 UNK         0.1400 
     71 CB         -4.5715  -21.6362  -45.5911 C.3       12 UNK        -0.1800 
     72 C          -3.9991  -24.0839  -45.8958 C.2       12 UNK         0.5000 
     73 O          -4.8917  -24.8202  -46.3153 O.2       12 UNK        -0.5000 
     74 N          -3.1049  -24.4521  -44.9678 N.am      13 UNK        -0.5000 
     75 CA         -3.0076  -25.7994  -44.4076 C.3       13 UNK         0.1400 
     76 CB         -2.1145  -25.7750  -43.1580 C.3       13 UNK        -0.1800 
     77 C          -2.4874  -26.8284  -45.4284 C.2       13 UNK         0.5000 
     78 O          -2.9648  -27.9639  -45.4341 O.2       13 UNK        -0.5000 
     79 N          -1.5258  -26.4192  -46.2689 N.am      14 UNK        -0.5000 
     80 CA         -0.9356  -27.2474  -47.3202 C.3       14 UNK         0.1400 
     81 CB          0.3289  -26.5718  -47.8729 C.3       14 UNK        -0.1800 
     82 C          -1.9249  -27.5728  -48.4536 C.2       14 UNK         0.5000 
     83 O          -2.0146  -28.7348  -48.8538 O.2       14 UNK        -0.5000 
     84 N          -2.6550  -26.5600  -48.9392 N.am      15 UNK        -0.5000 
     85 CA         -3.6642  -26.7069  -49.9858 C.3       15 UNK         0.1400 
     86 CB         -3.0031  -26.8765  -51.3689 C.3       15 UNK        -0.1800 
     87 C          -4.6466  -25.5291  -49.9695 C.2       15 UNK         0.5000 
     88 O          -5.8302  -25.7273  -49.6930 O.2       15 UNK        -0.5000 
     89 N          -4.1423  -24.3306  -50.2777 N.am      16 UNK        -0.5000 
     90 CA         -4.8879  -23.0812  -50.3753 C.3       16 UNK         0.1400 
     91 CB         -5.7669  -23.0759  -51.6390 C.3       16 UNK        -0.1800 
     92 C          -3.8852  -21.9216  -50.4210 C.2       16 UNK         0.5000 
     93 O          -2.7453  -22.1199  -50.8478 O.2       16 UNK        -0.5000 
     94 N          -4.3351  -20.7368  -49.9999 N.am      17 UNK        -0.5000 
     95 CA         -3.5854  -19.4879  -50.0601 C.3       17 UNK         0.1400 
     96 CB         -3.1915  -19.0581  -48.6392 C.3       17 UNK        -0.1800 
     97 C          -4.4756  -18.4295  -50.7223 C.2       17 UNK         0.5000 
     98 O          -5.6648  -18.3507  -50.4062 O.2       17 UNK        -0.5000 
     99 N          -3.8756  -17.6483  -51.6283 N.am      18 UNK        -0.5000 
    100 CA        -4.4646  -16.5660  -52.4275 C.3       18 UNK         0.1400 
    101 CB        -4.9098  -15.4017  -51.5188 C.3       18 UNK        -0.1800 
    102 C         -5.5753  -17.0165  -53.4046 C.2       18 UNK         0.5000 
    103 O         -6.3374  -16.1762  -53.8859 O.2       18 UNK        -0.5000 
    104 N         -5.6417  -18.3192  -53.7019 N.am      19 UNK        -0.5000 
    105 CA        -6.6335  -18.9648  -54.5557 C.3       19 UNK         0.1400 
    106 CB        -8.0066  -18.9805  -53.8522 C.3       19 UNK        -0.1800 
    107 C         -6.1707  -20.3978  -54.8576 C.2       19 UNK         0.5000 
    108 O         -5.2273  -20.8781  -54.2224 O.2       19 UNK        -0.5000 
    109 N         -6.8671  -21.0505  -55.8006 N.am      20 UNK        -0.5000 
    110 CA        -6.7701  -22.4628  -56.1912 C.3       20 UNK         0.1400 
    111 CB        -7.4491  -23.3534  -55.1297 C.3       20 UNK        -0.1800 
    112 C         -5.3344  -22.9085  -56.5310 C.2       20 UNK         0.5000 
    113 O         -4.8987  -22.7251  -57.6687 O.2       20 UNK        -0.5000 
    114 N         -4.6184  -23.4482  -55.5343 N.am      21 UNK        -0.5000 
    115 CA        -3.2176  -23.8745  -55.5983 C.3       21 UNK         0.1400 
    116 CB        -2.8163  -24.4505  -54.2317 C.3       21 UNK        -0.1800 
    117 C         -2.2372  -22.7611  -56.0208 C.2       21 UNK         0.5000 
    118 O         -1.1926  -23.0649  -56.5986 O.2       21 UNK        -0.5000 
    119 N         -2.6032  -21.5004  -55.7579 N.am      22 UNK        -0.5000 
    120 CA        -1.8970  -20.3040  -56.2421 C.3       22 UNK         0.1400 
    121 C         -2.0631  -20.0259  -57.7673 C.2       22 UNK         0.5000 
    122 N         -2.9510  -20.7005  -58.4891 N.am      22 UNK        -0.7600 
    123 O         -1.3620  -19.1778  -58.3121 O.2       22 UNK        -0.5000 
    124 C124       -2.2750  -19.0481  -55.4201 C.3       23 UNK        -0.0398 
    125 S125       -1.8846  -19.2299  -53.6488 S.3       23 UNK        -0.2404 
    126 C126       -0.4858  -18.0828  -53.4740 C.3       23 UNK        -0.0205 
    127 H127        2.0671   -8.4160  -48.4987 H         1 UNK         0.0600 
    128 H128        0.3683   -8.3953  -48.0138 H         1 UNK         0.0600 
    129 H129        0.8552   -9.2316  -49.4913 H         1 UNK         0.0600 
    130 H130        0.8903  -11.4471  -49.2353 H         1 UNK         0.3000 
    131 H131        2.3588  -12.8020  -47.2612 H         1 UNK         0.0600 
    132 H132        2.0245  -13.8070  -49.4351 H         1 UNK         0.0800 
    133 H133        1.3865  -14.8751  -48.2282 H         1 UNK         0.0800 
    134 H134       -2.1257  -15.5260  -49.3622 H         1 UNK         0.0800 
    135 H135       -0.9550  -15.6800  -48.0793 H         1 UNK         0.0800 
    136 H136       -1.4068  -16.1713  -51.7626 H         1 UNK         0.1150 
    137 H137        1.2440  -19.5374  -51.9450 H         1 UNK         0.1150 
    138 H138        0.7619  -17.3763  -48.2744 H         1 UNK         0.1150 
    139 H139        3.0813  -19.3725  -49.8991 H         1 UNK         0.0800 
    140 H140        2.3360  -19.1436  -48.3468 H         1 UNK         0.0800 
    141 H141       -0.7218  -21.2459  -49.3774 H         1 UNK         0.0800 
    142 H142       -0.1666  -20.2529  -48.0588 H         1 UNK         0.0800 
    143 H143        0.4108  -23.2326  -47.9739 H         1 UNK         0.0600 
    144 H144        0.6127  -21.1378  -46.0519 H         1 UNK         0.3000 
    145 H145        0.8885  -23.3644  -43.2048 H         1 UNK         0.0600 
    146 H146        2.8314  -21.8331  -42.9427 H         1 UNK         0.0600 
    147 H147        3.1130  -22.9840  -44.2415 H         1 UNK         0.0600 
    148 H148        2.6801  -21.3238  -44.6223 H         1 UNK         0.0600 
    149 H149        0.6798  -20.5340  -43.2817 H         1 UNK         0.3000 
    150 H150       -2.8516  -20.2498  -43.0613 H         1 UNK         0.0600 
    151 H151       -2.3162  -20.6687  -40.7319 H         1 UNK         0.0600 
    152 H152       -2.2020  -18.9388  -41.0132 H         1 UNK         0.0600 
    153 H153       -0.7409  -19.9171  -40.8738 H         1 UNK         0.0600 
    154 H154       -0.6600  -18.3762  -43.0054 H         1 UNK         0.3000 
    155 H155       -0.9116  -17.7098  -46.5483 H         1 UNK         0.0600 
    156 H156       -1.3441  -16.0866  -43.9945 H         1 UNK         0.0600 
    157 H157       -2.6078  -16.4415  -45.1725 H         1 UNK         0.0600 
    158 H158       -1.2123  -15.4903  -45.6467 H         1 UNK         0.0600 
    159 H159        0.9294  -16.5754  -44.7703 H         1 UNK         0.3000 
    160 H160        3.6659  -18.5849  -46.0101 H         1 UNK         0.0600 
    161 H161        4.3346  -16.2097  -46.0942 H         1 UNK         0.0600 
    162 H162        2.7189  -15.6909  -45.6352 H         1 UNK         0.0600 
    163 H163        2.9828  -16.4989  -47.1765 H         1 UNK         0.0600 
    164 H164        2.9272  -17.1214  -43.5106 H         1 UNK         0.3000 
    165 H165        4.1667  -19.6514  -41.5171 H         1 UNK         0.0600 
    166 H166        5.7376  -18.0885  -40.3884 H         1 UNK         0.0600 
    167 H167        6.4438  -18.6794  -41.8830 H         1 UNK         0.0600 
    168 H168        5.7735  -17.0540  -41.8176 H         1 UNK         0.0600 
    169 H169        3.5148  -16.9775  -40.8237 H         1 UNK         0.3000 
    170 H170        0.0243  -17.0331  -41.3106 H         1 UNK         0.0600 
    171 H171        0.2556  -18.2402  -39.1349 H         1 UNK         0.0600 
    172 H172        1.5884  -17.1866  -38.6773 H         1 UNK         0.0600 
    173 H173       -0.0343  -16.5265  -38.8852 H         1 UNK         0.0600 
    174 H174        1.7648  -15.1390  -40.0842 H         1 UNK         0.3000 
    175 H175        2.7561  -13.4742  -41.0730 H         1 UNK         0.0600 
    176 H176        3.5782  -13.9920  -43.9804 H         1 UNK         0.0600 
    177 H177        4.3405  -12.8586  -42.8686 H         1 UNK         0.0600 
    178 H178        4.4309  -14.5865  -42.5596 H         1 UNK         0.0600 
    179 H179        1.2683  -12.8715  -43.6051 H         1 UNK         0.3000 
    180 H180       -0.3864  -10.1927  -42.1339 H         1 UNK         0.0600 
    181 H181        2.0868   -9.5818  -43.8355 H         1 UNK         0.0600 
    182 H182        1.6649   -8.8226  -42.3067 H         1 UNK         0.0600 
    183 H183        0.6540   -8.5598  -43.7191 H         1 UNK         0.0600 
    184 H184        0.2373  -10.8502  -44.8941 H         1 UNK         0.3000 
    185 H185       -2.0772  -13.4378  -45.2437 H         1 UNK         0.0600 
    186 H186       -3.7965  -11.6344  -45.1076 H         1 UNK         0.0600 
    187 H187       -2.7611  -10.5627  -46.0435 H         1 UNK         0.0600 
    188 H188       -3.4163  -12.0283  -46.7757 H         1 UNK         0.0600 
    189 H189       -0.9771  -11.7894  -47.2491 H         1 UNK         0.3000 
    190 H190       -2.1456  -21.4459  -46.1759 H         1 UNK         0.3000 
    191 H191       -4.3488  -22.6628  -47.4504 H         1 UNK         0.0600 
    192 H192       -4.1121  -21.5700  -44.6053 H         1 UNK         0.0600 
    193 H193       -5.6190  -21.9038  -45.4480 H         1 UNK         0.0600 
    194 H194       -4.5485  -20.6437  -46.0413 H         1 UNK         0.0600 
    195 H195       -2.4420  -23.7660  -44.6197 H         1 UNK         0.3000 
    196 H196       -4.0077  -26.1125  -44.1005 H         1 UNK         0.0600 
    197 H197       -2.0309  -26.7689  -42.7169 H         1 UNK         0.0600 
    198 H198       -2.5247  -25.1138  -42.3945 H         1 UNK         0.0600 
    199 H199       -1.1058  -25.4314  -43.3899 H         1 UNK         0.0600 
    200 H200       -1.1442  -25.4859  -46.1568 H         1 UNK         0.3000 
    201 H201       -0.6329  -28.1926  -46.8647 H         1 UNK         0.0600 
    202 H202        1.0605  -26.3972  -47.0839 H         1 UNK         0.0600 
    203 H203        0.1049  -25.6135  -48.3404 H         1 UNK         0.0600 
    204 H204        0.8070  -27.1987  -48.6265 H         1 UNK         0.0600 
    205 H205       -2.5208  -25.6228  -48.5627 H         1 UNK         0.3000 
    206 H206       -4.2484  -27.6059  -49.7768 H         1 UNK         0.0600 
    207 H207       -3.7562  -26.9206  -52.1563 H         1 UNK         0.0600 
    208 H208       -2.3277  -26.0522  -51.5999 H         1 UNK         0.0600 
    209 H209       -2.4284  -27.8008  -51.4252 H         1 UNK         0.0600 
    210 H210       -3.1462  -24.2217  -50.4314 H         1 UNK         0.3000 
    211 H211       -5.5181  -22.9735  -49.4906 H         1 UNK         0.0600 
    212 H212       -5.1648  -23.2133  -52.5367 H         1 UNK         0.0600 
    213 H213       -6.2990  -22.1295  -51.7449 H         1 UNK         0.0600 
    214 H214       -6.5171  -23.8659  -51.6125 H         1 UNK         0.0600 
    215 H215       -5.3050  -20.6326  -49.7329 H         1 UNK         0.3000 
    216 H216       -2.6758  -19.6099  -50.6529 H         1 UNK         0.0600 
    217 H217       -2.6234  -18.1283  -48.6525 H         1 UNK         0.0600 
    218 H218       -2.5682  -19.8128  -48.1643 H         1 UNK         0.0600 
    219 H219       -4.0647  -18.9025  -48.0046 H         1 UNK         0.0600 
    220 H220       -2.9079  -17.8508  -51.8438 H         1 UNK         0.3000 
    221 H221       -3.6572  -16.1937  -53.0594 H         1 UNK         0.0600 
    222 H222       -5.7581  -15.6788  -50.8925 H         1 UNK         0.0600 
    223 H223       -4.0997  -15.0800  -50.8646 H         1 UNK         0.0600 
    224 H224       -5.2093  -14.5346  -52.1084 H         1 UNK         0.0600 
    225 H225       -4.9641  -18.9599  -53.3067 H         1 UNK         0.3000 
    226 H226       -6.7021  -18.4179  -55.4980 H         1 UNK         0.0600 
    227 H227       -8.7606  -19.4829  -54.4589 H         1 UNK         0.0600 
    228 H228       -7.9562  -19.4999  -52.8942 H         1 UNK         0.0600 
    229 H229       -8.3737  -17.9718  -53.6639 H         1 UNK         0.0600 
    230 H230       -7.5898  -20.5349  -56.2830 H         1 UNK         0.3000 
    231 H231       -7.3432  -22.5678  -57.1137 H         1 UNK         0.0600 
    232 H232       -8.5147  -23.1334  -55.0653 H         1 UNK         0.0600 
    233 H233       -7.0275  -23.2066  -54.1369 H         1 UNK         0.0600 
    234 H234       -7.3541  -24.4108  -55.3803 H         1 UNK         0.0600 
    235 H235       -5.0529  -23.4921  -54.6250 H         1 UNK         0.3000 
    236 H236       -3.1510  -24.6701  -56.3428 H         1 UNK         0.0600 
    237 H237       -3.4672  -25.2768  -53.9478 H         1 UNK         0.0600 
    238 H238       -1.7952  -24.8333  -54.2524 H         1 UNK         0.0600 
    239 H239       -2.8670  -23.6953  -53.4457 H         1 UNK         0.0600 
    240 H240       -3.4652  -21.3417  -55.2476 H         1 UNK         0.3000 
    241 H241       -0.8295  -20.4772  -56.0926 H         1 UNK         0.0600 
    242 H242       -3.5443  -21.4139  -58.0761 H         1 UNK         0.3800 
    243 H243       -3.0326  -20.5034  -59.4738 H         1 UNK         0.3800 
    244 H244       -1.7649  -18.1647  -55.8082 H         1 UNK         0.0800 
    245 H245       -3.3421  -18.8429  -55.5155 H         1 UNK         0.0800 
    246 H246        0.3731  -18.4703  -54.0243 H         1 UNK         0.0800 
    247 H247       -0.7362  -17.1212  -53.9248 H         1 UNK         0.0800 
@<TRIPOS>BOND
     1    1    2 1    
     2    1  127 1    
     3    1  128 1    
     4    1  129 1    
     5    2    3 2    
     6    2    4 am   BACKBONE|DICT|INTERRES
     7    4    5 1    
     8    4  130 1    
     9    5    6 1    
    10    5   65 1    
    11    5  131 1    
    12    6    7 1    
    13    6  132 1    
    14    6  133 1    
    15    7    8 1    
    16    8    9 1    
    17    8  134 1    
    18    8  135 1    
    19    9   10 ar   
    20    9   14 ar   
    21   10   11 ar   
    22   10  136 1    
    23   11   12 ar   
    24   11  126 1    
    25   12   13 ar   
    26   12  137 1    
    27   13   14 ar   
    28   13   15 1    
    29   14  138 1    
    30   15   16 1    
    31   15  139 1    
    32   15  140 1    
    33   16   17 1    
    34   17   18 1    
    35   17  141 1    
    36   17  142 1    
    37   18   19 1    
    38   18   67 1    
    39   18  143 1    
    40   19   20 am   BACKBONE|DICT|INTERRES
    41   19  144 1    
    42   20   21 2    
    43   20   22 1    
    44   22   23 1    
    45   22   24 1    
    46   22  145 1    
    47   23  146 1    
    48   23  147 1    
    49   23  148 1    
    50   24   25 am   BACKBONE|DICT|INTERRES
    51   24  149 1    
    52   25   26 2    
    53   25   27 1    
    54   27   28 1    
    55   27   29 1    
    56   27  150 1    
    57   28  151 1    
    58   28  152 1    
    59   28  153 1    
    60   29   30 am   BACKBONE|DICT|INTERRES
    61   29  154 1    
    62   30   31 2    
    63   30   32 1    
    64   32   33 1    
    65   32   34 1    
    66   32  155 1    
    67   33  156 1    
    68   33  157 1    
    69   33  158 1    
    70   34   35 am   BACKBONE|DICT|INTERRES
    71   34  159 1    
    72   35   36 2    
    73   35   37 1    
    74   37   38 1    
    75   37   39 1    
    76   37  160 1    
    77   38  161 1    
    78   38  162 1    
    79   38  163 1    
    80   39   40 am   BACKBONE|DICT|INTERRES
    81   39  164 1    
    82   40   41 2    
    83   40   42 1    
    84   42   43 1    
    85   42   44 1    
    86   42  165 1    
    87   43  166 1    
    88   43  167 1    
    89   43  168 1    
    90   44   45 am   BACKBONE|DICT|INTERRES
    91   44  169 1    
    92   45   46 2    
    93   45   47 1    
    94   47   48 1    
    95   47   49 1    
    96   47  170 1    
    97   48  171 1    
    98   48  172 1    
    99   48  173 1    
   100   49   50 am   BACKBONE|DICT|INTERRES
   101   49  174 1    
   102   50   51 2    
   103   50   52 1    
   104   52   53 1    
   105   52   54 1    
   106   52  175 1    
   107   53  176 1    
   108   53  177 1    
   109   53  178 1    
   110   54   55 am   BACKBONE|DICT|INTERRES
   111   54  179 1    
   112   55   56 2    
   113   55   57 1    
   114   57   58 1    
   115   57   59 1    
   116   57  180 1    
   117   58  181 1    
   118   58  182 1    
   119   58  183 1    
   120   59   60 am   BACKBONE|DICT|INTERRES
   121   59  184 1    
   122   60   61 2    
   123   60   62 1    
   124   62   63 1    
   125   62   64 1    
   126   62  185 1    
   127   63  186 1    
   128   63  187 1    
   129   63  188 1    
   130   64   65 am   BACKBONE|DICT|INTERRES
   131   64  189 1    
   132   65   66 2    
   133   67   68 2    
   134   67   69 am   BACKBONE|DICT|INTERRES
   135   69   70 1    
   136   69  190 1    
   137   70   71 1    
   138   70   72 1    
   139   70  191 1    
   140   71  192 1    
   141   71  193 1    
   142   71  194 1    
   143   72   73 2    
   144   72   74 am   BACKBONE|DICT|INTERRES
   145   74   75 1    
   146   74  195 1    
   147   75   76 1    
   148   75   77 1    
   149   75  196 1    
   150   76  197 1    
   151   76  198 1    
   152   76  199 1    
   153   77   78 2    
   154   77   79 am   BACKBONE|DICT|INTERRES
   155   79   80 1    
   156   79  200 1    
   157   80   81 1    
   158   80   82 1    
   159   80  201 1    
   160   81  202 1    
   161   81  203 1    
   162   81  204 1    
   163   82   83 2    
   164   82   84 am   BACKBONE|DICT|INTERRES
   165   84   85 1    
   166   84  205 1    
   167   85   86 1    
   168   85   87 1    
   169   85  206 1    
   170   86  207 1    
   171   86  208 1    
   172   86  209 1    
   173   87   88 2    
   174   87   89 am   BACKBONE|DICT|INTERRES
   175   89   90 1    
   176   89  210 1    
   177   90   91 1    
   178   90   92 1    
   179   90  211 1    
   180   91  212 1    
   181   91  213 1    
   182   91  214 1    
   183   92   93 2    
   184   92   94 am   BACKBONE|DICT|INTERRES
   185   94   95 1    
   186   94  215 1    
   187   95   96 1    
   188   95   97 1    
   189   95  216 1    
   190   96  217 1    
   191   96  218 1    
   192   96  219 1    
   193   97   98 2    
   194   97   99 am   BACKBONE|DICT|INTERRES
   195   99  100 1    
   196   99  220 1    
   197  100  101 1    
   198  100  102 1    
   199  100  221 1    
   200  101  222 1    
   201  101  223 1    
   202  101  224 1    
   203  102  103 2    
   204  102  104 am   BACKBONE|DICT|INTERRES
   205  104  105 1    
   206  104  225 1    
   207  105  106 1    
   208  105  107 1    
   209  105  226 1    
   210  106  227 1    
   211  106  228 1    
   212  106  229 1    
   213  107  108 2    
   214  107  109 am   BACKBONE|DICT|INTERRES
   215  109  110 1    
   216  109  230 1    
   217  110  111 1    
   218  110  112 1    
   219  110  231 1    
   220  111  232 1    
   221  111  233 1    
   222  111  234 1    
   223  112  113 2    
   224  112  114 am   BACKBONE|DICT|INTERRES
   225  114  115 1    
   226  114  235 1    
   227  115  116 1    
   228  115  117 1    
   229  115  236 1    
   230  116  237 1    
   231  116  238 1    
   232  116  239 1    
   233  117  118 2    
   234  117  119 am   BACKBONE|DICT|INTERRES
   235  119  120 1    
   236  119  240 1    
   237  120  121 1    
   238  120  124 1    
   239  120  241 1    
   240  121  122 am   BACKBONE|DICT|INTERRES
   241  121  123 2    
   242  122  242 1    
   243  122  243 1    
   244  124  125 1    
   245  124  244 1    
   246  124  245 1    
   247  125  126 1    
   248  126  246 1    
   249  126  247 1    
@<TRIPOS>SUBSTRUCTURE
     1 UNK         1 GROUP             0       ****    0 ROOT    
