@<TRIPOS>MOLECULE
3R540
247   249    1
SMALL
USER_CHARGES


@<TRIPOS>ATOM
      1 CA          5.9406  -11.1453  -48.9274 C.3       0 UNK        -0.1800 
      2 C           4.5182  -11.6439  -48.7152 C.2       0 UNK         0.5000 
      3 O           3.5676  -10.9137  -48.9945 O.2       0 UNK        -0.5000 
      4 N           4.3735  -12.8822  -48.2214 N.am      1 UNK        -0.5000 
      5 CA          3.0985  -13.5555  -47.9290 C.3       1 UNK         0.1400 
      6 C6          2.2280  -13.7744  -49.1982 C.3       23 UNK        -0.0398 
      7 S7          1.2558  -15.3139  -49.1138 S.3       23 UNK        -0.2404 
      8 C8          1.2929  -15.8420  -50.8529 C.3       23 UNK        -0.0205 
      9 C9          0.4833  -17.1126  -51.0406 C.ar      23 UNK        -0.0193 
     10 C10        -0.8627  -17.0455  -51.4101 C.ar      23 UNK        -0.1150 
     11 C11        -1.6252  -18.2133  -51.5415 C.ar      23 UNK        -0.0193 
     12 C12        -1.0175  -19.4486  -51.2981 C.ar      23 UNK        -0.1150 
     13 C13         0.3269  -19.5312  -50.9278 C.ar      23 UNK        -0.0193 
     14 C14         1.0767  -18.3565  -50.8186 C.ar      23 UNK        -0.1150 
     15 C15         0.9490  -20.8921  -50.6321 C.3       23 UNK        -0.0205 
     16 S16         1.9407  -20.9221  -49.0998 S.3       23 UNK        -0.2404 
     17 C17         0.7426  -20.3468  -47.8479 C.3       23 UNK        -0.0398 
     18 CA          0.2110  -21.5011  -46.9717 C.3       11 UNK         0.1400 
     19 N          -0.2247  -21.0365  -45.6541 N.am      11 UNK        -0.5000 
     20 C          -0.4972  -21.8420  -44.6176 C.2       10 UNK         0.5000 
     21 O          -0.3490  -23.0635  -44.6437 O.2       10 UNK        -0.5000 
     22 CA         -1.0518  -21.1745  -43.3507 C.3       10 UNK         0.1400 
     23 CB          0.0910  -20.7743  -42.4059 C.3       10 UNK        -0.1800 
     24 N          -1.8722  -20.0069  -43.6813 N.am      10 UNK        -0.5000 
     25 C          -3.1584  -20.0967  -44.0501 C.2       9 UNK         0.5000 
     26 O          -3.7855  -21.1556  -44.0752 O.2       9 UNK        -0.5000 
     27 CA         -3.8746  -18.8003  -44.4713 C.3       9 UNK         0.1400 
     28 CB         -4.5917  -18.1724  -43.2678 C.3       9 UNK        -0.1800 
     29 N          -3.0052  -17.8045  -45.1035 N.am      9 UNK        -0.5000 
     30 C          -2.4100  -17.9695  -46.2937 C.2       8 UNK         0.5000 
     31 O          -2.4408  -19.0330  -46.9128 O.2       8 UNK        -0.5000 
     32 CA         -1.6278  -16.7913  -46.9067 C.3       8 UNK         0.1400 
     33 CB         -2.2784  -16.3272  -48.2241 C.3       8 UNK        -0.1800 
     34 N          -1.3732  -15.6713  -45.9927 N.am      8 UNK        -0.5000 
     35 C          -2.2119  -14.7239  -45.5498 C.2       7 UNK         0.5000 
     36 O          -3.3946  -14.6298  -45.8799 O.2       7 UNK        -0.5000 
     37 CA         -1.6091  -13.7585  -44.5060 C.3       7 UNK         0.1400 
     38 CB         -2.6426  -12.7923  -43.8902 C.3       7 UNK        -0.1800 
     39 N          -0.8755  -14.4839  -43.4615 N.am      7 UNK        -0.5000 
     40 C          -1.3775  -15.4080  -42.6268 C.2       6 UNK         0.5000 
     41 O          -2.5707  -15.7044  -42.5767 O.2       6 UNK        -0.5000 
     42 CA         -0.3595  -16.1522  -41.7377 C.3       6 UNK         0.1400 
     43 CB         -0.9540  -17.3969  -41.0502 C.3       6 UNK        -0.1800 
     44 N           0.8682  -16.4946  -42.4623 N.am      6 UNK        -0.5000 
     45 C           0.9890  -17.2223  -43.5843 C.2       5 UNK         0.5000 
     46 O           0.0521  -17.8183  -44.1185 O.2       5 UNK        -0.5000 
     47 CA          2.3770  -17.2581  -44.2543 C.3       5 UNK         0.1400 
     48 CB          2.2779  -16.7896  -45.7158 C.3       5 UNK        -0.1800 
     49 N           3.3345  -16.3943  -43.5608 N.am      5 UNK        -0.5000 
     50 C           4.3202  -16.8169  -42.7577 C.2       4 UNK         0.5000 
     51 O           4.5881  -18.0034  -42.5674 O.2       4 UNK        -0.5000 
     52 CA          5.1337  -15.7307  -42.0215 C.3       4 UNK         0.1400 
     53 CB          6.4094  -15.3939  -42.8083 C.3       4 UNK        -0.1800 
     54 N           4.3848  -14.4932  -41.7810 N.am      4 UNK        -0.5000 
     55 C           3.2930  -14.3874  -41.0101 C.2       3 UNK         0.5000 
     56 O           2.8129  -15.3264  -40.3765 O.2       3 UNK        -0.5000 
     57 CA          2.5715  -13.0252  -40.9974 C.3       3 UNK         0.1400 
     58 CB          3.0459  -12.1782  -39.8076 C.3       3 UNK        -0.1800 
     59 N           2.7238  -12.2469  -42.2319 N.am      3 UNK        -0.5000 
     60 C           2.3658  -12.6439  -43.4613 C.2       2 UNK         0.5000 
     61 O           1.8918  -13.7595  -43.6935 O.2       2 UNK        -0.5000 
     62 CA          2.5809  -11.6425  -44.6161 C.3       2 UNK         0.1400 
     63 CB          3.5484  -10.4926  -44.2699 C.3       2 UNK        -0.1800 
     64 N           3.0848  -12.3249  -45.8057 N.am      2 UNK        -0.5000 
     65 C           2.3305  -12.8889  -46.7589 C.2       1 UNK         0.5000 
     66 O           1.0988  -12.8852  -46.7389 O.2       1 UNK        -0.5000 
     67 C          -0.9117  -22.2969  -47.6644 C.2       11 UNK         0.5000 
     68 O          -0.6837  -23.4317  -48.0837 O.2       11 UNK        -0.5000 
     69 N          -2.1344  -21.7475  -47.6559 N.am      12 UNK        -0.5000 
     70 CA         -3.3818  -22.4019  -48.0626 C.3       12 UNK         0.1400 
     71 CB         -4.4279  -21.3199  -48.3779 C.3       12 UNK        -0.1800 
     72 C          -3.8824  -23.4462  -47.0350 C.2       12 UNK         0.5000 
     73 O          -5.0742  -23.5059  -46.7272 O.2       12 UNK        -0.5000 
     74 N          -2.9485  -24.2624  -46.5443 N.am      13 UNK        -0.5000 
     75 CA         -3.1343  -25.4166  -45.6813 C.3       13 UNK         0.1400 
     76 CB         -3.3678  -24.9908  -44.2208 C.3       13 UNK        -0.1800 
     77 C          -1.8996  -26.3142  -45.8332 C.2       13 UNK         0.5000 
     78 O          -2.0438  -27.4953  -46.1491 O.2       13 UNK        -0.5000 
     79 N          -0.7025  -25.7273  -45.6717 N.am      14 UNK        -0.5000 
     80 CA          0.5912  -26.3959  -45.8419 C.3       14 UNK         0.1400 
     81 CB          1.7160  -25.4554  -45.3836 C.3       14 UNK        -0.1800 
     82 C           0.8481  -26.8759  -47.2829 C.2       14 UNK         0.5000 
     83 O           1.3884  -27.9662  -47.4707 O.2       14 UNK        -0.5000 
     84 N           0.4238  -26.0750  -48.2689 N.am      15 UNK        -0.5000 
     85 CA          0.4738  -26.3899  -49.6978 C.3       15 UNK         0.1400 
     86 CB          0.9218  -25.1328  -50.4659 C.3       15 UNK        -0.1800 
     87 C          -0.8791  -26.9308  -50.2097 C.2       15 UNK         0.5000 
     88 O          -1.1469  -26.8546  -51.4097 O.2       15 UNK        -0.5000 
     89 N          -1.7088  -27.4612  -49.2970 N.am      16 UNK        -0.5000 
     90 CA         -3.0779  -27.9377  -49.5069 C.3       16 UNK         0.1400 
     91 CB         -3.1050  -29.1666  -50.4442 C.3       16 UNK        -0.1800 
     92 C          -4.0127  -26.7864  -49.9324 C.2       16 UNK         0.5000 
     93 O          -3.8877  -25.6814  -49.4002 O.2       16 UNK        -0.5000 
     94 N          -4.9333  -27.0432  -50.8707 N.am      17 UNK        -0.5000 
     95 CA         -5.9314  -26.0991  -51.3841 C.3       17 UNK         0.1400 
     96 CB         -7.0724  -26.8993  -52.0379 C.3       17 UNK        -0.1800 
     97 C          -5.3358  -25.0311  -52.3314 C.2       17 UNK         0.5000 
     98 O          -5.8529  -24.8096  -53.4278 O.2       17 UNK        -0.5000 
     99 N          -4.2599  -24.3716  -51.8862 N.am      18 UNK        -0.5000 
    100 CA        -3.5306  -23.3340  -52.6179 C.3       18 UNK         0.1400 
    101 CB        -2.1192  -23.1984  -52.0261 C.3       18 UNK        -0.1800 
    102 C         -4.2522  -21.9721  -52.6533 C.2       18 UNK         0.5000 
    103 O         -3.7804  -21.0693  -53.3420 O.2       18 UNK        -0.5000 
    104 N         -5.3860  -21.8443  -51.9447 N.am      19 UNK        -0.5000 
    105 CA        -6.2495  -20.6576  -51.8778 C.3       19 UNK         0.1400 
    106 CB        -7.4980  -20.9914  -51.0473 C.3       19 UNK        -0.1800 
    107 C         -6.6692  -20.1000  -53.2519 C.2       19 UNK         0.5000 
    108 O         -6.7838  -18.8844  -53.4089 O.2       19 UNK        -0.5000 
    109 N         -6.8346  -20.9916  -54.2383 N.am      20 UNK        -0.5000 
    110 CA        -7.1519  -20.6687  -55.6310 C.3       20 UNK         0.1400 
    111 CB        -7.3725  -21.9804  -56.4000 C.3       20 UNK        -0.1800 
    112 C         -6.0937  -19.7983  -56.3433 C.2       20 UNK         0.5000 
    113 O         -6.4250  -19.1488  -57.3359 O.2       20 UNK        -0.5000 
    114 N         -4.8535  -19.7852  -55.8332 N.am      21 UNK        -0.5000 
    115 CA        -3.7529  -18.9789  -56.3588 C.3       21 UNK         0.1400 
    116 CB        -2.4195  -19.6515  -55.9911 C.3       21 UNK        -0.1800 
    117 C         -3.7729  -17.5147  -55.8733 C.2       21 UNK         0.5000 
    118 O         -2.9894  -16.7181  -56.3930 O.2       21 UNK        -0.5000 
    119 N         -4.6259  -17.1726  -54.8956 N.am      22 UNK        -0.5000 
    120 CA        -4.6709  -15.8322  -54.2852 C.3       22 UNK         0.1400 
    121 C         -6.0894  -15.3161  -53.9124 C.2       22 UNK         0.5000 
    122 N         -7.1133  -16.1533  -53.8121 N.am      22 UNK        -0.7600 
    123 O         -6.2740  -14.1139  -53.7414 O.2       22 UNK        -0.5000 
    124 C124       -3.6434  -15.6820  -53.1302 C.3       23 UNK        -0.0398 
    125 S125       -4.0260  -16.6678  -51.6363 S.3       23 UNK        -0.2404 
    126 C126       -3.0994  -18.2097  -51.9427 C.3       23 UNK        -0.0205 
    127 H127        6.6805  -11.8941  -48.6433 H         1 UNK         0.0600 
    128 H128        6.1168  -10.2500  -48.3311 H         1 UNK         0.0600 
    129 H129        6.0973  -10.8939  -49.9764 H         1 UNK         0.0600 
    130 H130        5.2021  -13.4266  -48.0240 H         1 UNK         0.3000 
    131 H131        3.3956  -14.5363  -47.5552 H         1 UNK         0.0600 
    132 H132        2.8724  -13.8378  -50.0760 H         1 UNK         0.0800 
    133 H133        1.5620  -12.9299  -49.3841 H         1 UNK         0.0800 
    134 H134        0.8983  -15.0451  -51.4851 H         1 UNK         0.0800 
    135 H135        2.3251  -16.0079  -51.1651 H         1 UNK         0.0800 
    136 H136       -1.3096  -16.0765  -51.5713 H         1 UNK         0.1150 
    137 H137       -1.6029  -20.3521  -51.3904 H         1 UNK         0.1150 
    138 H138        2.1167  -18.4065  -50.5285 H         1 UNK         0.1150 
    139 H139        0.1785  -21.6608  -50.5573 H         1 UNK         0.0800 
    140 H140        1.5867  -21.1755  -51.4702 H         1 UNK         0.0800 
    141 H141        1.2837  -19.6350  -47.2242 H         1 UNK         0.0800 
    142 H142       -0.0703  -19.7761  -48.2993 H         1 UNK         0.0800 
    143 H143        1.0359  -22.1948  -46.7932 H         1 UNK         0.0600 
    144 H144       -0.4107  -20.0492  -45.5525 H         1 UNK         0.3000 
    145 H145       -1.6675  -21.9107  -42.8292 H         1 UNK         0.0600 
    146 H146       -0.2909  -20.3160  -41.4943 H         1 UNK         0.0600 
    147 H147        0.6688  -21.6501  -42.1082 H         1 UNK         0.0600 
    148 H148        0.7831  -20.0759  -42.8742 H         1 UNK         0.0600 
    149 H149       -1.4012  -19.1077  -43.7253 H         1 UNK         0.3000 
    150 H150       -4.6348  -19.0748  -45.2058 H         1 UNK         0.0600 
    151 H151       -5.3501  -18.8491  -42.8724 H         1 UNK         0.0600 
    152 H152       -5.0935  -17.2442  -43.5418 H         1 UNK         0.0600 
    153 H153       -3.8979  -17.9545  -42.4558 H         1 UNK         0.0600 
    154 H154       -2.9060  -16.9183  -44.6262 H         1 UNK         0.3000 
    155 H155       -0.6438  -17.1878  -47.1590 H         1 UNK         0.0600 
    156 H156       -1.7193  -15.5128  -48.6834 H         1 UNK         0.0600 
    157 H157       -3.3061  -15.9935  -48.0823 H         1 UNK         0.0600 
    158 H158       -2.3095  -17.1463  -48.9421 H         1 UNK         0.0600 
    159 H159       -0.4430  -15.6627  -45.6010 H         1 UNK         0.3000 
    160 H160       -0.8735  -13.1518  -45.0339 H         1 UNK         0.0600 
    161 H161       -3.4483  -13.3234  -43.3828 H         1 UNK         0.0600 
    162 H162       -3.0984  -12.1698  -44.6609 H         1 UNK         0.0600 
    163 H163       -2.1742  -12.1238  -43.1681 H         1 UNK         0.0600 
    164 H164        0.1294  -14.3236  -43.4524 H         1 UNK         0.3000 
    165 H165       -0.0682  -15.4512  -40.9545 H         1 UNK         0.0600 
    166 H166       -1.3496  -18.1067  -41.7742 H         1 UNK         0.0600 
    167 H167       -0.2055  -17.9105  -40.4470 H         1 UNK         0.0600 
    168 H168       -1.7737  -17.1210  -40.3860 H         1 UNK         0.0600 
    169 H169        1.7114  -16.0849  -42.0818 H         1 UNK         0.3000 
    170 H170        2.7148  -18.2962  -44.2473 H         1 UNK         0.0600 
    171 H171        1.6198  -17.4363  -46.2955 H         1 UNK         0.0600 
    172 H172        1.8858  -15.7747  -45.7864 H         1 UNK         0.0600 
    173 H173        3.2531  -16.8070  -46.2022 H         1 UNK         0.0600 
    174 H174        3.1584  -15.3985  -43.6373 H         1 UNK         0.3000 
    175 H175        5.4252  -16.1396  -41.0519 H         1 UNK         0.0600 
    176 H176        6.1789  -14.9575  -43.7811 H         1 UNK         0.0600 
    177 H177        7.0355  -14.6880  -42.2623 H         1 UNK         0.0600 
    178 H178        7.0082  -16.2887  -42.9836 H         1 UNK         0.0600 
    179 H179        4.7056  -13.6687  -42.2668 H         1 UNK         0.3000 
    180 H180        1.5059  -13.2260  -40.8693 H         1 UNK         0.0600 
    181 H181        4.1001  -11.9129  -39.8975 H         1 UNK         0.0600 
    182 H182        2.9223  -12.7188  -38.8681 H         1 UNK         0.0600 
    183 H183        2.4722  -11.2548  -39.7262 H         1 UNK         0.0600 
    184 H184        3.1134  -11.3212  -42.1265 H         1 UNK         0.3000 
    185 H185        1.6067  -11.2022  -44.8377 H         1 UNK         0.0600 
    186 H186        3.1595   -9.8705  -43.4628 H         1 UNK         0.0600 
    187 H187        4.5300  -10.8620  -43.9698 H         1 UNK         0.0600 
    188 H188        3.6928   -9.8357  -45.1282 H         1 UNK         0.0600 
    189 H189        4.0879  -12.3844  -45.8983 H         1 UNK         0.3000 
    190 H190       -2.2396  -20.8078  -47.2767 H         1 UNK         0.3000 
    191 H191       -3.1939  -22.9533  -48.9841 H         1 UNK         0.0600 
    192 H192       -4.0708  -20.6379  -49.1501 H         1 UNK         0.0600 
    193 H193       -5.3524  -21.7672  -48.7411 H         1 UNK         0.0600 
    194 H194       -4.6703  -20.7294  -47.4935 H         1 UNK         0.0600 
    195 H195       -2.0129  -24.1491  -46.9216 H         1 UNK         0.3000 
    196 H196       -4.0038  -25.9764  -46.0323 H         1 UNK         0.0600 
    197 H197       -3.4821  -25.8623  -43.5754 H         1 UNK         0.0600 
    198 H198       -4.2740  -24.3927  -44.1239 H         1 UNK         0.0600 
    199 H199       -2.5395  -24.3989  -43.8318 H         1 UNK         0.0600 
    200 H200       -0.6617  -24.7573  -45.3644 H         1 UNK         0.3000 
    201 H201        0.5978  -27.2749  -45.1941 H         1 UNK         0.0600 
    202 H202        1.5910  -25.1715  -44.3385 H         1 UNK         0.0600 
    203 H203        1.7414  -24.5411  -45.9777 H         1 UNK         0.0600 
    204 H204        2.6909  -25.9357  -45.4759 H         1 UNK         0.0600 
    205 H205       -0.0056  -25.1826  -48.0364 H         1 UNK         0.3000 
    206 H206        1.2152  -27.1698  -49.8813 H         1 UNK         0.0600 
    207 H207        1.8683  -24.7519  -50.0820 H         1 UNK         0.0600 
    208 H208        1.0655  -25.3479  -51.5253 H         1 UNK         0.0600 
    209 H209        0.1870  -24.3319  -50.3914 H         1 UNK         0.0600 
    210 H210       -1.4088  -27.4503  -48.3309 H         1 UNK         0.3000 
    211 H211       -3.4342  -28.2643  -48.5291 H         1 UNK         0.0600 
    212 H212       -2.8478  -28.9076  -51.4718 H         1 UNK         0.0600 
    213 H213       -4.0900  -29.6343  -50.4550 H         1 UNK         0.0600 
    214 H214       -2.3986  -29.9263  -50.1092 H         1 UNK         0.0600 
    215 H215       -4.9422  -27.9634  -51.2858 H         1 UNK         0.3000 
    216 H216       -6.3559  -25.5598  -50.5347 H         1 UNK         0.0600 
    217 H217       -7.5142  -27.6044  -51.3336 H         1 UNK         0.0600 
    218 H218       -6.7230  -27.4633  -52.9036 H         1 UNK         0.0600 
    219 H219       -7.8727  -26.2394  -52.3756 H         1 UNK         0.0600 
    220 H220       -3.9030  -24.6327  -50.9708 H         1 UNK         0.3000 
    221 H221       -3.4255  -23.6611  -53.6544 H         1 UNK         0.0600 
    222 H222       -1.5195  -22.4928  -52.6024 H         1 UNK         0.0600 
    223 H223       -2.1387  -22.8476  -50.9953 H         1 UNK         0.0600 
    224 H224       -1.5956  -24.1538  -52.0467 H         1 UNK         0.0600 
    225 H225       -5.6928  -22.6479  -51.4186 H         1 UNK         0.3000 
    226 H226       -5.6987  -19.8727  -51.3593 H         1 UNK         0.0600 
    227 H227       -8.1582  -20.1263  -50.9705 H         1 UNK         0.0600 
    228 H228       -8.0729  -21.8036  -51.4941 H         1 UNK         0.0600 
    229 H229       -7.2371  -21.2854  -50.0316 H         1 UNK         0.0600 
    230 H230       -6.6972  -21.9689  -54.0231 H         1 UNK         0.3000 
    231 H231       -8.0878  -20.1065  -55.6345 H         1 UNK         0.0600 
    232 H232       -7.6396  -21.7858  -57.4396 H         1 UNK         0.0600 
    233 H233       -8.1826  -22.5638  -55.9620 H         1 UNK         0.0600 
    234 H234       -6.4748  -22.6000  -56.4013 H         1 UNK         0.0600 
    235 H235       -4.6504  -20.3278  -54.9993 H         1 UNK         0.3000 
    236 H236       -3.8231  -18.9591  -57.4484 H         1 UNK         0.0600 
    237 H237       -2.3972  -20.6921  -56.3151 H         1 UNK         0.0600 
    238 H238       -1.5819  -19.1444  -56.4715 H         1 UNK         0.0600 
    239 H239       -2.2362  -19.6305  -54.9168 H         1 UNK         0.0600 
    240 H240       -5.2551  -17.8659  -54.5115 H         1 UNK         0.3000 
    241 H241       -4.3599  -15.1241  -55.0560 H         1 UNK         0.0600 
    242 H242       -8.0214  -15.7801  -53.5874 H         1 UNK         0.3800 
    243 H243       -6.9842  -17.1626  -53.8139 H         1 UNK         0.3800 
    244 H244       -3.5777  -14.6355  -52.8285 H         1 UNK         0.0800 
    245 H245       -2.6479  -15.9417  -53.4914 H         1 UNK         0.0800 
    246 H246       -3.6030  -18.9965  -51.3823 H         1 UNK         0.0800 
    247 H247       -3.1797  -18.4851  -52.9925 H         1 UNK         0.0800 
@<TRIPOS>BOND
     1    1    2 1    
     2    1  127 1    
     3    1  128 1    
     4    1  129 1    
     5    2    3 2    
     6    2    4 am   BACKBONE|DICT|INTERRES
     7    4    5 1    
     8    4  130 1    
     9    5    6 1    
    10    5   65 1    
    11    5  131 1    
    12    6    7 1    
    13    6  132 1    
    14    6  133 1    
    15    7    8 1    
    16    8    9 1    
    17    8  134 1    
    18    8  135 1    
    19    9   10 ar   
    20    9   14 ar   
    21   10   11 ar   
    22   10  136 1    
    23   11   12 ar   
    24   11  126 1    
    25   12   13 ar   
    26   12  137 1    
    27   13   14 ar   
    28   13   15 1    
    29   14  138 1    
    30   15   16 1    
    31   15  139 1    
    32   15  140 1    
    33   16   17 1    
    34   17   18 1    
    35   17  141 1    
    36   17  142 1    
    37   18   19 1    
    38   18   67 1    
    39   18  143 1    
    40   19   20 am   BACKBONE|DICT|INTERRES
    41   19  144 1    
    42   20   21 2    
    43   20   22 1    
    44   22   23 1    
    45   22   24 1    
    46   22  145 1    
    47   23  146 1    
    48   23  147 1    
    49   23  148 1    
    50   24   25 am   BACKBONE|DICT|INTERRES
    51   24  149 1    
    52   25   26 2    
    53   25   27 1    
    54   27   28 1    
    55   27   29 1    
    56   27  150 1    
    57   28  151 1    
    58   28  152 1    
    59   28  153 1    
    60   29   30 am   BACKBONE|DICT|INTERRES
    61   29  154 1    
    62   30   31 2    
    63   30   32 1    
    64   32   33 1    
    65   32   34 1    
    66   32  155 1    
    67   33  156 1    
    68   33  157 1    
    69   33  158 1    
    70   34   35 am   BACKBONE|DICT|INTERRES
    71   34  159 1    
    72   35   36 2    
    73   35   37 1    
    74   37   38 1    
    75   37   39 1    
    76   37  160 1    
    77   38  161 1    
    78   38  162 1    
    79   38  163 1    
    80   39   40 am   BACKBONE|DICT|INTERRES
    81   39  164 1    
    82   40   41 2    
    83   40   42 1    
    84   42   43 1    
    85   42   44 1    
    86   42  165 1    
    87   43  166 1    
    88   43  167 1    
    89   43  168 1    
    90   44   45 am   BACKBONE|DICT|INTERRES
    91   44  169 1    
    92   45   46 2    
    93   45   47 1    
    94   47   48 1    
    95   47   49 1    
    96   47  170 1    
    97   48  171 1    
    98   48  172 1    
    99   48  173 1    
   100   49   50 am   BACKBONE|DICT|INTERRES
   101   49  174 1    
   102   50   51 2    
   103   50   52 1    
   104   52   53 1    
   105   52   54 1    
   106   52  175 1    
   107   53  176 1    
   108   53  177 1    
   109   53  178 1    
   110   54   55 am   BACKBONE|DICT|INTERRES
   111   54  179 1    
   112   55   56 2    
   113   55   57 1    
   114   57   58 1    
   115   57   59 1    
   116   57  180 1    
   117   58  181 1    
   118   58  182 1    
   119   58  183 1    
   120   59   60 am   BACKBONE|DICT|INTERRES
   121   59  184 1    
   122   60   61 2    
   123   60   62 1    
   124   62   63 1    
   125   62   64 1    
   126   62  185 1    
   127   63  186 1    
   128   63  187 1    
   129   63  188 1    
   130   64   65 am   BACKBONE|DICT|INTERRES
   131   64  189 1    
   132   65   66 2    
   133   67   68 2    
   134   67   69 am   BACKBONE|DICT|INTERRES
   135   69   70 1    
   136   69  190 1    
   137   70   71 1    
   138   70   72 1    
   139   70  191 1    
   140   71  192 1    
   141   71  193 1    
   142   71  194 1    
   143   72   73 2    
   144   72   74 am   BACKBONE|DICT|INTERRES
   145   74   75 1    
   146   74  195 1    
   147   75   76 1    
   148   75   77 1    
   149   75  196 1    
   150   76  197 1    
   151   76  198 1    
   152   76  199 1    
   153   77   78 2    
   154   77   79 am   BACKBONE|DICT|INTERRES
   155   79   80 1    
   156   79  200 1    
   157   80   81 1    
   158   80   82 1    
   159   80  201 1    
   160   81  202 1    
   161   81  203 1    
   162   81  204 1    
   163   82   83 2    
   164   82   84 am   BACKBONE|DICT|INTERRES
   165   84   85 1    
   166   84  205 1    
   167   85   86 1    
   168   85   87 1    
   169   85  206 1    
   170   86  207 1    
   171   86  208 1    
   172   86  209 1    
   173   87   88 2    
   174   87   89 am   BACKBONE|DICT|INTERRES
   175   89   90 1    
   176   89  210 1    
   177   90   91 1    
   178   90   92 1    
   179   90  211 1    
   180   91  212 1    
   181   91  213 1    
   182   91  214 1    
   183   92   93 2    
   184   92   94 am   BACKBONE|DICT|INTERRES
   185   94   95 1    
   186   94  215 1    
   187   95   96 1    
   188   95   97 1    
   189   95  216 1    
   190   96  217 1    
   191   96  218 1    
   192   96  219 1    
   193   97   98 2    
   194   97   99 am   BACKBONE|DICT|INTERRES
   195   99  100 1    
   196   99  220 1    
   197  100  101 1    
   198  100  102 1    
   199  100  221 1    
   200  101  222 1    
   201  101  223 1    
   202  101  224 1    
   203  102  103 2    
   204  102  104 am   BACKBONE|DICT|INTERRES
   205  104  105 1    
   206  104  225 1    
   207  105  106 1    
   208  105  107 1    
   209  105  226 1    
   210  106  227 1    
   211  106  228 1    
   212  106  229 1    
   213  107  108 2    
   214  107  109 am   BACKBONE|DICT|INTERRES
   215  109  110 1    
   216  109  230 1    
   217  110  111 1    
   218  110  112 1    
   219  110  231 1    
   220  111  232 1    
   221  111  233 1    
   222  111  234 1    
   223  112  113 2    
   224  112  114 am   BACKBONE|DICT|INTERRES
   225  114  115 1    
   226  114  235 1    
   227  115  116 1    
   228  115  117 1    
   229  115  236 1    
   230  116  237 1    
   231  116  238 1    
   232  116  239 1    
   233  117  118 2    
   234  117  119 am   BACKBONE|DICT|INTERRES
   235  119  120 1    
   236  119  240 1    
   237  120  121 1    
   238  120  124 1    
   239  120  241 1    
   240  121  122 am   BACKBONE|DICT|INTERRES
   241  121  123 2    
   242  122  242 1    
   243  122  243 1    
   244  124  125 1    
   245  124  244 1    
   246  124  245 1    
   247  125  126 1    
   248  126  246 1    
   249  126  247 1    
@<TRIPOS>SUBSTRUCTURE
     1 UNK         1 GROUP             0       ****    0 ROOT    
