@<TRIPOS>MOLECULE
3R540
247   249    1
SMALL
USER_CHARGES


@<TRIPOS>ATOM
      1 CA         -6.0748  -11.2976  -47.3490 C.3       0 UNK        -0.1800 
      2 C          -4.8575  -12.1677  -47.0726 C.2       0 UNK         0.5000 
      3 O          -3.7401  -11.6558  -47.0201 O.2       0 UNK        -0.5000 
      4 N          -5.0719  -13.4767  -46.8821 N.am      1 UNK        -0.5000 
      5 CA         -4.0425  -14.5000  -46.6391 C.3       1 UNK         0.1400 
      6 C6         -4.6661  -15.9076  -46.4787 C.3       23 UNK        -0.0398 
      7 S7         -5.5689  -16.4436  -47.9713 S.3       23 UNK        -0.2404 
      8 C8         -4.6470  -17.9361  -48.4515 C.3       23 UNK        -0.0205 
      9 C9         -3.2478  -17.6183  -48.9584 C.ar      23 UNK        -0.0193 
     10 C10        -3.0647  -17.1198  -50.2513 C.ar      23 UNK        -0.1150 
     11 C11        -1.7836  -16.8112  -50.7202 C.ar      23 UNK        -0.0193 
     12 C12        -0.6831  -16.9991  -49.8799 C.ar      23 UNK        -0.1150 
     13 C13        -0.8495  -17.5259  -48.5967 C.ar      23 UNK        -0.0193 
     14 C14        -2.1343  -17.8316  -48.1405 C.ar      23 UNK        -0.1150 
     15 C15         0.3557  -17.7568  -47.6987 C.3       23 UNK        -0.0205 
     16 S16         1.5746  -18.9051  -48.4155 S.3       23 UNK        -0.2404 
     17 C17         0.6208  -20.4395  -48.6993 C.3       23 UNK        -0.0398 
     18 CA          0.5215  -21.4139  -47.4917 C.3       11 UNK         0.1400 
     19 N           1.7644  -21.5560  -46.7330 N.am      11 UNK        -0.5000 
     20 C           2.7834  -22.3422  -47.1013 C.2       10 UNK         0.5000 
     21 O           2.7716  -23.0125  -48.1347 O.2       10 UNK        -0.5000 
     22 CA          4.0143  -22.4357  -46.1810 C.3       10 UNK         0.1400 
     23 CB          5.2461  -21.7720  -46.8199 C.3       10 UNK        -0.1800 
     24 N           3.7891  -21.8717  -44.8484 N.am      10 UNK        -0.5000 
     25 C           4.2618  -22.4036  -43.7122 C.2       9 UNK         0.5000 
     26 O           4.9343  -23.4345  -43.6645 O.2       9 UNK        -0.5000 
     27 CA          3.9155  -21.6762  -42.4037 C.3       9 UNK         0.1400 
     28 CB          4.8612  -20.4873  -42.1744 C.3       9 UNK        -0.1800 
     29 N           2.5338  -21.2018  -42.4254 N.am      9 UNK        -0.5000 
     30 C           1.5058  -21.8008  -41.8110 C.2       8 UNK         0.5000 
     31 O           1.6296  -22.8058  -41.1091 O.2       8 UNK        -0.5000 
     32 CA          0.0952  -21.2140  -42.0366 C.3       8 UNK         0.1400 
     33 CB         -0.7021  -21.0745  -40.7237 C.3       8 UNK        -0.1800 
     34 N           0.0735  -19.9682  -42.8111 N.am      8 UNK        -0.5000 
     35 C           0.5171  -18.7561  -42.4557 C.2       7 UNK         0.5000 
     36 O           1.0073  -18.4833  -41.3587 O.2       7 UNK        -0.5000 
     37 CA          0.4326  -17.6738  -43.5476 C.3       7 UNK         0.1400 
     38 CB         -0.3249  -16.4397  -43.0366 C.3       7 UNK        -0.1800 
     39 N           1.7508  -17.2643  -44.0366 N.am      7 UNK        -0.5000 
     40 C           2.6979  -18.0711  -44.5416 C.2       6 UNK         0.5000 
     41 O           2.5599  -19.2911  -44.6719 O.2       6 UNK        -0.5000 
     42 CA          4.0266  -17.4236  -44.9895 C.3       6 UNK         0.1400 
     43 CB          4.2498  -17.6163  -46.4956 C.3       6 UNK        -0.1800 
     44 N           4.1197  -15.9935  -44.7029 N.am      6 UNK        -0.5000 
     45 C           4.4284  -15.4428  -43.5218 C.2       5 UNK         0.5000 
     46 O           4.6944  -16.0930  -42.5113 O.2       5 UNK        -0.5000 
     47 CA          4.4257  -13.9001  -43.4669 C.3       5 UNK         0.1400 
     48 CB          5.8575  -13.3550  -43.5815 C.3       5 UNK        -0.1800 
     49 N           3.5981  -13.2951  -44.5184 N.am      5 UNK        -0.5000 
     50 C           2.2601  -13.3443  -44.5378 C.2       4 UNK         0.5000 
     51 O           1.5877  -13.8569  -43.6420 O.2       4 UNK        -0.5000 
     52 CA          1.5682  -12.8043  -45.8000 C.3       4 UNK         0.1400 
     53 CB          1.2490  -13.9598  -46.7618 C.3       4 UNK        -0.1800 
     54 N           0.3275  -12.1158  -45.4570 N.am      4 UNK        -0.5000 
     55 C           0.2681  -10.8647  -44.9792 C.2       3 UNK         0.5000 
     56 O           1.2566  -10.1412  -44.8471 O.2       3 UNK        -0.5000 
     57 CA         -1.1190  -10.3169  -44.5879 C.3       3 UNK         0.1400 
     58 CB         -1.6638   -9.3955  -45.6898 C.3       3 UNK        -0.1800 
     59 N          -2.0937  -11.3745  -44.3145 N.am      3 UNK        -0.5000 
     60 C          -2.0939  -12.1219  -43.2003 C.2       2 UNK         0.5000 
     61 O          -1.3198  -11.9333  -42.2612 O.2       2 UNK        -0.5000 
     62 CA         -3.1233  -13.2667  -43.0977 C.3       2 UNK         0.1400 
     63 CB         -4.2173  -12.9172  -42.0764 C.3       2 UNK        -0.1800 
     64 N          -3.7663  -13.6277  -44.3627 N.am      2 UNK        -0.5000 
     65 C          -3.1550  -14.1856  -45.4171 C.2       1 UNK         0.5000 
     66 O          -1.9489  -14.4204  -45.4632 O.2       1 UNK        -0.5000 
     67 C          -0.6255  -21.0578  -46.5374 C.2       11 UNK         0.5000 
     68 O          -0.3921  -20.4304  -45.5033 O.2       11 UNK        -0.5000 
     69 N          -1.8456  -21.4680  -46.8960 N.am      12 UNK        -0.5000 
     70 CA         -3.0749  -21.2445  -46.1462 C.3       12 UNK         0.1400 
     71 CB         -3.0905  -22.0973  -44.8623 C.3       12 UNK        -0.1800 
     72 C          -4.2591  -21.6220  -47.0424 C.2       12 UNK         0.5000 
     73 O          -4.1068  -22.4451  -47.9500 O.2       12 UNK        -0.5000 
     74 N          -5.4362  -21.0641  -46.7371 N.am      13 UNK        -0.5000 
     75 CA         -6.6967  -21.3861  -47.4132 C.3       13 UNK         0.1400 
     76 CB         -7.7622  -20.3563  -47.0101 C.3       13 UNK        -0.1800 
     77 C          -7.1790  -22.8216  -47.1201 C.2       13 UNK         0.5000 
     78 O          -7.8627  -23.4136  -47.9541 O.2       13 UNK        -0.5000 
     79 N          -6.7789  -23.3643  -45.9601 N.am      14 UNK        -0.5000 
     80 CA         -7.0044  -24.7532  -45.5581 C.3       14 UNK         0.1400 
     81 CB         -6.7081  -24.8943  -44.0573 C.3       14 UNK        -0.1800 
     82 C          -6.1611  -25.7557  -46.3706 C.2       14 UNK         0.5000 
     83 O          -6.6141  -26.8782  -46.5969 O.2       14 UNK        -0.5000 
     84 N          -4.9625  -25.3348  -46.8051 N.am      15 UNK        -0.5000 
     85 CA         -4.1035  -26.1002  -47.7125 C.3       15 UNK         0.1400 
     86 CB         -2.6615  -25.5738  -47.6327 C.3       15 UNK        -0.1800 
     87 C          -4.6296  -26.0491  -49.1583 C.2       15 UNK         0.5000 
     88 O          -4.5243  -27.0423  -49.8788 O.2       15 UNK        -0.5000 
     89 N          -5.2069  -24.8975  -49.5343 N.am      16 UNK        -0.5000 
     90 CA         -5.9336  -24.5791  -50.7686 C.3       16 UNK         0.1400 
     91 CB         -7.1576  -25.4942  -50.9584 C.3       16 UNK        -0.1800 
     92 C          -5.0542  -24.5459  -52.0289 C.2       16 UNK         0.5000 
     93 O          -5.0246  -23.5251  -52.7141 O.2       16 UNK        -0.5000 
     94 N          -4.3175  -25.6296  -52.2985 N.am      17 UNK        -0.5000 
     95 CA         -3.3833  -25.7496  -53.4205 C.3       17 UNK         0.1400 
     96 CB         -2.8620  -27.1917  -53.4972 C.3       17 UNK        -0.1800 
     97 C          -2.2156  -24.7519  -53.3192 C.2       17 UNK         0.5000 
     98 O          -1.8070  -24.1788  -54.3281 O.2       17 UNK        -0.5000 
     99 N          -1.7414  -24.5224  -52.0878 N.am      18 UNK        -0.5000 
    100 CA        -0.6954  -23.5528  -51.7666 C.3       18 UNK         0.1400 
    101 CB        -0.1842  -23.8360  -50.3480 C.3       18 UNK        -0.1800 
    102 C         -1.1648  -22.0898  -51.8992 C.2       18 UNK         0.5000 
    103 O         -0.3372  -21.2162  -52.1507 O.2       18 UNK        -0.5000 
    104 N         -2.4745  -21.8512  -51.7417 N.am      19 UNK        -0.5000 
    105 CA        -3.1095  -20.5542  -51.9743 C.3       19 UNK         0.1400 
    106 CB        -4.4021  -20.4626  -51.1506 C.3       19 UNK        -0.1800 
    107 C         -3.3916  -20.3284  -53.4706 C.2       19 UNK         0.5000 
    108 O         -3.1948  -19.2210  -53.9674 O.2       19 UNK        -0.5000 
    109 N         -3.8156  -21.3861  -54.1785 N.am      20 UNK        -0.5000 
    110 CA        -4.0359  -21.3884  -55.6280 C.3       20 UNK         0.1400 
    111 CB        -4.6941  -22.7122  -56.0430 C.3       20 UNK        -0.1800 
    112 C         -2.7426  -21.1472  -56.4306 C.2       20 UNK         0.5000 
    113 O         -2.7855  -20.4994  -57.4782 O.2       20 UNK        -0.5000 
    114 N         -1.6083  -21.6201  -55.8931 N.am      21 UNK        -0.5000 
    115 CA        -0.2548  -21.4187  -56.4174 C.3       21 UNK         0.1400 
    116 CB         0.7379  -22.2233  -55.5642 C.3       21 UNK        -0.1800 
    117 C          0.1879  -19.9423  -56.5155 C.2       21 UNK         0.5000 
    118 O          1.1389  -19.6550  -57.2441 O.2       21 UNK        -0.5000 
    119 N         -0.5069  -19.0322  -55.8178 N.am      22 UNK        -0.5000 
    120 CA        -0.3491  -17.5754  -55.9591 C.3       22 UNK         0.1400 
    121 C         -0.8320  -17.0138  -57.3313 C.2       22 UNK         0.5000 
    122 N         -1.6223  -17.7412  -58.1148 N.am      22 UNK        -0.7600 
    123 O         -0.4793  -15.8944  -57.6926 O.2       22 UNK        -0.5000 
    124 C124       -1.0323  -16.7945  -54.8074 C.3       23 UNK        -0.0398 
    125 S125       -0.5242  -17.3356  -53.1418 S.3       23 UNK        -0.2404 
    126 C126       -1.5921  -16.2633  -52.1269 C.3       23 UNK        -0.0205 
    127 H127       -6.1661  -10.5271  -46.5835 H         1 UNK         0.0600 
    128 H128       -6.9965  -11.8800  -47.3581 H         1 UNK         0.0600 
    129 H129       -5.9724  -10.8074  -48.3171 H         1 UNK         0.0600 
    130 H130       -6.0148  -13.8314  -46.9569 H         1 UNK         0.3000 
    131 H131       -3.3872  -14.5136  -47.5130 H         1 UNK         0.0600 
    132 H132       -3.8977  -16.6430  -46.2371 H         1 UNK         0.0800 
    133 H133       -5.3646  -15.9232  -45.6402 H         1 UNK         0.0800 
    134 H134       -5.2126  -18.4540  -49.2251 H         1 UNK         0.0800 
    135 H135       -4.6021  -18.6146  -47.6014 H         1 UNK         0.0800 
    136 H136       -3.9244  -16.9663  -50.8885 H         1 UNK         0.1150 
    137 H137        0.3092  -16.7584  -50.2349 H         1 UNK         0.1150 
    138 H138       -2.2657  -18.2294  -47.1447 H         1 UNK         0.1150 
    139 H139        0.8476  -16.8011  -47.5202 H         1 UNK         0.0800 
    140 H140        0.0508  -18.1256  -46.7210 H         1 UNK         0.0800 
    141 H141       -0.3632  -20.1985  -49.1053 H         1 UNK         0.0800 
    142 H142        1.1339  -20.9547  -49.5115 H         1 UNK         0.0800 
    143 H143        0.2682  -22.4015  -47.8799 H         1 UNK         0.0600 
    144 H144        1.8051  -20.9985  -45.8890 H         1 UNK         0.3000 
    145 H145        4.2208  -23.5041  -46.0887 H         1 UNK         0.0600 
    146 H146        5.1117  -20.6976  -46.9316 H         1 UNK         0.0600 
    147 H147        6.1392  -21.9365  -46.2170 H         1 UNK         0.0600 
    148 H148        5.4444  -22.1828  -47.8107 H         1 UNK         0.0600 
    149 H149        3.2862  -20.9900  -44.8048 H         1 UNK         0.3000 
    150 H150        4.0620  -22.3790  -41.5808 H         1 UNK         0.0600 
    151 H151        5.8980  -20.8206  -42.1152 H         1 UNK         0.0600 
    152 H152        4.6294  -19.9747  -41.2406 H         1 UNK         0.0600 
    153 H153        4.7980  -19.7573  -42.9797 H         1 UNK         0.0600 
    154 H154        2.3398  -20.3989  -43.0130 H         1 UNK         0.3000 
    155 H155       -0.4251  -21.9469  -42.6540 H         1 UNK         0.0600 
    156 H156       -1.6988  -20.6738  -40.9084 H         1 UNK         0.0600 
    157 H157       -0.2017  -20.4189  -40.0109 H         1 UNK         0.0600 
    158 H158       -0.8285  -22.0430  -40.2387 H         1 UNK         0.0600 
    159 H159       -0.2180  -20.0864  -43.7825 H         1 UNK         0.3000 
    160 H160       -0.1245  -18.0698  -44.3966 H         1 UNK         0.0600 
    161 H161        0.1893  -15.9675  -42.1985 H         1 UNK         0.0600 
    162 H162       -1.3289  -16.7047  -42.7033 H         1 UNK         0.0600 
    163 H163       -0.4292  -15.6934  -43.8221 H         1 UNK         0.0600 
    164 H164        1.9673  -16.2825  -43.9379 H         1 UNK         0.3000 
    165 H165        4.8301  -17.9395  -44.4616 H         1 UNK         0.0600 
    166 H166        3.5372  -17.0373  -47.0836 H         1 UNK         0.0600 
    167 H167        5.2536  -17.3077  -46.7878 H         1 UNK         0.0600 
    168 H168        4.1362  -18.6605  -46.7832 H         1 UNK         0.0600 
    169 H169        3.9275  -15.3719  -45.4736 H         1 UNK         0.3000 
    170 H170        4.0233  -13.6046  -42.4955 H         1 UNK         0.0600 
    171 H171        6.4949  -13.7639  -42.7962 H         1 UNK         0.0600 
    172 H172        6.3115  -13.6118  -44.5394 H         1 UNK         0.0600 
    173 H173        5.8759  -12.2697  -43.4802 H         1 UNK         0.0600 
    174 H174        4.0898  -12.8536  -45.2825 H         1 UNK         0.3000 
    175 H175        2.2356  -12.1049  -46.3083 H         1 UNK         0.0600 
    176 H176        0.6116  -14.7085  -46.2897 H         1 UNK         0.0600 
    177 H177        0.7370  -13.6021  -47.6553 H         1 UNK         0.0600 
    178 H178        2.1597  -14.4630  -47.0885 H         1 UNK         0.0600 
    179 H179       -0.5157  -12.6764  -45.4726 H         1 UNK         0.3000 
    180 H180       -0.9945   -9.7193  -43.6823 H         1 UNK         0.0600 
    181 H181       -1.7493   -9.9165  -46.6439 H         1 UNK         0.0600 
    182 H182       -1.0035   -8.5412  -45.8438 H         1 UNK         0.0600 
    183 H183       -2.6476   -9.0041  -45.4302 H         1 UNK         0.0600 
    184 H184       -2.7488  -11.5898  -45.0571 H         1 UNK         0.3000 
    185 H185       -2.5860  -14.1458  -42.7355 H         1 UNK         0.0600 
    186 H186       -3.7849  -12.6797  -41.1035 H         1 UNK         0.0600 
    187 H187       -4.8025  -12.0536  -42.3950 H         1 UNK         0.0600 
    188 H188       -4.9020  -13.7526  -41.9289 H         1 UNK         0.0600 
    189 H189       -4.7553  -13.4370  -44.4329 H         1 UNK         0.3000 
    190 H190       -1.9931  -21.9692  -47.7631 H         1 UNK         0.3000 
    191 H191       -3.1498  -20.1861  -45.8895 H         1 UNK         0.0600 
    192 H192       -4.0329  -21.9882  -44.3243 H         1 UNK         0.0600 
    193 H193       -2.3005  -21.7980  -44.1751 H         1 UNK         0.0600 
    194 H194       -2.9567  -23.1573  -45.0822 H         1 UNK         0.0600 
    195 H195       -5.4941  -20.4125  -45.9676 H         1 UNK         0.3000 
    196 H196       -6.5359  -21.3066  -48.4908 H         1 UNK         0.0600 
    197 H197       -8.7069  -20.5532  -47.5186 H         1 UNK         0.0600 
    198 H198       -7.4546  -19.3453  -47.2788 H         1 UNK         0.0600 
    199 H199       -7.9564  -20.3755  -45.9371 H         1 UNK         0.0600 
    200 H200       -6.2459  -22.7911  -45.3241 H         1 UNK         0.3000 
    201 H201       -8.0571  -24.9919  -45.7242 H         1 UNK         0.0600 
    202 H202       -7.3481  -24.2396  -43.4655 H         1 UNK         0.0600 
    203 H203       -5.6705  -24.6500  -43.8257 H         1 UNK         0.0600 
    204 H204       -6.8883  -25.9154  -43.7183 H         1 UNK         0.0600 
    205 H205       -4.6741  -24.3908  -46.5974 H         1 UNK         0.3000 
    206 H206       -4.0992  -27.1448  -47.3938 H         1 UNK         0.0600 
    207 H207       -2.2762  -25.6336  -46.6147 H         1 UNK         0.0600 
    208 H208       -1.9973  -26.1631  -48.2661 H         1 UNK         0.0600 
    209 H209       -2.5854  -24.5373  -47.9578 H         1 UNK         0.0600 
    210 H210       -5.1490  -24.1307  -48.8752 H         1 UNK         0.3000 
    211 H211       -6.3112  -23.5651  -50.6265 H         1 UNK         0.0600 
    212 H212       -6.8741  -26.5357  -51.1117 H         1 UNK         0.0600 
    213 H213       -7.7426  -25.1851  -51.8254 H         1 UNK         0.0600 
    214 H214       -7.8158  -25.4511  -50.0903 H         1 UNK         0.0600 
    215 H215       -4.3695  -26.4056  -51.6432 H         1 UNK         0.3000 
    216 H216       -3.9301  -25.5326  -54.3400 H         1 UNK         0.0600 
    217 H217       -2.3336  -27.4788  -52.5871 H         1 UNK         0.0600 
    218 H218       -2.1709  -27.3135  -54.3323 H         1 UNK         0.0600 
    219 H219       -3.6792  -27.8977  -53.6464 H         1 UNK         0.0600 
    220 H220       -2.1385  -25.0404  -51.3183 H         1 UNK         0.3000 
    221 H221        0.1317  -23.7007  -52.4645 H         1 UNK         0.0600 
    222 H222       -0.9505  -23.6408  -49.5977 H         1 UNK         0.0600 
    223 H223        0.1355  -24.8727  -50.2406 H         1 UNK         0.0600 
    224 H224        0.6797  -23.2124  -50.1193 H         1 UNK         0.0600 
    225 H225       -3.0914  -22.6301  -51.5665 H         1 UNK         0.3000 
    226 H226       -2.4385  -19.7608  -51.6365 H         1 UNK         0.0600 
    227 H227       -4.1930  -20.5502  -50.0847 H         1 UNK         0.0600 
    228 H228       -4.8943  -19.5037  -51.3142 H         1 UNK         0.0600 
    229 H229       -5.1158  -21.2416  -51.4162 H         1 UNK         0.0600 
    230 H230       -4.0413  -22.2452  -53.6850 H         1 UNK         0.3000 
    231 H231       -4.7266  -20.5754  -55.8609 H         1 UNK         0.0600 
    232 H232       -4.9209  -22.7170  -57.1098 H         1 UNK         0.0600 
    233 H233       -5.6314  -22.8719  -55.5097 H         1 UNK         0.0600 
    234 H234       -4.0448  -23.5642  -55.8421 H         1 UNK         0.0600 
    235 H235       -1.6852  -22.2039  -55.0682 H         1 UNK         0.3000 
    236 H236       -0.2375  -21.8241  -57.4308 H         1 UNK         0.0600 
    237 H237        0.7508  -21.8763  -54.5311 H         1 UNK         0.0600 
    238 H238        0.4887  -23.2844  -55.5606 H         1 UNK         0.0600 
    239 H239        1.7530  -22.1318  -55.9527 H         1 UNK         0.0600 
    240 H240       -1.2682  -19.3373  -55.2251 H         1 UNK         0.3000 
    241 H241        0.7204  -17.3640  -55.9039 H         1 UNK         0.0600 
    242 H242       -1.9343  -18.6646  -57.8344 H         1 UNK         0.3800 
    243 H243       -1.9224  -17.3640  -58.9997 H         1 UNK         0.3800 
    244 H244       -0.8158  -15.7280  -54.8924 H         1 UNK         0.0800 
    245 H245       -2.1165  -16.8945  -54.8832 H         1 UNK         0.0800 
    246 H246       -1.1539  -15.2660  -52.0712 H         1 UNK         0.0800 
    247 H247       -2.5599  -16.1512  -52.6181 H         1 UNK         0.0800 
@<TRIPOS>BOND
     1    1    2 1    
     2    1  127 1    
     3    1  128 1    
     4    1  129 1    
     5    2    3 2    
     6    2    4 am   BACKBONE|DICT|INTERRES
     7    4    5 1    
     8    4  130 1    
     9    5    6 1    
    10    5   65 1    
    11    5  131 1    
    12    6    7 1    
    13    6  132 1    
    14    6  133 1    
    15    7    8 1    
    16    8    9 1    
    17    8  134 1    
    18    8  135 1    
    19    9   10 ar   
    20    9   14 ar   
    21   10   11 ar   
    22   10  136 1    
    23   11   12 ar   
    24   11  126 1    
    25   12   13 ar   
    26   12  137 1    
    27   13   14 ar   
    28   13   15 1    
    29   14  138 1    
    30   15   16 1    
    31   15  139 1    
    32   15  140 1    
    33   16   17 1    
    34   17   18 1    
    35   17  141 1    
    36   17  142 1    
    37   18   19 1    
    38   18   67 1    
    39   18  143 1    
    40   19   20 am   BACKBONE|DICT|INTERRES
    41   19  144 1    
    42   20   21 2    
    43   20   22 1    
    44   22   23 1    
    45   22   24 1    
    46   22  145 1    
    47   23  146 1    
    48   23  147 1    
    49   23  148 1    
    50   24   25 am   BACKBONE|DICT|INTERRES
    51   24  149 1    
    52   25   26 2    
    53   25   27 1    
    54   27   28 1    
    55   27   29 1    
    56   27  150 1    
    57   28  151 1    
    58   28  152 1    
    59   28  153 1    
    60   29   30 am   BACKBONE|DICT|INTERRES
    61   29  154 1    
    62   30   31 2    
    63   30   32 1    
    64   32   33 1    
    65   32   34 1    
    66   32  155 1    
    67   33  156 1    
    68   33  157 1    
    69   33  158 1    
    70   34   35 am   BACKBONE|DICT|INTERRES
    71   34  159 1    
    72   35   36 2    
    73   35   37 1    
    74   37   38 1    
    75   37   39 1    
    76   37  160 1    
    77   38  161 1    
    78   38  162 1    
    79   38  163 1    
    80   39   40 am   BACKBONE|DICT|INTERRES
    81   39  164 1    
    82   40   41 2    
    83   40   42 1    
    84   42   43 1    
    85   42   44 1    
    86   42  165 1    
    87   43  166 1    
    88   43  167 1    
    89   43  168 1    
    90   44   45 am   BACKBONE|DICT|INTERRES
    91   44  169 1    
    92   45   46 2    
    93   45   47 1    
    94   47   48 1    
    95   47   49 1    
    96   47  170 1    
    97   48  171 1    
    98   48  172 1    
    99   48  173 1    
   100   49   50 am   BACKBONE|DICT|INTERRES
   101   49  174 1    
   102   50   51 2    
   103   50   52 1    
   104   52   53 1    
   105   52   54 1    
   106   52  175 1    
   107   53  176 1    
   108   53  177 1    
   109   53  178 1    
   110   54   55 am   BACKBONE|DICT|INTERRES
   111   54  179 1    
   112   55   56 2    
   113   55   57 1    
   114   57   58 1    
   115   57   59 1    
   116   57  180 1    
   117   58  181 1    
   118   58  182 1    
   119   58  183 1    
   120   59   60 am   BACKBONE|DICT|INTERRES
   121   59  184 1    
   122   60   61 2    
   123   60   62 1    
   124   62   63 1    
   125   62   64 1    
   126   62  185 1    
   127   63  186 1    
   128   63  187 1    
   129   63  188 1    
   130   64   65 am   BACKBONE|DICT|INTERRES
   131   64  189 1    
   132   65   66 2    
   133   67   68 2    
   134   67   69 am   BACKBONE|DICT|INTERRES
   135   69   70 1    
   136   69  190 1    
   137   70   71 1    
   138   70   72 1    
   139   70  191 1    
   140   71  192 1    
   141   71  193 1    
   142   71  194 1    
   143   72   73 2    
   144   72   74 am   BACKBONE|DICT|INTERRES
   145   74   75 1    
   146   74  195 1    
   147   75   76 1    
   148   75   77 1    
   149   75  196 1    
   150   76  197 1    
   151   76  198 1    
   152   76  199 1    
   153   77   78 2    
   154   77   79 am   BACKBONE|DICT|INTERRES
   155   79   80 1    
   156   79  200 1    
   157   80   81 1    
   158   80   82 1    
   159   80  201 1    
   160   81  202 1    
   161   81  203 1    
   162   81  204 1    
   163   82   83 2    
   164   82   84 am   BACKBONE|DICT|INTERRES
   165   84   85 1    
   166   84  205 1    
   167   85   86 1    
   168   85   87 1    
   169   85  206 1    
   170   86  207 1    
   171   86  208 1    
   172   86  209 1    
   173   87   88 2    
   174   87   89 am   BACKBONE|DICT|INTERRES
   175   89   90 1    
   176   89  210 1    
   177   90   91 1    
   178   90   92 1    
   179   90  211 1    
   180   91  212 1    
   181   91  213 1    
   182   91  214 1    
   183   92   93 2    
   184   92   94 am   BACKBONE|DICT|INTERRES
   185   94   95 1    
   186   94  215 1    
   187   95   96 1    
   188   95   97 1    
   189   95  216 1    
   190   96  217 1    
   191   96  218 1    
   192   96  219 1    
   193   97   98 2    
   194   97   99 am   BACKBONE|DICT|INTERRES
   195   99  100 1    
   196   99  220 1    
   197  100  101 1    
   198  100  102 1    
   199  100  221 1    
   200  101  222 1    
   201  101  223 1    
   202  101  224 1    
   203  102  103 2    
   204  102  104 am   BACKBONE|DICT|INTERRES
   205  104  105 1    
   206  104  225 1    
   207  105  106 1    
   208  105  107 1    
   209  105  226 1    
   210  106  227 1    
   211  106  228 1    
   212  106  229 1    
   213  107  108 2    
   214  107  109 am   BACKBONE|DICT|INTERRES
   215  109  110 1    
   216  109  230 1    
   217  110  111 1    
   218  110  112 1    
   219  110  231 1    
   220  111  232 1    
   221  111  233 1    
   222  111  234 1    
   223  112  113 2    
   224  112  114 am   BACKBONE|DICT|INTERRES
   225  114  115 1    
   226  114  235 1    
   227  115  116 1    
   228  115  117 1    
   229  115  236 1    
   230  116  237 1    
   231  116  238 1    
   232  116  239 1    
   233  117  118 2    
   234  117  119 am   BACKBONE|DICT|INTERRES
   235  119  120 1    
   236  119  240 1    
   237  120  121 1    
   238  120  124 1    
   239  120  241 1    
   240  121  122 am   BACKBONE|DICT|INTERRES
   241  121  123 2    
   242  122  242 1    
   243  122  243 1    
   244  124  125 1    
   245  124  244 1    
   246  124  245 1    
   247  125  126 1    
   248  126  246 1    
   249  126  247 1    
@<TRIPOS>SUBSTRUCTURE
     1 UNK         1 GROUP             0       ****    0 ROOT    
