@<TRIPOS>MOLECULE
3R540
247   249    1
SMALL
USER_CHARGES


@<TRIPOS>ATOM
      1 CA          0.1515  -15.8943  -53.7802 C.3       0 UNK        -0.1800 
      2 C           0.2374  -14.7934  -52.7349 C.2       0 UNK         0.5000 
      3 O          -0.0361  -13.6328  -53.0432 O.2       0 UNK        -0.5000 
      4 N           0.6282  -15.1516  -51.5072 N.am      1 UNK        -0.5000 
      5 CA          0.6787  -14.2562  -50.3498 C.3       1 UNK         0.1400 
      6 C6          1.7584  -14.7204  -49.3378 C.3       23 UNK        -0.0398 
      7 S7          1.3805  -16.2959  -48.4906 S.3       23 UNK        -0.2404 
      8 C8          2.8537  -17.3118  -48.8030 C.3       23 UNK        -0.0205 
      9 C9          2.5521  -18.4452  -49.7689 C.ar      23 UNK        -0.0193 
     10 C10         3.0290  -18.4154  -51.0824 C.ar      23 UNK        -0.1150 
     11 C11         2.8039  -19.4960  -51.9420 C.ar      23 UNK        -0.0193 
     12 C12         2.0894  -20.6056  -51.4773 C.ar      23 UNK        -0.1150 
     13 C13         1.5775  -20.6310  -50.1774 C.ar      23 UNK        -0.0193 
     14 C14         1.8159  -19.5477  -49.3287 C.ar      23 UNK        -0.1150 
     15 C15         0.7597  -21.8222  -49.6990 C.3       23 UNK        -0.0205 
     16 S16         1.7833  -23.0187  -48.7860 S.3       23 UNK        -0.2404 
     17 C17         1.7053  -22.3555  -47.0853 C.3       23 UNK        -0.0398 
     18 CA          1.0596  -23.3411  -46.0817 C.3       11 UNK         0.1400 
     19 N           1.4386  -23.0024  -44.7115 N.am      11 UNK        -0.5000 
     20 C           1.5494  -23.8567  -43.6879 C.2       10 UNK         0.5000 
     21 O           1.3553  -25.0685  -43.7915 O.2       10 UNK        -0.5000 
     22 CA          1.9110  -23.2387  -42.3178 C.3       10 UNK         0.1400 
     23 CB          2.7042  -24.2042  -41.4135 C.3       10 UNK        -0.1800 
     24 N           2.5825  -21.9361  -42.4276 N.am      10 UNK        -0.5000 
     25 C           3.7811  -21.6711  -42.9723 C.2       9 UNK         0.5000 
     26 O           4.5491  -22.5376  -43.3913 O.2       9 UNK        -0.5000 
     27 CA          4.1813  -20.1876  -43.1207 C.3       9 UNK         0.1400 
     28 CB          4.1719  -19.7855  -44.6054 C.3       9 UNK        -0.1800 
     29 N           3.3137  -19.2657  -42.3852 N.am      9 UNK        -0.5000 
     30 C           3.3288  -19.0817  -41.0586 C.2       8 UNK         0.5000 
     31 O           4.1284  -19.6317  -40.3006 O.2       8 UNK        -0.5000 
     32 CA          2.2373  -18.1603  -40.4784 C.3       8 UNK         0.1400 
     33 CB          2.6827  -16.6911  -40.5261 C.3       8 UNK        -0.1800 
     34 N           0.9440  -18.3038  -41.1549 N.am      8 UNK        -0.5000 
     35 C           0.2130  -19.4284  -41.1659 C.2       7 UNK         0.5000 
     36 O           0.5421  -20.4629  -40.5859 O.2       7 UNK        -0.5000 
     37 CA         -1.0719  -19.4213  -42.0102 C.3       7 UNK         0.1400 
     38 CB         -2.2179  -18.7116  -41.2754 C.3       7 UNK        -0.1800 
     39 N          -0.8714  -18.8165  -43.3264 N.am      7 UNK        -0.5000 
     40 C          -0.0959  -19.3340  -44.2894 C.2       6 UNK         0.5000 
     41 O           0.4727  -20.4214  -44.1958 O.2       6 UNK        -0.5000 
     42 CA          0.1072  -18.4868  -45.5565 C.3       6 UNK         0.1400 
     43 CB         -1.0459  -18.7063  -46.5464 C.3       6 UNK        -0.1800 
     44 N           0.2522  -17.0627  -45.2545 N.am      6 UNK        -0.5000 
     45 C           1.2545  -16.5428  -44.5309 C.2       5 UNK         0.5000 
     46 O           2.1904  -17.2058  -44.0857 O.2       5 UNK        -0.5000 
     47 CA          1.1612  -15.0482  -44.1836 C.3       5 UNK         0.1400 
     48 CB          1.6930  -14.1683  -45.3247 C.3       5 UNK        -0.1800 
     49 N          -0.2078  -14.6598  -43.8470 N.am      5 UNK        -0.5000 
     50 C          -0.8315  -15.0119  -42.7138 C.2       4 UNK         0.5000 
     51 O          -0.2964  -15.6615  -41.8153 O.2       4 UNK        -0.5000 
     52 CA         -2.3102  -14.6014  -42.5779 C.3       4 UNK         0.1400 
     53 CB         -2.4255  -13.1693  -42.0352 C.3       4 UNK        -0.1800 
     54 N          -3.0412  -14.7000  -43.8423 N.am      4 UNK        -0.5000 
     55 C          -3.3183  -15.8533  -44.4671 C.2       3 UNK         0.5000 
     56 O          -3.0361  -16.9598  -44.0092 O.2       3 UNK        -0.5000 
     57 CA         -3.9691  -15.7506  -45.8610 C.3       3 UNK         0.1400 
     58 CB         -5.5005  -15.7516  -45.7519 C.3       3 UNK        -0.1800 
     59 N          -3.5333  -14.5816  -46.6343 N.am      3 UNK        -0.5000 
     60 C          -2.2646  -14.3586  -47.0012 C.2       2 UNK         0.5000 
     61 O          -1.3262  -15.0784  -46.6563 O.2       2 UNK        -0.5000 
     62 CA         -1.9875  -13.0855  -47.8246 C.3       2 UNK         0.1400 
     63 CB         -1.7713  -11.8891  -46.8847 C.3       2 UNK        -0.1800 
     64 N          -0.8023  -13.2361  -48.6713 N.am      2 UNK        -0.5000 
     65 C          -0.7216  -14.0782  -49.7108 C.2       1 UNK         0.5000 
     66 O          -1.6933  -14.6978  -50.1490 O.2       1 UNK        -0.5000 
     67 C          -0.4756  -23.3980  -46.2329 C.2       11 UNK         0.5000 
     68 O          -0.9637  -24.1082  -47.1108 O.2       11 UNK        -0.5000 
     69 N          -1.2123  -22.6999  -45.3503 N.am      12 UNK        -0.5000 
     70 CA         -2.6793  -22.6066  -45.3254 C.3       12 UNK         0.1400 
     71 CB         -3.1160  -21.7351  -44.1399 C.3       12 UNK        -0.1800 
     72 C          -3.4228  -23.9575  -45.2945 C.2       12 UNK         0.5000 
     73 O          -4.5511  -24.0381  -45.7803 O.2       12 UNK        -0.5000 
     74 N          -2.7717  -24.9931  -44.7470 N.am      13 UNK        -0.5000 
     75 CA         -3.2494  -26.3755  -44.7405 C.3       13 UNK         0.1400 
     76 CB         -2.3763  -27.1951  -43.7780 C.3       13 UNK        -0.1800 
     77 C          -3.2664  -27.0257  -46.1399 C.2       13 UNK         0.5000 
     78 O          -4.0754  -27.9254  -46.3708 O.2       13 UNK        -0.5000 
     79 N          -2.3865  -26.5690  -47.0421 N.am      14 UNK        -0.5000 
     80 CA         -2.3284  -26.9980  -48.4371 C.3       14 UNK         0.1400 
     81 CB         -0.8710  -26.9826  -48.9282 C.3       14 UNK        -0.1800 
     82 C          -3.2185  -26.1009  -49.3109 C.2       14 UNK         0.5000 
     83 O          -4.0460  -26.6210  -50.0608 O.2       14 UNK        -0.5000 
     84 N          -3.0575  -24.7775  -49.1829 N.am      15 UNK        -0.5000 
     85 CA         -3.8452  -23.7688  -49.8855 C.3       15 UNK         0.1400 
     86 CB         -3.3975  -23.6574  -51.3537 C.3       15 UNK        -0.1800 
     87 C          -3.6886  -22.4190  -49.1779 C.2       15 UNK         0.5000 
     88 O          -2.5968  -22.1001  -48.7098 O.2       15 UNK        -0.5000 
     89 N          -4.7694  -21.6297  -49.1440 N.am      16 UNK        -0.5000 
     90 CA         -4.8345  -20.3294  -48.4666 C.3       16 UNK         0.1400 
     91 CB         -6.3082  -19.9095  -48.3455 C.3       16 UNK        -0.1800 
     92 C          -4.0126  -19.2088  -49.1359 C.2       16 UNK         0.5000 
     93 O          -3.8592  -18.1476  -48.5338 O.2       16 UNK        -0.5000 
     94 N          -3.5418  -19.4378  -50.3709 N.am      17 UNK        -0.5000 
     95 CA         -2.6869  -18.5864  -51.2127 C.3       17 UNK         0.1400 
     96 CB         -1.3496  -18.2820  -50.5162 C.3       17 UNK        -0.1800 
     97 C          -3.3464  -17.2921  -51.7296 C.2       17 UNK         0.5000 
     98 O          -3.0532  -16.8816  -52.8527 O.2       17 UNK        -0.5000 
     99 N          -4.2297  -16.6913  -50.9263 N.am      18 UNK        -0.5000 
    100 CA        -5.0050  -15.5009  -51.2635 C.3       18 UNK         0.1400 
    101 CB        -5.3624  -14.7604  -49.9660 C.3       18 UNK        -0.1800 
    102 C         -6.2816  -15.8469  -52.0502 C.2       18 UNK         0.5000 
    103 O         -6.7141  -15.0499  -52.8832 O.2       18 UNK        -0.5000 
    104 N         -6.8680  -17.0205  -51.7673 N.am      19 UNK        -0.5000 
    105 CA        -8.0946  -17.5162  -52.4010 C.3       19 UNK         0.1400 
    106 CB        -8.6549  -18.6807  -51.5698 C.3       19 UNK        -0.1800 
    107 C         -7.8733  -17.9527  -53.8612 C.2       19 UNK         0.5000 
    108 O         -8.7498  -17.7562  -54.7035 O.2       19 UNK        -0.5000 
    109 N         -6.6929  -18.5160  -54.1267 N.am      20 UNK        -0.5000 
    110 CA        -6.1737  -18.8832  -55.4345 C.3       20 UNK         0.1400 
    111 CB        -6.6660  -20.2836  -55.8349 C.3       20 UNK        -0.1800 
    112 C         -4.6503  -18.8397  -55.2953 C.2       20 UNK         0.5000 
    113 O         -4.1389  -19.3461  -54.2923 O.2       20 UNK        -0.5000 
    114 N         -3.9722  -18.2158  -56.2679 N.am      21 UNK        -0.5000 
    115 CA        -2.5449  -17.8799  -56.2548 C.3       21 UNK         0.1400 
    116 CB        -2.1646  -17.2471  -57.6035 C.3       21 UNK        -0.1800 
    117 C         -1.6302  -19.0734  -55.9192 C.2       21 UNK         0.5000 
    118 O         -1.4381  -19.9517  -56.7624 O.2       21 UNK        -0.5000 
    119 N         -1.1227  -19.0828  -54.6800 N.am      22 UNK        -0.5000 
    120 CA        -0.3091  -20.1540  -54.0757 C.3       22 UNK         0.1400 
    121 C         -1.0638  -21.5038  -53.8625 C.2       22 UNK         0.5000 
    122 N         -2.3899  -21.5412  -53.9091 N.am      22 UNK        -0.7600 
    123 O         -0.4433  -22.5338  -53.6156 O.2       22 UNK        -0.5000 
    124 C124        1.0692  -20.3397  -54.7747 C.3       23 UNK        -0.0398 
    125 S125        2.1512  -18.8818  -54.5815 S.3       23 UNK        -0.2404 
    126 C126        3.3646  -19.4769  -53.3580 C.3       23 UNK        -0.0205 
    127 H127       -0.8112  -15.8499  -54.2874 H         1 UNK         0.0600 
    128 H128        0.2552  -16.8812  -53.3303 H         1 UNK         0.0600 
    129 H129        0.9380  -15.7725  -54.5247 H         1 UNK         0.0600 
    130 H130        0.8083  -16.1231  -51.3002 H         1 UNK         0.3000 
    131 H131        0.9814  -13.2678  -50.7022 H         1 UNK         0.0600 
    132 H132        2.7160  -14.7971  -49.8532 H         1 UNK         0.0800 
    133 H133        1.9114  -13.9596  -48.5718 H         1 UNK         0.0800 
    134 H134        3.1831  -17.7355  -47.8529 H         1 UNK         0.0800 
    135 H135        3.6856  -16.7042  -49.1601 H         1 UNK         0.0800 
    136 H136        3.5943  -17.5618  -51.4293 H         1 UNK         0.1150 
    137 H137        1.9225  -21.4516  -52.1280 H         1 UNK         0.1150 
    138 H138        1.4283  -19.5543  -48.3218 H         1 UNK         0.1150 
    139 H139       -0.0710  -21.4852  -49.0781 H         1 UNK         0.0800 
    140 H140        0.3060  -22.3292  -50.5524 H         1 UNK         0.0800 
    141 H141        1.1928  -21.3939  -47.0600 H         1 UNK         0.0800 
    142 H142        2.7348  -22.1484  -46.7888 H         1 UNK         0.0800 
    143 H143        1.4424  -24.3414  -46.2965 H         1 UNK         0.0600 
    144 H144        1.5107  -22.0112  -44.5021 H         1 UNK         0.3000 
    145 H145        0.9593  -23.0386  -41.8239 H         1 UNK         0.0600 
    146 H146        2.9470  -23.7386  -40.4582 H         1 UNK         0.0600 
    147 H147        2.1240  -25.1019  -41.1974 H         1 UNK         0.0600 
    148 H148        3.6366  -24.5247  -41.8785 H         1 UNK         0.0600 
    149 H149        2.0329  -21.1481  -42.1085 H         1 UNK         0.3000 
    150 H150        5.2002  -20.0828  -42.7427 H         1 UNK         0.0600 
    151 H151        4.8345  -20.4234  -45.1917 H         1 UNK         0.0600 
    152 H152        4.5113  -18.7580  -44.7379 H         1 UNK         0.0600 
    153 H153        3.1734  -19.8650  -45.0365 H         1 UNK         0.0600 
    154 H154        2.6759  -18.7050  -42.9438 H         1 UNK         0.3000 
    155 H155        2.0950  -18.4368  -39.4317 H         1 UNK         0.0600 
    156 H156        3.6256  -16.5516  -39.9961 H         1 UNK         0.0600 
    157 H157        1.9456  -16.0400  -40.0559 H         1 UNK         0.0600 
    158 H158        2.8280  -16.3473  -41.5501 H         1 UNK         0.0600 
    159 H159        0.5832  -17.4796  -41.6248 H         1 UNK         0.3000 
    160 H160       -1.3644  -20.4615  -42.1592 H         1 UNK         0.0600 
    161 H161       -2.0053  -17.6545  -41.1179 H         1 UNK         0.0600 
    162 H162       -2.3926  -19.1613  -40.2973 H         1 UNK         0.0600 
    163 H163       -3.1489  -18.7849  -41.8378 H         1 UNK         0.0600 
    164 H164       -1.3743  -17.9550  -43.5142 H         1 UNK         0.3000 
    165 H165        1.0321  -18.8165  -46.0330 H         1 UNK         0.0600 
    166 H166       -0.9048  -18.1173  -47.4519 H         1 UNK         0.0600 
    167 H167       -1.1137  -19.7531  -46.8463 H         1 UNK         0.0600 
    168 H168       -2.0076  -18.4265  -46.1168 H         1 UNK         0.0600 
    169 H169       -0.4405  -16.4311  -45.6489 H         1 UNK         0.3000 
    170 H170        1.7911  -14.8725  -43.3090 H         1 UNK         0.0600 
    171 H171        2.7126  -14.4501  -45.5908 H         1 UNK         0.0600 
    172 H172        1.0858  -14.2577  -46.2238 H         1 UNK         0.0600 
    173 H173        1.7095  -13.1174  -45.0362 H         1 UNK         0.0600 
    174 H174       -0.7395  -14.2077  -44.5764 H         1 UNK         0.3000 
    175 H175       -2.7787  -15.2775  -41.8596 H         1 UNK         0.0600 
    176 H176       -1.9033  -13.0705  -41.0825 H         1 UNK         0.0600 
    177 H177       -1.9948  -12.4405  -42.7230 H         1 UNK         0.0600 
    178 H178       -3.4666  -12.8954  -41.8636 H         1 UNK         0.0600 
    179 H179       -3.3094  -13.8349  -44.2870 H         1 UNK         0.3000 
    180 H180       -3.6698  -16.6397  -46.4174 H         1 UNK         0.0600 
    181 H181       -5.8694  -14.8614  -45.2412 H         1 UNK         0.0600 
    182 H182       -5.8508  -16.6210  -45.1939 H         1 UNK         0.0600 
    183 H183       -5.9647  -15.7932  -46.7374 H         1 UNK         0.0600 
    184 H184       -4.2544  -13.9380  -46.9250 H         1 UNK         0.3000 
    185 H185       -2.8478  -12.8823  -48.4651 H         1 UNK         0.0600 
    186 H186       -2.6453  -11.7209  -46.2543 H         1 UNK         0.0600 
    187 H187       -0.9158  -12.0436  -46.2254 H         1 UNK         0.0600 
    188 H188       -1.5990  -10.9716  -47.4477 H         1 UNK         0.0600 
    189 H189        0.0319  -12.7691  -48.3509 H         1 UNK         0.3000 
    190 H190       -0.7153  -22.1290  -44.6783 H         1 UNK         0.3000 
    191 H191       -2.9876  -22.0933  -46.2339 H         1 UNK         0.0600 
    192 H192       -2.7496  -22.1324  -43.1930 H         1 UNK         0.0600 
    193 H193       -4.2034  -21.6789  -44.0727 H         1 UNK         0.0600 
    194 H194       -2.7549  -20.7137  -44.2497 H         1 UNK         0.0600 
    195 H195       -1.8469  -24.8324  -44.3759 H         1 UNK         0.3000 
    196 H196       -4.2737  -26.3796  -44.3621 H         1 UNK         0.0600 
    197 H197       -2.7137  -28.2313  -43.7298 H         1 UNK         0.0600 
    198 H198       -2.4199  -26.7930  -42.7656 H         1 UNK         0.0600 
    199 H199       -1.3313  -27.2037  -44.0913 H         1 UNK         0.0600 
    200 H200       -1.8023  -25.7731  -46.8029 H         1 UNK         0.3000 
    201 H201       -2.6933  -28.0239  -48.5216 H         1 UNK         0.0600 
    202 H202       -0.2446  -27.6346  -48.3193 H         1 UNK         0.0600 
    203 H203       -0.4372  -25.9827  -48.9006 H         1 UNK         0.0600 
    204 H204       -0.8058  -27.3370  -49.9575 H         1 UNK         0.0600 
    205 H205       -2.3611  -24.4091  -48.5380 H         1 UNK         0.3000 
    206 H206       -4.8971  -24.0599  -49.8487 H         1 UNK         0.0600 
    207 H207       -3.5396  -24.5952  -51.8904 H         1 UNK         0.0600 
    208 H208       -3.9758  -22.8960  -51.8777 H         1 UNK         0.0600 
    209 H209       -2.3436  -23.3851  -51.4292 H         1 UNK         0.0600 
    210 H210       -5.6269  -21.9554  -49.5666 H         1 UNK         0.3000 
    211 H211       -4.4344  -20.4533  -47.4582 H         1 UNK         0.0600 
    212 H212       -6.4057  -18.9611  -47.8149 H         1 UNK         0.0600 
    213 H213       -6.8843  -20.6490  -47.7889 H         1 UNK         0.0600 
    214 H214       -6.7735  -19.7877  -49.3237 H         1 UNK         0.0600 
    215 H215       -3.7681  -20.3347  -50.7747 H         1 UNK         0.3000 
    216 H216       -2.4657  -19.1934  -52.0899 H         1 UNK         0.0600 
    217 H217       -0.6269  -17.8688  -51.2189 H         1 UNK         0.0600 
    218 H218       -0.9149  -19.1853  -50.0916 H         1 UNK         0.0600 
    219 H219       -1.4691  -17.5566  -49.7106 H         1 UNK         0.0600 
    220 H220       -4.3159  -17.0582  -49.9826 H         1 UNK         0.3000 
    221 H221       -4.3929  -14.8379  -51.8791 H         1 UNK         0.0600 
    222 H222       -5.9675  -15.3780  -49.3012 H         1 UNK         0.0600 
    223 H223       -4.4623  -14.4705  -49.4259 H         1 UNK         0.0600 
    224 H224       -5.9246  -13.8497  -50.1762 H         1 UNK         0.0600 
    225 H225       -6.4436  -17.6091  -51.0675 H         1 UNK         0.3000 
    226 H226       -8.8315  -16.7102  -52.4006 H         1 UNK         0.0600 
    227 H227       -8.8599  -18.3724  -50.5444 H         1 UNK         0.0600 
    228 H228       -9.5925  -19.0441  -51.9924 H         1 UNK         0.0600 
    229 H229       -7.9629  -19.5230  -51.5371 H         1 UNK         0.0600 
    230 H230       -6.0154  -18.6144  -53.3818 H         1 UNK         0.3000 
    231 H231       -6.4961  -18.1499  -56.1765 H         1 UNK         0.0600 
    232 H232       -7.7528  -20.3133  -55.9125 H         1 UNK         0.0600 
    233 H233       -6.3615  -21.0392  -55.1095 H         1 UNK         0.0600 
    234 H234       -6.2613  -20.5754  -56.8046 H         1 UNK         0.0600 
    235 H235       -4.4907  -17.8663  -57.0602 H         1 UNK         0.3000 
    236 H236       -2.4086  -17.1164  -55.4879 H         1 UNK         0.0600 
    237 H237       -1.1063  -16.9832  -57.6253 H         1 UNK         0.0600 
    238 H238       -2.3505  -17.9280  -58.4351 H         1 UNK         0.0600 
    239 H239       -2.7296  -16.3327  -57.7850 H         1 UNK         0.0600 
    240 H240       -1.3992  -18.3377  -54.0566 H         1 UNK         0.3000 
    241 H241       -0.1095  -19.8122  -53.0603 H         1 UNK         0.0600 
    242 H242       -2.8552  -22.4240  -53.7840 H         1 UNK         0.3800 
    243 H243       -2.9382  -20.7044  -54.0979 H         1 UNK         0.3800 
    244 H244        1.5970  -21.2124  -54.3907 H         1 UNK         0.0800 
    245 H245        0.9395  -20.5350  -55.8392 H         1 UNK         0.0800 
    246 H246        3.7217  -20.4694  -53.6369 H         1 UNK         0.0800 
    247 H247        4.2392  -18.8259  -53.3972 H         1 UNK         0.0800 
@<TRIPOS>BOND
     1    1    2 1    
     2    1  127 1    
     3    1  128 1    
     4    1  129 1    
     5    2    3 2    
     6    2    4 am   BACKBONE|DICT|INTERRES
     7    4    5 1    
     8    4  130 1    
     9    5    6 1    
    10    5   65 1    
    11    5  131 1    
    12    6    7 1    
    13    6  132 1    
    14    6  133 1    
    15    7    8 1    
    16    8    9 1    
    17    8  134 1    
    18    8  135 1    
    19    9   10 ar   
    20    9   14 ar   
    21   10   11 ar   
    22   10  136 1    
    23   11   12 ar   
    24   11  126 1    
    25   12   13 ar   
    26   12  137 1    
    27   13   14 ar   
    28   13   15 1    
    29   14  138 1    
    30   15   16 1    
    31   15  139 1    
    32   15  140 1    
    33   16   17 1    
    34   17   18 1    
    35   17  141 1    
    36   17  142 1    
    37   18   19 1    
    38   18   67 1    
    39   18  143 1    
    40   19   20 am   BACKBONE|DICT|INTERRES
    41   19  144 1    
    42   20   21 2    
    43   20   22 1    
    44   22   23 1    
    45   22   24 1    
    46   22  145 1    
    47   23  146 1    
    48   23  147 1    
    49   23  148 1    
    50   24   25 am   BACKBONE|DICT|INTERRES
    51   24  149 1    
    52   25   26 2    
    53   25   27 1    
    54   27   28 1    
    55   27   29 1    
    56   27  150 1    
    57   28  151 1    
    58   28  152 1    
    59   28  153 1    
    60   29   30 am   BACKBONE|DICT|INTERRES
    61   29  154 1    
    62   30   31 2    
    63   30   32 1    
    64   32   33 1    
    65   32   34 1    
    66   32  155 1    
    67   33  156 1    
    68   33  157 1    
    69   33  158 1    
    70   34   35 am   BACKBONE|DICT|INTERRES
    71   34  159 1    
    72   35   36 2    
    73   35   37 1    
    74   37   38 1    
    75   37   39 1    
    76   37  160 1    
    77   38  161 1    
    78   38  162 1    
    79   38  163 1    
    80   39   40 am   BACKBONE|DICT|INTERRES
    81   39  164 1    
    82   40   41 2    
    83   40   42 1    
    84   42   43 1    
    85   42   44 1    
    86   42  165 1    
    87   43  166 1    
    88   43  167 1    
    89   43  168 1    
    90   44   45 am   BACKBONE|DICT|INTERRES
    91   44  169 1    
    92   45   46 2    
    93   45   47 1    
    94   47   48 1    
    95   47   49 1    
    96   47  170 1    
    97   48  171 1    
    98   48  172 1    
    99   48  173 1    
   100   49   50 am   BACKBONE|DICT|INTERRES
   101   49  174 1    
   102   50   51 2    
   103   50   52 1    
   104   52   53 1    
   105   52   54 1    
   106   52  175 1    
   107   53  176 1    
   108   53  177 1    
   109   53  178 1    
   110   54   55 am   BACKBONE|DICT|INTERRES
   111   54  179 1    
   112   55   56 2    
   113   55   57 1    
   114   57   58 1    
   115   57   59 1    
   116   57  180 1    
   117   58  181 1    
   118   58  182 1    
   119   58  183 1    
   120   59   60 am   BACKBONE|DICT|INTERRES
   121   59  184 1    
   122   60   61 2    
   123   60   62 1    
   124   62   63 1    
   125   62   64 1    
   126   62  185 1    
   127   63  186 1    
   128   63  187 1    
   129   63  188 1    
   130   64   65 am   BACKBONE|DICT|INTERRES
   131   64  189 1    
   132   65   66 2    
   133   67   68 2    
   134   67   69 am   BACKBONE|DICT|INTERRES
   135   69   70 1    
   136   69  190 1    
   137   70   71 1    
   138   70   72 1    
   139   70  191 1    
   140   71  192 1    
   141   71  193 1    
   142   71  194 1    
   143   72   73 2    
   144   72   74 am   BACKBONE|DICT|INTERRES
   145   74   75 1    
   146   74  195 1    
   147   75   76 1    
   148   75   77 1    
   149   75  196 1    
   150   76  197 1    
   151   76  198 1    
   152   76  199 1    
   153   77   78 2    
   154   77   79 am   BACKBONE|DICT|INTERRES
   155   79   80 1    
   156   79  200 1    
   157   80   81 1    
   158   80   82 1    
   159   80  201 1    
   160   81  202 1    
   161   81  203 1    
   162   81  204 1    
   163   82   83 2    
   164   82   84 am   BACKBONE|DICT|INTERRES
   165   84   85 1    
   166   84  205 1    
   167   85   86 1    
   168   85   87 1    
   169   85  206 1    
   170   86  207 1    
   171   86  208 1    
   172   86  209 1    
   173   87   88 2    
   174   87   89 am   BACKBONE|DICT|INTERRES
   175   89   90 1    
   176   89  210 1    
   177   90   91 1    
   178   90   92 1    
   179   90  211 1    
   180   91  212 1    
   181   91  213 1    
   182   91  214 1    
   183   92   93 2    
   184   92   94 am   BACKBONE|DICT|INTERRES
   185   94   95 1    
   186   94  215 1    
   187   95   96 1    
   188   95   97 1    
   189   95  216 1    
   190   96  217 1    
   191   96  218 1    
   192   96  219 1    
   193   97   98 2    
   194   97   99 am   BACKBONE|DICT|INTERRES
   195   99  100 1    
   196   99  220 1    
   197  100  101 1    
   198  100  102 1    
   199  100  221 1    
   200  101  222 1    
   201  101  223 1    
   202  101  224 1    
   203  102  103 2    
   204  102  104 am   BACKBONE|DICT|INTERRES
   205  104  105 1    
   206  104  225 1    
   207  105  106 1    
   208  105  107 1    
   209  105  226 1    
   210  106  227 1    
   211  106  228 1    
   212  106  229 1    
   213  107  108 2    
   214  107  109 am   BACKBONE|DICT|INTERRES
   215  109  110 1    
   216  109  230 1    
   217  110  111 1    
   218  110  112 1    
   219  110  231 1    
   220  111  232 1    
   221  111  233 1    
   222  111  234 1    
   223  112  113 2    
   224  112  114 am   BACKBONE|DICT|INTERRES
   225  114  115 1    
   226  114  235 1    
   227  115  116 1    
   228  115  117 1    
   229  115  236 1    
   230  116  237 1    
   231  116  238 1    
   232  116  239 1    
   233  117  118 2    
   234  117  119 am   BACKBONE|DICT|INTERRES
   235  119  120 1    
   236  119  240 1    
   237  120  121 1    
   238  120  124 1    
   239  120  241 1    
   240  121  122 am   BACKBONE|DICT|INTERRES
   241  121  123 2    
   242  122  242 1    
   243  122  243 1    
   244  124  125 1    
   245  124  244 1    
   246  124  245 1    
   247  125  126 1    
   248  126  246 1    
   249  126  247 1    
@<TRIPOS>SUBSTRUCTURE
     1 UNK         1 GROUP             0       ****    0 ROOT    
