@<TRIPOS>MOLECULE
3R540
247   249    1
SMALL
USER_CHARGES


@<TRIPOS>ATOM
      1 CA         -0.4583  -10.7920  -48.3058 C.3       0 UNK        -0.1800 
      2 C          -0.8643  -10.8018  -46.8391 C.2       0 UNK         0.5000 
      3 O          -1.7695  -10.0644  -46.4507 O.2       0 UNK        -0.5000 
      4 N          -0.1974  -11.6404  -46.0345 N.am      1 UNK        -0.5000 
      5 CA         -0.4233  -11.8434  -44.5946 C.3       1 UNK         0.1400 
      6 C6         -1.7956  -12.4940  -44.2725 C.3       23 UNK        -0.0398 
      7 S7         -1.9399  -14.1735  -44.9677 S.3       23 UNK        -0.2404 
      8 C8         -3.0906  -13.9049  -46.3514 C.3       23 UNK        -0.0205 
      9 C9         -3.4888  -15.2340  -46.9702 C.ar      23 UNK        -0.0193 
     10 C10        -2.8792  -15.6910  -48.1426 C.ar      23 UNK        -0.1150 
     11 C11        -3.2024  -16.9473  -48.6662 C.ar      23 UNK        -0.0193 
     12 C12        -4.1417  -17.7461  -48.0078 C.ar      23 UNK        -0.1150 
     13 C13        -4.7687  -17.2906  -46.8442 C.ar      23 UNK        -0.0193 
     14 C14        -4.4500  -16.0275  -46.3407 C.ar      23 UNK        -0.1150 
     15 C15        -5.7534  -18.1812  -46.1013 C.3       23 UNK        -0.0205 
     16 S16        -5.1764  -18.6319  -44.4263 S.3       23 UNK        -0.2404 
     17 C17        -3.4190  -19.0623  -44.6906 C.3       23 UNK        -0.0398 
     18 CA         -3.2179  -20.3460  -45.5304 C.3       11 UNK         0.1400 
     19 N          -1.9119  -20.3709  -46.1952 N.am      11 UNK        -0.5000 
     20 C          -1.5249  -21.2848  -47.0949 C.2       10 UNK         0.5000 
     21 O          -2.2527  -22.1872  -47.5010 O.2       10 UNK        -0.5000 
     22 CA         -0.0667  -21.2281  -47.5814 C.3       10 UNK         0.1400 
     23 CB          0.0982  -20.2099  -48.7187 C.3       10 UNK        -0.1800 
     24 N           0.8674  -20.9376  -46.4934 N.am      10 UNK        -0.5000 
     25 C           1.0642  -21.7463  -45.4411 C.2       9 UNK         0.5000 
     26 O           0.5401  -22.8546  -45.3284 O.2       9 UNK        -0.5000 
     27 CA          1.9488  -21.2107  -44.3008 C.3       9 UNK         0.1400 
     28 CB          3.4362  -21.4195  -44.6200 C.3       9 UNK        -0.1800 
     29 N           1.6970  -19.7986  -44.0067 N.am      9 UNK        -0.5000 
     30 C           0.5366  -19.3117  -43.5425 C.2       8 UNK         0.5000 
     31 O          -0.4314  -20.0170  -43.2553 O.2       8 UNK        -0.5000 
     32 CA          0.4162  -17.7777  -43.4390 C.3       8 UNK         0.1400 
     33 CB          1.0888  -17.2510  -42.1633 C.3       8 UNK        -0.1800 
     34 N           0.9738  -17.0943  -44.6069 N.am      8 UNK        -0.5000 
     35 C           0.4976  -17.2239  -45.8534 C.2       7 UNK         0.5000 
     36 O          -0.4965  -17.8888  -46.1376 O.2       7 UNK        -0.5000 
     37 CA          1.3105  -16.5626  -46.9777 C.3       7 UNK         0.1400 
     38 CB          0.9520  -15.0761  -47.1228 C.3       7 UNK        -0.1800 
     39 N           2.7489  -16.7132  -46.7520 N.am      7 UNK        -0.5000 
     40 C           3.4143  -17.8679  -46.9021 C.2       6 UNK         0.5000 
     41 O           2.8862  -18.9103  -47.2874 O.2       6 UNK        -0.5000 
     42 CA          4.9100  -17.8721  -46.5300 C.3       6 UNK         0.1400 
     43 CB          5.7623  -17.4136  -47.7224 C.3       6 UNK        -0.1800 
     44 N           5.2144  -17.0348  -45.3688 N.am      6 UNK        -0.5000 
     45 C           4.7950  -17.2849  -44.1201 C.2       5 UNK         0.5000 
     46 O           4.1500  -18.2843  -43.8072 O.2       5 UNK        -0.5000 
     47 CA          5.0966  -16.2120  -43.0527 C.3       5 UNK         0.1400 
     48 CB          6.4427  -16.4961  -42.3703 C.3       5 UNK        -0.1800 
     49 N           5.0937  -14.8372  -43.5679 N.am      5 UNK        -0.5000 
     50 C           4.0649  -14.2644  -44.2066 C.2       4 UNK         0.5000 
     51 O           3.0000  -14.8428  -44.4340 O.2       4 UNK        -0.5000 
     52 CA          4.2814  -12.8169  -44.6908 C.3       4 UNK         0.1400 
     53 CB          3.3605  -12.4605  -45.8709 C.3       4 UNK        -0.1800 
     54 N           4.1482  -11.7979  -43.6437 N.am      4 UNK        -0.5000 
     55 C           3.2061  -11.6776  -42.6925 C.2       3 UNK         0.5000 
     56 O           2.3177  -12.4977  -42.4702 O.2       3 UNK        -0.5000 
     57 CA          3.2209  -10.3652  -41.8877 C.3       3 UNK         0.1400 
     58 CB          4.1803  -10.4826  -40.6938 C.3       3 UNK        -0.1800 
     59 N           3.6298   -9.2299  -42.7234 N.am      3 UNK        -0.5000 
     60 C           2.8637   -8.4581  -43.5119 C.2       2 UNK         0.5000 
     61 O           3.3792   -7.6378  -44.2705 O.2       2 UNK        -0.5000 
     62 CA          1.3246   -8.5877  -43.4819 C.3       2 UNK         0.1400 
     63 CB          0.6109   -7.3952  -44.1495 C.3       2 UNK        -0.1800 
     64 N           0.9020   -9.8208  -44.1412 N.am      2 UNK        -0.5000 
     65 C          -0.1510  -10.5623  -43.7686 C.2       1 UNK         0.5000 
     66 O          -0.8794  -10.2692  -42.8183 O.2       1 UNK        -0.5000 
     67 C          -3.4730  -21.6154  -44.6936 C.2       11 UNK         0.5000 
     68 O          -4.5484  -22.2051  -44.8014 O.2       11 UNK        -0.5000 
     69 N          -2.4621  -22.0533  -43.9288 N.am      12 UNK        -0.5000 
     70 CA         -2.4867  -23.2950  -43.1492 C.3       12 UNK         0.1400 
     71 CB         -1.2298  -23.3696  -42.2696 C.3       12 UNK        -0.1800 
     72 C          -2.6265  -24.5612  -44.0207 C.2       12 UNK         0.5000 
     73 O          -3.2468  -25.5323  -43.5869 O.2       12 UNK        -0.5000 
     74 N          -2.0874  -24.5103  -45.2456 N.am      13 UNK        -0.5000 
     75 CA         -2.2225  -25.5397  -46.2775 C.3       13 UNK         0.1400 
     76 CB         -0.9765  -25.4903  -47.1782 C.3       13 UNK        -0.1800 
     77 C          -3.5090  -25.3962  -47.1211 C.2       13 UNK         0.5000 
     78 O          -3.6978  -26.1783  -48.0542 O.2       13 UNK        -0.5000 
     79 N          -4.3490  -24.3913  -46.8254 N.am      14 UNK        -0.5000 
     80 CA         -5.5748  -24.0151  -47.5405 C.3       14 UNK         0.1400 
     81 CB         -6.6614  -25.0958  -47.3615 C.3       14 UNK        -0.1800 
     82 C          -5.3142  -23.6609  -49.0199 C.2       14 UNK         0.5000 
     83 O          -6.0636  -24.0843  -49.9001 O.2       14 UNK        -0.5000 
     84 N          -4.2174  -22.9300  -49.2674 N.am      15 UNK        -0.5000 
     85 CA         -3.6595  -22.5716  -50.5750 C.3       15 UNK         0.1400 
     86 CB         -4.5887  -21.5957  -51.3211 C.3       15 UNK        -0.1800 
     87 C          -3.2744  -23.8178  -51.3995 C.2       15 UNK         0.5000 
     88 O          -3.5384  -23.8768  -52.6034 O.2       15 UNK        -0.5000 
     89 N          -2.6827  -24.7992  -50.7000 N.am      16 UNK        -0.5000 
     90 CA         -2.3424  -26.1527  -51.1497 C.3       16 UNK         0.1400 
     91 CB         -1.2354  -26.1153  -52.2222 C.3       16 UNK        -0.1800 
     92 C          -3.5974  -26.9238  -51.6002 C.2       16 UNK         0.5000 
     93 O          -3.6380  -27.4402  -52.7160 O.2       16 UNK        -0.5000 
     94 N          -4.6288  -26.9237  -50.7422 N.am      17 UNK        -0.5000 
     95 CA         -5.9863  -27.4242  -51.0034 C.3       17 UNK         0.1400 
     96 CB         -5.9934  -28.9657  -51.0492 C.3       17 UNK        -0.1800 
     97 C          -6.6171  -26.7766  -52.2587 C.2       17 UNK         0.5000 
     98 O          -7.1998  -27.4662  -53.0972 O.2       17 UNK        -0.5000 
     99 N          -6.4304  -25.4546  -52.3702 N.am      18 UNK        -0.5000 
    100 CA        -6.7938  -24.5599  -53.4718 C.3       18 UNK         0.1400 
    101 CB        -8.3242  -24.5147  -53.6571 C.3       18 UNK        -0.1800 
    102 C         -6.0525  -24.8117  -54.8047 C.2       18 UNK         0.5000 
    103 O         -6.3968  -24.1696  -55.7982 O.2       18 UNK        -0.5000 
    104 N         -5.0499  -25.7036  -54.8320 N.am      19 UNK        -0.5000 
    105 CA        -4.2898  -26.0295  -56.0412 C.3       19 UNK         0.1400 
    106 CB        -3.6107  -27.3981  -55.8855 C.3       19 UNK        -0.1800 
    107 C         -3.2500  -24.9551  -56.4031 C.2       19 UNK         0.5000 
    108 O         -3.0036  -24.7397  -57.5908 O.2       19 UNK        -0.5000 
    109 N         -2.6593  -24.3017  -55.3917 N.am      20 UNK        -0.5000 
    110 CA        -1.7018  -23.2105  -55.5854 C.3       20 UNK         0.1400 
    111 CB        -0.7031  -23.1686  -54.4181 C.3       20 UNK        -0.1800 
    112 C         -2.4134  -21.8575  -55.7339 C.2       20 UNK         0.5000 
    113 O         -1.9053  -20.9849  -56.4391 O.2       20 UNK        -0.5000 
    114 N         -3.5643  -21.7038  -55.0579 N.am      21 UNK        -0.5000 
    115 CA        -4.4597  -20.5372  -55.0869 C.3       21 UNK         0.1400 
    116 CB        -5.1868  -20.4668  -56.4451 C.3       21 UNK        -0.1800 
    117 C         -3.7622  -19.2075  -54.7124 C.2       21 UNK         0.5000 
    118 O         -4.1085  -18.1545  -55.2505 O.2       21 UNK        -0.5000 
    119 N         -2.7720  -19.2981  -53.8130 N.am      22 UNK        -0.5000 
    120 CA        -1.8616  -18.2195  -53.3863 C.3       22 UNK         0.1400 
    121 C         -0.8335  -17.7706  -54.4723 C.2       22 UNK         0.5000 
    122 N         -0.6678  -18.4823  -55.5813 N.am      22 UNK        -0.7600 
    123 O         -0.1412  -16.7720  -54.2945 O.2       22 UNK        -0.5000 
    124 C124       -2.5799  -17.0069  -52.7260 C.3       23 UNK        -0.0398 
    125 S125       -3.6775  -17.4618  -51.3396 S.3       23 UNK        -0.2404 
    126 C126       -2.5240  -17.4515  -49.9302 C.3       23 UNK        -0.0205 
    127 H127       -0.1219   -9.7965  -48.5952 H         1 UNK         0.0600 
    128 H128       -1.3093  -11.0613  -48.9314 H         1 UNK         0.0600 
    129 H129        0.3486  -11.4966  -48.5091 H         1 UNK         0.0600 
    130 H130        0.5192  -12.2242  -46.4389 H         1 UNK         0.3000 
    131 H131        0.3398  -12.5522  -44.2713 H         1 UNK         0.0600 
    132 H132       -1.9256  -12.5980  -43.1940 H         1 UNK         0.0800 
    133 H133       -2.6194  -11.8667  -44.6153 H         1 UNK         0.0800 
    134 H134       -3.9814  -13.3848  -45.9962 H         1 UNK         0.0800 
    135 H135       -2.6246  -13.2585  -47.0959 H         1 UNK         0.0800 
    136 H136       -2.1416  -15.0759  -48.6377 H         1 UNK         0.1150 
    137 H137       -4.3776  -18.7243  -48.4030 H         1 UNK         0.1150 
    138 H138       -4.9160  -15.6821  -45.4283 H         1 UNK         0.1150 
    139 H139       -6.7093  -17.6626  -46.0169 H         1 UNK         0.0800 
    140 H140       -5.9534  -19.0928  -46.6661 H         1 UNK         0.0800 
    141 H141       -2.9351  -19.1489  -43.7167 H         1 UNK         0.0800 
    142 H142       -2.9306  -18.2134  -45.1685 H         1 UNK         0.0800 
    143 H143       -3.9518  -20.3478  -46.3375 H         1 UNK         0.0600 
    144 H144       -1.2737  -19.6116  -45.9711 H         1 UNK         0.3000 
    145 H145        0.1861  -22.2135  -47.9780 H         1 UNK         0.0600 
    146 H146        1.1198  -20.2061  -49.0987 H         1 UNK         0.0600 
    147 H147       -0.5584  -20.4522  -49.5552 H         1 UNK         0.0600 
    148 H148       -0.1416  -19.1977  -48.3959 H         1 UNK         0.0600 
    149 H149        1.3811  -20.0647  -46.5504 H         1 UNK         0.3000 
    150 H150        1.7120  -21.7839  -43.4021 H         1 UNK         0.0600 
    151 H151        3.6485  -22.4702  -44.8214 H         1 UNK         0.0600 
    152 H152        4.0650  -21.1153  -43.7832 H         1 UNK         0.0600 
    153 H153        3.7448  -20.8481  -45.4954 H         1 UNK         0.0600 
    154 H154        2.4729  -19.1593  -44.1539 H         1 UNK         0.3000 
    155 H155       -0.6462  -17.5300  -43.3885 H         1 UNK         0.0600 
    156 H156        0.6378  -17.6949  -41.2751 H         1 UNK         0.0600 
    157 H157        0.9816  -16.1692  -42.0787 H         1 UNK         0.0600 
    158 H158        2.1529  -17.4845  -42.1411 H         1 UNK         0.0600 
    159 H159        1.7775  -16.4935  -44.4568 H         1 UNK         0.3000 
    160 H160        1.0562  -17.0602  -47.9158 H         1 UNK         0.0600 
    161 H161        1.1002  -14.5314  -46.1913 H         1 UNK         0.0600 
    162 H162       -0.0954  -14.9586  -47.3986 H         1 UNK         0.0600 
    163 H163        1.5489  -14.5958  -47.8980 H         1 UNK         0.0600 
    164 H164        3.2238  -15.9238  -46.3364 H         1 UNK         0.3000 
    165 H165        5.1885  -18.8998  -46.2878 H         1 UNK         0.0600 
    166 H166        6.8266  -17.4882  -47.4983 H         1 UNK         0.0600 
    167 H167        5.5718  -18.0341  -48.5991 H         1 UNK         0.0600 
    168 H168        5.5480  -16.3804  -47.9985 H         1 UNK         0.0600 
    169 H169        5.7435  -16.1924  -45.5383 H         1 UNK         0.3000 
    170 H170        4.3118  -16.2767  -42.2967 H         1 UNK         0.0600 
    171 H171        6.4656  -17.5055  -41.9570 H         1 UNK         0.0600 
    172 H172        7.2752  -16.4085  -43.0694 H         1 UNK         0.0600 
    173 H173        6.6211  -15.8055  -41.5458 H         1 UNK         0.0600 
    174 H174        5.9307  -14.2952  -43.4080 H         1 UNK         0.3000 
    175 H175        5.3082  -12.7558  -45.0549 H         1 UNK         0.0600 
    176 H176        2.3165  -12.4777  -45.5710 H         1 UNK         0.0600 
    177 H177        3.5827  -11.4676  -46.2619 H         1 UNK         0.0600 
    178 H178        3.4809  -13.1686  -46.6917 H         1 UNK         0.0600 
    179 H179        4.8275  -11.0534  -43.7004 H         1 UNK         0.3000 
    180 H180        2.2198  -10.2032  -41.4871 H         1 UNK         0.0600 
    181 H181        5.2093  -10.6516  -41.0135 H         1 UNK         0.0600 
    182 H182        3.8972  -11.3138  -40.0464 H         1 UNK         0.0600 
    183 H183        4.1630   -9.5782  -40.0853 H         1 UNK         0.0600 
    184 H184        4.6237   -9.0575  -42.7467 H         1 UNK         0.3000 
    185 H185        1.0235   -8.5916  -42.4331 H         1 UNK         0.0600 
    186 H186        0.9196   -6.4508  -43.6997 H         1 UNK         0.0600 
    187 H187        0.8281   -7.3411  -45.2170 H         1 UNK         0.0600 
    188 H188       -0.4707   -7.4698  -44.0347 H         1 UNK         0.0600 
    189 H189        1.4561  -10.1154  -44.9328 H         1 UNK         0.3000 
    190 H190       -1.6203  -21.4881  -43.8637 H         1 UNK         0.3000 
    191 H191       -3.3575  -23.2528  -42.4918 H         1 UNK         0.0600 
    192 H192       -0.3202  -23.4186  -42.8679 H         1 UNK         0.0600 
    193 H193       -1.1533  -22.5006  -41.6158 H         1 UNK         0.0600 
    194 H194       -1.2512  -24.2553  -41.6336 H         1 UNK         0.0600 
    195 H195       -1.5583  -23.6854  -45.5018 H         1 UNK         0.3000 
    196 H196       -2.2565  -26.5216  -45.8014 H         1 UNK         0.0600 
    197 H197       -0.0636  -25.6011  -46.5926 H         1 UNK         0.0600 
    198 H198       -0.9089  -24.5488  -47.7232 H         1 UNK         0.0600 
    199 H199       -0.9879  -26.2965  -47.9125 H         1 UNK         0.0600 
    200 H200       -4.1058  -23.7805  -46.0539 H         1 UNK         0.3000 
    201 H201       -5.9380  -23.1005  -47.0702 H         1 UNK         0.0600 
    202 H202       -7.6085  -24.7738  -47.7960 H         1 UNK         0.0600 
    203 H203       -6.8422  -25.2990  -46.3061 H         1 UNK         0.0600 
    204 H204       -6.3849  -26.0352  -47.8405 H         1 UNK         0.0600 
    205 H205       -3.6305  -22.6682  -48.4749 H         1 UNK         0.3000 
    206 H206       -2.7261  -22.0435  -50.3751 H         1 UNK         0.0600 
    207 H207       -4.7992  -20.7141  -50.7155 H         1 UNK         0.0600 
    208 H208       -5.5403  -22.0551  -51.5855 H         1 UNK         0.0600 
    209 H209       -4.1220  -21.2487  -52.2398 H         1 UNK         0.0600 
    210 H210       -2.5690  -24.6438  -49.7089 H         1 UNK         0.3000 
    211 H211       -1.9460  -26.6814  -50.2819 H         1 UNK         0.0600 
    212 H212       -0.3778  -25.5321  -51.8873 H         1 UNK         0.0600 
    213 H213       -0.8793  -27.1213  -52.4461 H         1 UNK         0.0600 
    214 H214       -1.5918  -25.6848  -53.1566 H         1 UNK         0.0600 
    215 H215       -4.4807  -26.4967  -49.8318 H         1 UNK         0.3000 
    216 H216       -6.5995  -27.1128  -50.1567 H         1 UNK         0.0600 
    217 H217       -7.0108  -29.3493  -51.1337 H         1 UNK         0.0600 
    218 H218       -5.4273  -29.3485  -51.8989 H         1 UNK         0.0600 
    219 H219       -5.5622  -29.3878  -50.1415 H         1 UNK         0.0600 
    220 H220       -5.9933  -24.9888  -51.5787 H         1 UNK         0.3000 
    221 H221       -6.4786  -23.5670  -53.1513 H         1 UNK         0.0600 
    222 H222       -8.7137  -25.4563  -54.0447 H         1 UNK         0.0600 
    223 H223       -8.8289  -24.3041  -52.7142 H         1 UNK         0.0600 
    224 H224       -8.6121  -23.7307  -54.3583 H         1 UNK         0.0600 
    225 H225       -4.7908  -26.1937  -53.9830 H         1 UNK         0.3000 
    226 H226       -4.9924  -26.1064  -56.8740 H         1 UNK         0.0600 
    227 H227       -4.3204  -28.1610  -55.5647 H         1 UNK         0.0600 
    228 H228       -3.1835  -27.7270  -56.8335 H         1 UNK         0.0600 
    229 H229       -2.7975  -27.3657  -55.1601 H         1 UNK         0.0600 
    230 H230       -2.9496  -24.4940  -54.4382 H         1 UNK         0.3000 
    231 H231       -1.1298  -23.3854  -56.4993 H         1 UNK         0.0600 
    232 H232        0.0286  -22.3726  -54.5625 H         1 UNK         0.0600 
    233 H233       -0.1488  -24.1037  -54.3415 H         1 UNK         0.0600 
    234 H234       -1.1943  -22.9877  -53.4629 H         1 UNK         0.0600 
    235 H235       -3.8654  -22.4774  -54.4798 H         1 UNK         0.3000 
    236 H236       -5.2176  -20.7087  -54.3216 H         1 UNK         0.0600 
    237 H237       -5.6850  -21.4095  -56.6730 H         1 UNK         0.0600 
    238 H238       -5.9521  -19.6898  -56.4425 H         1 UNK         0.0600 
    239 H239       -4.4973  -20.2467  -57.2607 H         1 UNK         0.0600 
    240 H240       -2.5533  -20.2139  -53.4524 H         1 UNK         0.3000 
    241 H241       -1.2425  -18.6721  -52.6111 H         1 UNK         0.0600 
    242 H242        0.0105  -18.1766  -56.2606 H         1 UNK         0.3800 
    243 H243       -1.2153  -19.3168  -55.7702 H         1 UNK         0.3800 
    244 H244       -1.8544  -16.2758  -52.3666 H         1 UNK         0.0800 
    245 H245       -3.1795  -16.4754  -53.4656 H         1 UNK         0.0800 
    246 H246       -2.1562  -18.4649  -49.7674 H         1 UNK         0.0800 
    247 H247       -1.6487  -16.8403  -50.1532 H         1 UNK         0.0800 
@<TRIPOS>BOND
     1    1    2 1    
     2    1  127 1    
     3    1  128 1    
     4    1  129 1    
     5    2    3 2    
     6    2    4 am   BACKBONE|DICT|INTERRES
     7    4    5 1    
     8    4  130 1    
     9    5    6 1    
    10    5   65 1    
    11    5  131 1    
    12    6    7 1    
    13    6  132 1    
    14    6  133 1    
    15    7    8 1    
    16    8    9 1    
    17    8  134 1    
    18    8  135 1    
    19    9   10 ar   
    20    9   14 ar   
    21   10   11 ar   
    22   10  136 1    
    23   11   12 ar   
    24   11  126 1    
    25   12   13 ar   
    26   12  137 1    
    27   13   14 ar   
    28   13   15 1    
    29   14  138 1    
    30   15   16 1    
    31   15  139 1    
    32   15  140 1    
    33   16   17 1    
    34   17   18 1    
    35   17  141 1    
    36   17  142 1    
    37   18   19 1    
    38   18   67 1    
    39   18  143 1    
    40   19   20 am   BACKBONE|DICT|INTERRES
    41   19  144 1    
    42   20   21 2    
    43   20   22 1    
    44   22   23 1    
    45   22   24 1    
    46   22  145 1    
    47   23  146 1    
    48   23  147 1    
    49   23  148 1    
    50   24   25 am   BACKBONE|DICT|INTERRES
    51   24  149 1    
    52   25   26 2    
    53   25   27 1    
    54   27   28 1    
    55   27   29 1    
    56   27  150 1    
    57   28  151 1    
    58   28  152 1    
    59   28  153 1    
    60   29   30 am   BACKBONE|DICT|INTERRES
    61   29  154 1    
    62   30   31 2    
    63   30   32 1    
    64   32   33 1    
    65   32   34 1    
    66   32  155 1    
    67   33  156 1    
    68   33  157 1    
    69   33  158 1    
    70   34   35 am   BACKBONE|DICT|INTERRES
    71   34  159 1    
    72   35   36 2    
    73   35   37 1    
    74   37   38 1    
    75   37   39 1    
    76   37  160 1    
    77   38  161 1    
    78   38  162 1    
    79   38  163 1    
    80   39   40 am   BACKBONE|DICT|INTERRES
    81   39  164 1    
    82   40   41 2    
    83   40   42 1    
    84   42   43 1    
    85   42   44 1    
    86   42  165 1    
    87   43  166 1    
    88   43  167 1    
    89   43  168 1    
    90   44   45 am   BACKBONE|DICT|INTERRES
    91   44  169 1    
    92   45   46 2    
    93   45   47 1    
    94   47   48 1    
    95   47   49 1    
    96   47  170 1    
    97   48  171 1    
    98   48  172 1    
    99   48  173 1    
   100   49   50 am   BACKBONE|DICT|INTERRES
   101   49  174 1    
   102   50   51 2    
   103   50   52 1    
   104   52   53 1    
   105   52   54 1    
   106   52  175 1    
   107   53  176 1    
   108   53  177 1    
   109   53  178 1    
   110   54   55 am   BACKBONE|DICT|INTERRES
   111   54  179 1    
   112   55   56 2    
   113   55   57 1    
   114   57   58 1    
   115   57   59 1    
   116   57  180 1    
   117   58  181 1    
   118   58  182 1    
   119   58  183 1    
   120   59   60 am   BACKBONE|DICT|INTERRES
   121   59  184 1    
   122   60   61 2    
   123   60   62 1    
   124   62   63 1    
   125   62   64 1    
   126   62  185 1    
   127   63  186 1    
   128   63  187 1    
   129   63  188 1    
   130   64   65 am   BACKBONE|DICT|INTERRES
   131   64  189 1    
   132   65   66 2    
   133   67   68 2    
   134   67   69 am   BACKBONE|DICT|INTERRES
   135   69   70 1    
   136   69  190 1    
   137   70   71 1    
   138   70   72 1    
   139   70  191 1    
   140   71  192 1    
   141   71  193 1    
   142   71  194 1    
   143   72   73 2    
   144   72   74 am   BACKBONE|DICT|INTERRES
   145   74   75 1    
   146   74  195 1    
   147   75   76 1    
   148   75   77 1    
   149   75  196 1    
   150   76  197 1    
   151   76  198 1    
   152   76  199 1    
   153   77   78 2    
   154   77   79 am   BACKBONE|DICT|INTERRES
   155   79   80 1    
   156   79  200 1    
   157   80   81 1    
   158   80   82 1    
   159   80  201 1    
   160   81  202 1    
   161   81  203 1    
   162   81  204 1    
   163   82   83 2    
   164   82   84 am   BACKBONE|DICT|INTERRES
   165   84   85 1    
   166   84  205 1    
   167   85   86 1    
   168   85   87 1    
   169   85  206 1    
   170   86  207 1    
   171   86  208 1    
   172   86  209 1    
   173   87   88 2    
   174   87   89 am   BACKBONE|DICT|INTERRES
   175   89   90 1    
   176   89  210 1    
   177   90   91 1    
   178   90   92 1    
   179   90  211 1    
   180   91  212 1    
   181   91  213 1    
   182   91  214 1    
   183   92   93 2    
   184   92   94 am   BACKBONE|DICT|INTERRES
   185   94   95 1    
   186   94  215 1    
   187   95   96 1    
   188   95   97 1    
   189   95  216 1    
   190   96  217 1    
   191   96  218 1    
   192   96  219 1    
   193   97   98 2    
   194   97   99 am   BACKBONE|DICT|INTERRES
   195   99  100 1    
   196   99  220 1    
   197  100  101 1    
   198  100  102 1    
   199  100  221 1    
   200  101  222 1    
   201  101  223 1    
   202  101  224 1    
   203  102  103 2    
   204  102  104 am   BACKBONE|DICT|INTERRES
   205  104  105 1    
   206  104  225 1    
   207  105  106 1    
   208  105  107 1    
   209  105  226 1    
   210  106  227 1    
   211  106  228 1    
   212  106  229 1    
   213  107  108 2    
   214  107  109 am   BACKBONE|DICT|INTERRES
   215  109  110 1    
   216  109  230 1    
   217  110  111 1    
   218  110  112 1    
   219  110  231 1    
   220  111  232 1    
   221  111  233 1    
   222  111  234 1    
   223  112  113 2    
   224  112  114 am   BACKBONE|DICT|INTERRES
   225  114  115 1    
   226  114  235 1    
   227  115  116 1    
   228  115  117 1    
   229  115  236 1    
   230  116  237 1    
   231  116  238 1    
   232  116  239 1    
   233  117  118 2    
   234  117  119 am   BACKBONE|DICT|INTERRES
   235  119  120 1    
   236  119  240 1    
   237  120  121 1    
   238  120  124 1    
   239  120  241 1    
   240  121  122 am   BACKBONE|DICT|INTERRES
   241  121  123 2    
   242  122  242 1    
   243  122  243 1    
   244  124  125 1    
   245  124  244 1    
   246  124  245 1    
   247  125  126 1    
   248  126  246 1    
   249  126  247 1    
@<TRIPOS>SUBSTRUCTURE
     1 UNK         1 GROUP             0       ****    0 ROOT    
