@<TRIPOS>MOLECULE
3R540
247   249    1
SMALL
USER_CHARGES


@<TRIPOS>ATOM
      1 CA         -4.5932  -13.4735  -46.9235 C.3       0 UNK        -0.1800 
      2 C          -3.1254  -13.7039  -46.5932 C.2       0 UNK         0.5000 
      3 O          -2.8087  -14.6294  -45.8490 O.2       0 UNK        -0.5000 
      4 N          -2.2367  -12.8725  -47.1533 N.am      1 UNK        -0.5000 
      5 CA         -0.7819  -12.8878  -46.9520 C.3       1 UNK         0.1400 
      6 C6         -0.1269  -14.2272  -47.3938 C.3       23 UNK        -0.0398 
      7 S7          1.5738  -14.0114  -48.0247 S.3       23 UNK        -0.2404 
      8 C8          1.3671  -14.3343  -49.8054 C.3       23 UNK        -0.0205 
      9 C9          1.0751  -15.7987  -50.1053 C.ar      23 UNK        -0.0193 
     10 C10        -0.1187  -16.1680  -50.7328 C.ar      23 UNK        -0.1150 
     11 C11        -0.3724  -17.5084  -51.0369 C.ar      23 UNK        -0.0193 
     12 C12         0.5729  -18.4834  -50.7070 C.ar      23 UNK        -0.1150 
     13 C13         1.7646  -18.1289  -50.0711 C.ar      23 UNK        -0.0193 
     14 C14         2.0122  -16.7843  -49.7797 C.ar      23 UNK        -0.1150 
     15 C15         2.7959  -19.1888  -49.7169 C.3       23 UNK        -0.0205 
     16 S16         2.4113  -20.0154  -48.1407 S.3       23 UNK        -0.2404 
     17 C17         1.4538  -21.4783  -48.6843 C.3       23 UNK        -0.0398 
     18 CA          0.1498  -21.7250  -47.8846 C.3       11 UNK         0.1400 
     19 N           0.3828  -21.7273  -46.4364 N.am      11 UNK        -0.5000 
     20 C          -0.5126  -22.0330  -45.4902 C.2       10 UNK         0.5000 
     21 O          -1.7024  -22.2381  -45.7257 O.2       10 UNK        -0.5000 
     22 CA         -0.0076  -22.1423  -44.0438 C.3       10 UNK         0.1400 
     23 CB          1.5293  -22.1420  -43.9039 C.3       10 UNK        -0.1800 
     24 N          -0.5678  -21.0513  -43.2551 N.am      10 UNK        -0.5000 
     25 C          -0.9841  -21.1550  -41.9853 C.2       9 UNK         0.5000 
     26 O          -1.0198  -22.2232  -41.3717 O.2       9 UNK        -0.5000 
     27 CA         -1.4192  -19.8626  -41.2620 C.3       9 UNK         0.1400 
     28 CB         -0.7434  -19.7368  -39.8851 C.3       9 UNK        -0.1800 
     29 N          -1.0881  -18.6730  -42.0436 N.am      9 UNK        -0.5000 
     30 C          -1.9671  -17.7864  -42.5275 C.2       8 UNK         0.5000 
     31 O          -3.1733  -17.8240  -42.2852 O.2       8 UNK        -0.5000 
     32 CA         -1.4238  -16.6633  -43.4370 C.3       8 UNK         0.1400 
     33 CB         -1.5645  -15.2987  -42.7471 C.3       8 UNK        -0.1800 
     34 N          -0.0340  -16.8421  -43.8719 N.am      8 UNK        -0.5000 
     35 C           0.4046  -17.8312  -44.6633 C.2       7 UNK         0.5000 
     36 O          -0.3151  -18.7224  -45.1172 O.2       7 UNK        -0.5000 
     37 CA          1.9173  -17.8838  -44.9180 C.3       7 UNK         0.1400 
     38 CB          2.3091  -16.9208  -46.0447 C.3       7 UNK        -0.1800 
     39 N           2.7151  -17.5833  -43.7297 N.am      7 UNK        -0.5000 
     40 C           2.6912  -18.2530  -42.5687 C.2       6 UNK         0.5000 
     41 O           1.9085  -19.1738  -42.3384 O.2       6 UNK        -0.5000 
     42 CA          3.6646  -17.8074  -41.4578 C.3       6 UNK         0.1400 
     43 CB          4.5526  -18.9717  -40.9759 C.3       6 UNK        -0.1800 
     44 N           4.4625  -16.6191  -41.7890 N.am      6 UNK        -0.5000 
     45 C           5.4502  -16.4853  -42.6892 C.2       5 UNK         0.5000 
     46 O           5.9001  -17.4164  -43.3561 O.2       5 UNK        -0.5000 
     47 CA          5.9832  -15.0591  -42.9409 C.3       5 UNK         0.1400 
     48 CB          5.6585  -14.6221  -44.3794 C.3       5 UNK        -0.1800 
     49 N           5.4096  -14.0737  -42.0227 N.am      5 UNK        -0.5000 
     50 C           5.8746  -13.7997  -40.7965 C.2       4 UNK         0.5000 
     51 O           6.9015  -14.2893  -40.3263 O.2       4 UNK        -0.5000 
     52 CA          5.0219  -12.8416  -39.9407 C.3       4 UNK         0.1400 
     53 CB          5.5042  -11.3934  -40.1132 C.3       4 UNK        -0.1800 
     54 N           3.5900  -12.9100  -40.2536 N.am      4 UNK        -0.5000 
     55 C           2.8057  -13.9777  -40.0389 C.2       3 UNK         0.5000 
     56 O           3.2069  -15.0233  -39.5309 O.2       3 UNK        -0.5000 
     57 CA          1.3473  -13.8867  -40.5211 C.3       3 UNK         0.1400 
     58 CB          0.4253  -13.4192  -39.3860 C.3       3 UNK        -0.1800 
     59 N           1.2046  -12.9854  -41.6658 N.am      3 UNK        -0.5000 
     60 C           1.5190  -13.3102  -42.9252 C.2       2 UNK         0.5000 
     61 O           1.8638  -14.4416  -43.2799 O.2       2 UNK        -0.5000 
     62 CA          1.5086  -12.1552  -43.9365 C.3       2 UNK         0.1400 
     63 CB          2.9432  -11.6705  -44.1973 C.3       2 UNK        -0.1800 
     64 N           0.9155  -12.5716  -45.2023 N.am      2 UNK        -0.5000 
     65 C          -0.3749  -12.4337  -45.5264 C.2       1 UNK         0.5000 
     66 O          -1.2063  -11.9203  -44.7723 O.2       1 UNK        -0.5000 
     67 C          -1.0009  -20.8156  -48.3634 C.2       11 UNK         0.5000 
     68 O          -1.6958  -21.1898  -49.3102 O.2       11 UNK        -0.5000 
     69 N          -1.2099  -19.6690  -47.7042 N.am      12 UNK        -0.5000 
     70 CA         -2.2859  -18.7356  -48.0349 C.3       12 UNK         0.1400 
     71 CB         -1.8723  -17.3130  -47.6455 C.3       12 UNK        -0.1800 
     72 C          -3.6208  -19.1306  -47.3829 C.2       12 UNK         0.5000 
     73 O          -4.6721  -18.8401  -47.9521 O.2       12 UNK        -0.5000 
     74 N          -3.5668  -19.8238  -46.2360 N.am      13 UNK        -0.5000 
     75 CA         -4.7364  -20.4165  -45.5815 C.3       13 UNK         0.1400 
     76 CB         -4.3948  -20.7809  -44.1284 C.3       13 UNK        -0.1800 
     77 C          -5.2430  -21.6505  -46.3496 C.2       13 UNK         0.5000 
     78 O          -6.4515  -21.8232  -46.5085 O.2       13 UNK        -0.5000 
     79 N          -4.2992  -22.4638  -46.8413 N.am      14 UNK        -0.5000 
     80 CA         -4.5408  -23.6379  -47.6788 C.3       14 UNK         0.1400 
     81 CB         -3.2826  -24.5204  -47.6518 C.3       14 UNK        -0.1800 
     82 C          -4.9120  -23.2909  -49.1342 C.2       14 UNK         0.5000 
     83 O          -5.3547  -24.1795  -49.8601 O.2       14 UNK        -0.5000 
     84 N          -4.6911  -22.0330  -49.5453 N.am      15 UNK        -0.5000 
     85 CA         -4.8959  -21.4830  -50.8904 C.3       15 UNK         0.1400 
     86 CB         -6.3968  -21.4574  -51.2483 C.3       15 UNK        -0.1800 
     87 C          -4.0420  -22.2007  -51.9557 C.2       15 UNK         0.5000 
     88 O          -4.5353  -22.5158  -53.0422 O.2       15 UNK        -0.5000 
     89 N          -2.7755  -22.4742  -51.6038 N.am      16 UNK        -0.5000 
     90 CA         -1.8119  -23.3005  -52.3419 C.3       16 UNK         0.1400 
     91 CB         -1.3698  -22.6026  -53.6419 C.3       16 UNK        -0.1800 
     92 C          -2.3507  -24.7288  -52.5689 C.2       16 UNK         0.5000 
     93 O          -2.4016  -25.2117  -53.7024 O.2       16 UNK        -0.5000 
     94 N          -2.8244  -25.3378  -51.4700 N.am      17 UNK        -0.5000 
     95 CA         -3.4836  -26.6494  -51.3773 C.3       17 UNK         0.1400 
     96 CB         -2.4771  -27.7756  -51.6904 C.3       17 UNK        -0.1800 
     97 C          -4.7735  -26.7644  -52.2222 C.2       17 UNK         0.5000 
     98 O          -5.1812  -27.8739  -52.5686 O.2       17 UNK        -0.5000 
     99 N          -5.3645  -25.6106  -52.5694 N.am      18 UNK        -0.5000 
    100 CA        -6.4782  -25.3994  -53.4978 C.3       18 UNK         0.1400 
    101 CB        -7.7762  -26.0238  -52.9480 C.3       18 UNK        -0.1800 
    102 C         -6.1764  -25.8393  -54.9492 C.2       18 UNK         0.5000 
    103 O         -7.1044  -25.9380  -55.7530 O.2       18 UNK        -0.5000 
    104 N         -4.8975  -26.0855  -55.2732 N.am      19 UNK        -0.5000 
    105 CA        -4.4487  -26.5337  -56.5897 C.3       19 UNK         0.1400 
    106 CB        -3.0945  -27.2486  -56.4575 C.3       19 UNK        -0.1800 
    107 C         -4.3644  -25.3541  -57.5676 C.2       19 UNK         0.5000 
    108 O         -4.9207  -25.4270  -58.6640 O.2       19 UNK        -0.5000 
    109 N         -3.6981  -24.2763  -57.1325 N.am      20 UNK        -0.5000 
    110 CA        -3.6159  -23.0144  -57.8703 C.3       20 UNK         0.1400 
    111 CB        -2.2624  -22.3471  -57.5795 C.3       20 UNK        -0.1800 
    112 C         -4.7731  -22.0593  -57.5207 C.2       20 UNK         0.5000 
    113 O         -5.0138  -21.1175  -58.2765 O.2       20 UNK        -0.5000 
    114 N         -5.4476  -22.3057  -56.3836 N.am      21 UNK        -0.5000 
    115 CA        -6.5015  -21.4792  -55.7786 C.3       21 UNK         0.1400 
    116 CB        -7.7801  -21.4963  -56.6408 C.3       21 UNK        -0.1800 
    117 C         -5.9920  -20.0578  -55.4578 C.2       21 UNK         0.5000 
    118 O         -6.6246  -19.0612  -55.8116 O.2       21 UNK        -0.5000 
    119 N         -4.8127  -20.0169  -54.8295 N.am      22 UNK        -0.5000 
    120 CA        -4.0651  -18.8135  -54.4501 C.3       22 UNK         0.1400 
    121 C         -4.8255  -17.9588  -53.3963 C.2       22 UNK         0.5000 
    122 N         -4.9799  -16.6618  -53.6249 N.am      22 UNK        -0.7600 
    123 O         -5.2432  -18.4581  -52.3563 O.2       22 UNK        -0.5000 
    124 C124       -2.6533  -19.2389  -53.9765 C.3       23 UNK        -0.0398 
    125 S125       -1.5172  -17.8850  -53.5237 S.3       23 UNK        -0.2404 
    126 C126       -1.6705  -17.9145  -51.7099 C.3       23 UNK        -0.0205 
    127 H127       -5.0155  -14.3636  -47.3901 H         1 UNK         0.0600 
    128 H128       -4.7299  -12.6340  -47.6054 H         1 UNK         0.0600 
    129 H129       -5.1537  -13.2667  -46.0118 H         1 UNK         0.0600 
    130 H130       -2.5780  -12.1158  -47.7290 H         1 UNK         0.3000 
    131 H131       -0.4171  -12.1041  -47.6178 H         1 UNK         0.0600 
    132 H132       -0.7224  -14.6791  -48.1868 H         1 UNK         0.0800 
    133 H133       -0.1243  -14.9555  -46.5805 H         1 UNK         0.0800 
    134 H134        0.5815  -13.6873  -50.1990 H         1 UNK         0.0800 
    135 H135        2.2849  -14.0490  -50.3210 H         1 UNK         0.0800 
    136 H136       -0.8488  -15.4142  -50.9920 H         1 UNK         0.1150 
    137 H137        0.3768  -19.5190  -50.9445 H         1 UNK         0.1150 
    138 H138        2.9354  -16.5007  -49.2941 H         1 UNK         0.1150 
    139 H139        2.8825  -19.9191  -50.5226 H         1 UNK         0.0800 
    140 H140        3.7808  -18.7279  -49.6287 H         1 UNK         0.0800 
    141 H141        2.1072  -22.3440  -48.5690 H         1 UNK         0.0800 
    142 H142        1.2443  -21.4227  -49.7536 H         1 UNK         0.0800 
    143 H143       -0.1729  -22.7397  -48.1269 H         1 UNK         0.0600 
    144 H144        1.3317  -21.5335  -46.1518 H         1 UNK         0.3000 
    145 H145       -0.3810  -23.0987  -43.6725 H         1 UNK         0.0600 
    146 H146        1.8234  -22.2895  -42.8646 H         1 UNK         0.0600 
    147 H147        1.9809  -22.9495  -44.4816 H         1 UNK         0.0600 
    148 H148        1.9701  -21.2011  -44.2343 H         1 UNK         0.0600 
    149 H149       -0.6044  -20.1507  -43.7199 H         1 UNK         0.3000 
    150 H150       -2.4976  -19.9380  -41.1104 H         1 UNK         0.0600 
    151 H151       -1.0011  -20.5774  -39.2398 H         1 UNK         0.0600 
    152 H152       -1.0603  -18.8281  -39.3731 H         1 UNK         0.0600 
    153 H153        0.3434  -19.7099  -39.9740 H         1 UNK         0.0600 
    154 H154       -0.1081  -18.5794  -42.2873 H         1 UNK         0.3000 
    155 H155       -2.0513  -16.6567  -44.3283 H         1 UNK         0.0600 
    156 H156       -2.6063  -15.0930  -42.4989 H         1 UNK         0.0600 
    157 H157       -1.2274  -14.4919  -43.3967 H         1 UNK         0.0600 
    158 H158       -0.9938  -15.2553  -41.8211 H         1 UNK         0.0600 
    159 H159        0.6379  -16.1533  -43.5505 H         1 UNK         0.3000 
    160 H160        2.1618  -18.8994  -45.2339 H         1 UNK         0.0600 
    161 H161        3.3462  -17.0666  -46.3469 H         1 UNK         0.0600 
    162 H162        2.1913  -15.8806  -45.7398 H         1 UNK         0.0600 
    163 H163        1.6885  -17.0796  -46.9275 H         1 UNK         0.0600 
    164 H164        3.3606  -16.8127  -43.8092 H         1 UNK         0.3000 
    165 H165        3.0343  -17.5138  -40.6176 H         1 UNK         0.0600 
    166 H166        5.1579  -19.3857  -41.7824 H         1 UNK         0.0600 
    167 H167        5.2241  -18.6522  -40.1790 H         1 UNK         0.0600 
    168 H168        3.9441  -19.7856  -40.5799 H         1 UNK         0.0600 
    169 H169        4.1919  -15.7909  -41.2740 H         1 UNK         0.3000 
    170 H170        7.0685  -15.0815  -42.8223 H         1 UNK         0.0600 
    171 H171        6.1334  -15.2824  -45.1062 H         1 UNK         0.0600 
    172 H172        4.5853  -14.6420  -44.5741 H         1 UNK         0.0600 
    173 H173        6.0190  -13.6125  -44.5778 H         1 UNK         0.0600 
    174 H174        4.5568  -13.6254  -42.3217 H         1 UNK         0.3000 
    175 H175        5.1540  -13.1261  -38.8946 H         1 UNK         0.0600 
    176 H176        5.3766  -11.0451  -41.1390 H         1 UNK         0.0600 
    177 H177        4.9589  -10.7149  -39.4570 H         1 UNK         0.0600 
    178 H178        6.5626  -11.3023  -39.8649 H         1 UNK         0.0600 
    179 H179        3.1787  -12.0856  -40.6645 H         1 UNK         0.3000 
    180 H180        1.0427  -14.8927  -40.8160 H         1 UNK         0.0600 
    181 H181        0.6803  -12.4149  -39.0453 H         1 UNK         0.0600 
    182 H182        0.4965  -14.0862  -38.5257 H         1 UNK         0.0600 
    183 H183       -0.6173  -13.4117  -39.7045 H         1 UNK         0.0600 
    184 H184        0.9062  -12.0423  -41.4606 H         1 UNK         0.3000 
    185 H185        0.9413  -11.3197  -43.5204 H         1 UNK         0.0600 
    186 H186        3.4315  -11.3623  -43.2719 H         1 UNK         0.0600 
    187 H187        3.5567  -12.4485  -44.6518 H         1 UNK         0.0600 
    188 H188        2.9496  -10.8106  -44.8673 H         1 UNK         0.0600 
    189 H189        1.5335  -13.0312  -45.8583 H         1 UNK         0.3000 
    190 H190       -0.6369  -19.4373  -46.8983 H         1 UNK         0.3000 
    191 H191       -2.4395  -18.7444  -49.1137 H         1 UNK         0.0600 
    192 H192       -1.8730  -17.1714  -46.5669 H         1 UNK         0.0600 
    193 H193       -0.8734  -17.0811  -48.0139 H         1 UNK         0.0600 
    194 H194       -2.5598  -16.5804  -48.0692 H         1 UNK         0.0600 
    195 H195       -2.6605  -20.0654  -45.8596 H         1 UNK         0.3000 
    196 H196       -5.5383  -19.6753  -45.5648 H         1 UNK         0.0600 
    197 H197       -4.0739  -19.9043  -43.5696 H         1 UNK         0.0600 
    198 H198       -3.6018  -21.5257  -44.0660 H         1 UNK         0.0600 
    199 H199       -5.2664  -21.1895  -43.6158 H         1 UNK         0.0600 
    200 H200       -3.3306  -22.2842  -46.5844 H         1 UNK         0.3000 
    201 H201       -5.3706  -24.2050  -47.2524 H         1 UNK         0.0600 
    202 H202       -3.4364  -25.4435  -48.2114 H         1 UNK         0.0600 
    203 H203       -3.0214  -24.8018  -46.6314 H         1 UNK         0.0600 
    204 H204       -2.4233  -24.0076  -48.0858 H         1 UNK         0.0600 
    205 H205       -4.2925  -21.3945  -48.8720 H         1 UNK         0.3000 
    206 H206       -4.5381  -20.4542  -50.8511 H         1 UNK         0.0600 
    207 H207       -6.9721  -20.9304  -50.4873 H         1 UNK         0.0600 
    208 H208       -6.8102  -22.4614  -51.3486 H         1 UNK         0.0600 
    209 H209       -6.5629  -20.9404  -52.1940 H         1 UNK         0.0600 
    210 H210       -2.4497  -22.1174  -50.7065 H         1 UNK         0.3000 
    211 H211       -0.9312  -23.4007  -51.7060 H         1 UNK         0.0600 
    212 H212       -0.9058  -21.6395  -53.4307 H         1 UNK         0.0600 
    213 H213       -0.6358  -23.2028  -54.1808 H         1 UNK         0.0600 
    214 H214       -2.2117  -22.4351  -54.3111 H         1 UNK         0.0600 
    215 H215       -2.7883  -24.8193  -50.6050 H         1 UNK         0.3000 
    216 H216       -3.7966  -26.7622  -50.3386 H         1 UNK         0.0600 
    217 H217       -2.9066  -28.7562  -51.4825 H         1 UNK         0.0600 
    218 H218       -2.1746  -27.7671  -52.7381 H         1 UNK         0.0600 
    219 H219       -1.5784  -27.6822  -51.0808 H         1 UNK         0.0600 
    220 H220       -4.9594  -24.7616  -52.1966 H         1 UNK         0.3000 
    221 H221       -6.6274  -24.3197  -53.5392 H         1 UNK         0.0600 
    222 H222       -7.7334  -27.1132  -52.9456 H         1 UNK         0.0600 
    223 H223       -7.9697  -25.6924  -51.9276 H         1 UNK         0.0600 
    224 H224       -8.6373  -25.7328  -53.5506 H         1 UNK         0.0600 
    225 H225       -4.1788  -25.9490  -54.5708 H         1 UNK         0.3000 
    226 H226       -5.1701  -27.2527  -56.9843 H         1 UNK         0.0600 
    227 H227       -3.1675  -28.1057  -55.7877 H         1 UNK         0.0600 
    228 H228       -2.7542  -27.6192  -57.4251 H         1 UNK         0.0600 
    229 H229       -2.3193  -26.5879  -56.0683 H         1 UNK         0.0600 
    230 H230       -3.2510  -24.3133  -56.2268 H         1 UNK         0.3000 
    231 H231       -3.6645  -23.2131  -58.9431 H         1 UNK         0.0600 
    232 H232       -2.1327  -21.4523  -58.1895 H         1 UNK         0.0600 
    233 H233       -1.4331  -23.0171  -57.8069 H         1 UNK         0.0600 
    234 H234       -2.1746  -22.0428  -56.5380 H         1 UNK         0.0600 
    235 H235       -5.1530  -23.1009  -55.8369 H         1 UNK         0.3000 
    236 H236       -6.7462  -21.9404  -54.8204 H         1 UNK         0.0600 
    237 H237       -8.1143  -22.5171  -56.8268 H         1 UNK         0.0600 
    238 H238       -8.5950  -20.9742  -56.1381 H         1 UNK         0.0600 
    239 H239       -7.6283  -21.0119  -57.6057 H         1 UNK         0.0600 
    240 H240       -4.4232  -20.8994  -54.5246 H         1 UNK         0.3000 
    241 H241       -3.9461  -18.2139  -55.3546 H         1 UNK         0.0600 
    242 H242       -5.4636  -16.1004  -52.9420 H         1 UNK         0.3800 
    243 H243       -4.6360  -16.2287  -54.4678 H         1 UNK         0.3800 
    244 H244       -2.7313  -19.9398  -53.1474 H         1 UNK         0.0800 
    245 H245       -2.1650  -19.7950  -54.7781 H         1 UNK         0.0800 
    246 H246       -1.9454  -18.9125  -51.3675 H         1 UNK         0.0800 
    247 H247       -2.4821  -17.2526  -51.4039 H         1 UNK         0.0800 
@<TRIPOS>BOND
     1    1    2 1    
     2    1  127 1    
     3    1  128 1    
     4    1  129 1    
     5    2    3 2    
     6    2    4 am   BACKBONE|DICT|INTERRES
     7    4    5 1    
     8    4  130 1    
     9    5    6 1    
    10    5   65 1    
    11    5  131 1    
    12    6    7 1    
    13    6  132 1    
    14    6  133 1    
    15    7    8 1    
    16    8    9 1    
    17    8  134 1    
    18    8  135 1    
    19    9   10 ar   
    20    9   14 ar   
    21   10   11 ar   
    22   10  136 1    
    23   11   12 ar   
    24   11  126 1    
    25   12   13 ar   
    26   12  137 1    
    27   13   14 ar   
    28   13   15 1    
    29   14  138 1    
    30   15   16 1    
    31   15  139 1    
    32   15  140 1    
    33   16   17 1    
    34   17   18 1    
    35   17  141 1    
    36   17  142 1    
    37   18   19 1    
    38   18   67 1    
    39   18  143 1    
    40   19   20 am   BACKBONE|DICT|INTERRES
    41   19  144 1    
    42   20   21 2    
    43   20   22 1    
    44   22   23 1    
    45   22   24 1    
    46   22  145 1    
    47   23  146 1    
    48   23  147 1    
    49   23  148 1    
    50   24   25 am   BACKBONE|DICT|INTERRES
    51   24  149 1    
    52   25   26 2    
    53   25   27 1    
    54   27   28 1    
    55   27   29 1    
    56   27  150 1    
    57   28  151 1    
    58   28  152 1    
    59   28  153 1    
    60   29   30 am   BACKBONE|DICT|INTERRES
    61   29  154 1    
    62   30   31 2    
    63   30   32 1    
    64   32   33 1    
    65   32   34 1    
    66   32  155 1    
    67   33  156 1    
    68   33  157 1    
    69   33  158 1    
    70   34   35 am   BACKBONE|DICT|INTERRES
    71   34  159 1    
    72   35   36 2    
    73   35   37 1    
    74   37   38 1    
    75   37   39 1    
    76   37  160 1    
    77   38  161 1    
    78   38  162 1    
    79   38  163 1    
    80   39   40 am   BACKBONE|DICT|INTERRES
    81   39  164 1    
    82   40   41 2    
    83   40   42 1    
    84   42   43 1    
    85   42   44 1    
    86   42  165 1    
    87   43  166 1    
    88   43  167 1    
    89   43  168 1    
    90   44   45 am   BACKBONE|DICT|INTERRES
    91   44  169 1    
    92   45   46 2    
    93   45   47 1    
    94   47   48 1    
    95   47   49 1    
    96   47  170 1    
    97   48  171 1    
    98   48  172 1    
    99   48  173 1    
   100   49   50 am   BACKBONE|DICT|INTERRES
   101   49  174 1    
   102   50   51 2    
   103   50   52 1    
   104   52   53 1    
   105   52   54 1    
   106   52  175 1    
   107   53  176 1    
   108   53  177 1    
   109   53  178 1    
   110   54   55 am   BACKBONE|DICT|INTERRES
   111   54  179 1    
   112   55   56 2    
   113   55   57 1    
   114   57   58 1    
   115   57   59 1    
   116   57  180 1    
   117   58  181 1    
   118   58  182 1    
   119   58  183 1    
   120   59   60 am   BACKBONE|DICT|INTERRES
   121   59  184 1    
   122   60   61 2    
   123   60   62 1    
   124   62   63 1    
   125   62   64 1    
   126   62  185 1    
   127   63  186 1    
   128   63  187 1    
   129   63  188 1    
   130   64   65 am   BACKBONE|DICT|INTERRES
   131   64  189 1    
   132   65   66 2    
   133   67   68 2    
   134   67   69 am   BACKBONE|DICT|INTERRES
   135   69   70 1    
   136   69  190 1    
   137   70   71 1    
   138   70   72 1    
   139   70  191 1    
   140   71  192 1    
   141   71  193 1    
   142   71  194 1    
   143   72   73 2    
   144   72   74 am   BACKBONE|DICT|INTERRES
   145   74   75 1    
   146   74  195 1    
   147   75   76 1    
   148   75   77 1    
   149   75  196 1    
   150   76  197 1    
   151   76  198 1    
   152   76  199 1    
   153   77   78 2    
   154   77   79 am   BACKBONE|DICT|INTERRES
   155   79   80 1    
   156   79  200 1    
   157   80   81 1    
   158   80   82 1    
   159   80  201 1    
   160   81  202 1    
   161   81  203 1    
   162   81  204 1    
   163   82   83 2    
   164   82   84 am   BACKBONE|DICT|INTERRES
   165   84   85 1    
   166   84  205 1    
   167   85   86 1    
   168   85   87 1    
   169   85  206 1    
   170   86  207 1    
   171   86  208 1    
   172   86  209 1    
   173   87   88 2    
   174   87   89 am   BACKBONE|DICT|INTERRES
   175   89   90 1    
   176   89  210 1    
   177   90   91 1    
   178   90   92 1    
   179   90  211 1    
   180   91  212 1    
   181   91  213 1    
   182   91  214 1    
   183   92   93 2    
   184   92   94 am   BACKBONE|DICT|INTERRES
   185   94   95 1    
   186   94  215 1    
   187   95   96 1    
   188   95   97 1    
   189   95  216 1    
   190   96  217 1    
   191   96  218 1    
   192   96  219 1    
   193   97   98 2    
   194   97   99 am   BACKBONE|DICT|INTERRES
   195   99  100 1    
   196   99  220 1    
   197  100  101 1    
   198  100  102 1    
   199  100  221 1    
   200  101  222 1    
   201  101  223 1    
   202  101  224 1    
   203  102  103 2    
   204  102  104 am   BACKBONE|DICT|INTERRES
   205  104  105 1    
   206  104  225 1    
   207  105  106 1    
   208  105  107 1    
   209  105  226 1    
   210  106  227 1    
   211  106  228 1    
   212  106  229 1    
   213  107  108 2    
   214  107  109 am   BACKBONE|DICT|INTERRES
   215  109  110 1    
   216  109  230 1    
   217  110  111 1    
   218  110  112 1    
   219  110  231 1    
   220  111  232 1    
   221  111  233 1    
   222  111  234 1    
   223  112  113 2    
   224  112  114 am   BACKBONE|DICT|INTERRES
   225  114  115 1    
   226  114  235 1    
   227  115  116 1    
   228  115  117 1    
   229  115  236 1    
   230  116  237 1    
   231  116  238 1    
   232  116  239 1    
   233  117  118 2    
   234  117  119 am   BACKBONE|DICT|INTERRES
   235  119  120 1    
   236  119  240 1    
   237  120  121 1    
   238  120  124 1    
   239  120  241 1    
   240  121  122 am   BACKBONE|DICT|INTERRES
   241  121  123 2    
   242  122  242 1    
   243  122  243 1    
   244  124  125 1    
   245  124  244 1    
   246  124  245 1    
   247  125  126 1    
   248  126  246 1    
   249  126  247 1    
@<TRIPOS>SUBSTRUCTURE
     1 UNK         1 GROUP             0       ****    0 ROOT    
