@<TRIPOS>MOLECULE
3R540
247   249    1
SMALL
USER_CHARGES


@<TRIPOS>ATOM
      1 CA          4.8881   -9.4698  -48.1728 C.3       0 UNK        -0.1800 
      2 C           4.0529  -10.7062  -47.8731 C.2       0 UNK         0.5000 
      3 O           4.2659  -11.3583  -46.8500 O.2       0 UNK        -0.5000 
      4 N           3.0961  -11.0290  -48.7528 N.am      1 UNK        -0.5000 
      5 CA          2.1784  -12.1682  -48.6375 C.3       1 UNK         0.1400 
      6 C6          1.6920  -12.6384  -50.0342 C.3       23 UNK        -0.0398 
      7 S7          1.1124  -14.3709  -50.0249 S.3       23 UNK        -0.2404 
      8 C8          2.3140  -15.1536  -51.1433 C.3       23 UNK        -0.0205 
      9 C9          2.0393  -16.6416  -51.2862 C.ar      23 UNK        -0.0193 
     10 C10         1.0827  -17.0960  -52.2002 C.ar      23 UNK        -0.1150 
     11 C11         0.8199  -18.4628  -52.3278 C.ar      23 UNK        -0.0193 
     12 C12         1.5276  -19.3756  -51.5425 C.ar      23 UNK        -0.1150 
     13 C13         2.4835  -18.9341  -50.6244 C.ar      23 UNK        -0.0193 
     14 C14         2.7376  -17.5651  -50.5021 C.ar      23 UNK        -0.1150 
     15 C15         3.2338  -19.9390  -49.7629 C.3       23 UNK        -0.0205 
     16 S16         2.6782  -19.9112  -48.0294 S.3       23 UNK        -0.2404 
     17 C17         0.9332  -20.4292  -48.1626 C.3       23 UNK        -0.0398 
     18 CA          0.7016  -21.9030  -47.7614 C.3       11 UNK         0.1400 
     19 N           1.0797  -22.1496  -46.3706 N.am      11 UNK        -0.5000 
     20 C           1.1946  -23.3535  -45.7984 C.2       10 UNK         0.5000 
     21 O           1.0666  -24.4144  -46.4129 O.2       10 UNK        -0.5000 
     22 CA          1.5003  -23.3570  -44.2859 C.3       10 UNK         0.1400 
     23 CB          1.9291  -24.7384  -43.7497 C.3       10 UNK        -0.1800 
     24 N           2.4605  -22.3195  -43.8994 N.am      10 UNK        -0.5000 
     25 C           3.7370  -22.1895  -44.2913 C.2       9 UNK         0.5000 
     26 O           4.3163  -22.9946  -45.0217 O.2       9 UNK        -0.5000 
     27 CA          4.5063  -20.9483  -43.7895 C.3       9 UNK         0.1400 
     28 CB          4.7848  -19.9792  -44.9481 C.3       9 UNK        -0.1800 
     29 N           3.8120  -20.2156  -42.7289 N.am      9 UNK        -0.5000 
     30 C           3.7259  -20.6063  -41.4510 C.2       8 UNK         0.5000 
     31 O           4.2859  -21.6068  -41.0018 O.2       8 UNK        -0.5000 
     32 CA          2.8308  -19.7552  -40.5299 C.3       8 UNK         0.1400 
     33 CB          3.6113  -18.5565  -39.9701 C.3       8 UNK        -0.1800 
     34 N           1.6110  -19.2823  -41.1918 N.am      8 UNK        -0.5000 
     35 C           0.6302  -20.0799  -41.6408 C.2       7 UNK         0.5000 
     36 O           0.6413  -21.3054  -41.5287 O.2       7 UNK        -0.5000 
     37 CA         -0.5406  -19.4051  -42.3768 C.3       7 UNK         0.1400 
     38 CB         -1.5262  -18.7817  -41.3773 C.3       7 UNK        -0.1800 
     39 N          -0.0939  -18.3943  -43.3355 N.am      7 UNK        -0.5000 
     40 C           0.6253  -18.6615  -44.4354 C.2       6 UNK         0.5000 
     41 O           0.9406  -19.7995  -44.7808 O.2       6 UNK        -0.5000 
     42 CA          1.1102  -17.4592  -45.2662 C.3       6 UNK         0.1400 
     43 CB          0.0022  -16.9354  -46.1926 C.3       6 UNK        -0.1800 
     44 N           1.5990  -16.3626  -44.4333 N.am      6 UNK        -0.5000 
     45 C           2.6399  -16.4398  -43.5935 C.2       5 UNK         0.5000 
     46 O           3.3414  -17.4411  -43.4572 O.2       5 UNK        -0.5000 
     47 CA          2.9017  -15.2064  -42.7147 C.3       5 UNK         0.1400 
     48 CB          3.6349  -14.1100  -43.5032 C.3       5 UNK        -0.1800 
     49 N           1.6617  -14.6712  -42.1517 N.am      5 UNK        -0.5000 
     50 C           0.9201  -15.2984  -41.2272 C.2       4 UNK         0.5000 
     51 O           1.2208  -16.3828  -40.7288 O.2       4 UNK        -0.5000 
     52 CA         -0.3976  -14.6156  -40.8189 C.3       4 UNK         0.1400 
     53 CB         -0.1426  -13.5349  -39.7577 C.3       4 UNK        -0.1800 
     54 N          -1.0993  -14.0225  -41.9580 N.am      4 UNK        -0.5000 
     55 C          -1.6524  -14.7281  -42.9545 C.2       3 UNK         0.5000 
     56 O          -1.6511  -15.9569  -43.0065 O.2       3 UNK        -0.5000 
     57 CA         -2.2644  -13.9210  -44.1139 C.3       3 UNK         0.1400 
     58 CB         -3.7037  -13.5011  -43.7810 C.3       3 UNK        -0.1800 
     59 N          -1.4797  -12.7366  -44.4784 N.am      3 UNK        -0.5000 
     60 C          -0.2144  -12.7751  -44.9152 C.2       2 UNK         0.5000 
     61 O           0.4491  -13.8111  -44.9951 O.2       2 UNK        -0.5000 
     62 CA          0.4360  -11.4310  -45.2831 C.3       2 UNK         0.1400 
     63 CB          1.1871  -10.8503  -44.0753 C.3       2 UNK        -0.1800 
     64 N           1.3752  -11.6017  -46.3894 N.am      2 UNK        -0.5000 
     65 C           1.0241  -11.8470  -47.6574 C.2       1 UNK         0.5000 
     66 O          -0.1419  -11.7942  -48.0545 O.2       1 UNK        -0.5000 
     67 C          -0.7819  -22.2588  -47.9668 C.2       11 UNK         0.5000 
     68 O          -1.6066  -21.8870  -47.1284 O.2       11 UNK        -0.5000 
     69 N          -1.1078  -22.9170  -49.0896 N.am      12 UNK        -0.5000 
     70 CA         -2.4561  -23.3876  -49.4400 C.3       12 UNK         0.1400 
     71 CB         -2.4217  -24.0529  -50.8240 C.3       12 UNK        -0.1800 
     72 C          -3.5381  -22.2928  -49.4061 C.2       12 UNK         0.5000 
     73 O          -4.6479  -22.5522  -48.9458 O.2       12 UNK        -0.5000 
     74 N          -3.1626  -21.0739  -49.8160 N.am      13 UNK        -0.5000 
     75 CA         -3.9946  -19.8691  -49.7955 C.3       13 UNK         0.1400 
     76 CB         -3.1997  -18.7229  -50.4417 C.3       13 UNK        -0.1800 
     77 C          -4.4904  -19.4482  -48.3947 C.2       13 UNK         0.5000 
     78 O          -5.4813  -18.7233  -48.3087 O.2       13 UNK        -0.5000 
     79 N          -3.8073  -19.8976  -47.3335 N.am      14 UNK        -0.5000 
     80 CA         -4.1742  -19.6482  -45.9411 C.3       14 UNK         0.1400 
     81 CB         -2.9913  -18.9832  -45.2232 C.3       14 UNK        -0.1800 
     82 C          -4.5741  -20.9504  -45.2306 C.2       14 UNK         0.5000 
     83 O          -5.5750  -20.9643  -44.5146 O.2       14 UNK        -0.5000 
     84 N          -3.7923  -22.0194  -45.4352 N.am      15 UNK        -0.5000 
     85 CA         -3.9434  -23.3061  -44.7559 C.3       15 UNK         0.1400 
     86 CB         -2.6584  -24.1277  -44.9446 C.3       15 UNK        -0.1800 
     87 C          -5.1713  -24.1088  -45.2193 C.2       15 UNK         0.5000 
     88 O          -5.8035  -24.7675  -44.3926 O.2       15 UNK        -0.5000 
     89 N          -5.4852  -24.0419  -46.5193 N.am      16 UNK        -0.5000 
     90 CA         -6.6175  -24.7344  -47.1408 C.3       16 UNK         0.1400 
     91 CB         -6.0824  -25.6322  -48.2703 C.3       16 UNK        -0.1800 
     92 C          -7.6681  -23.7501  -47.6867 C.2       16 UNK         0.5000 
     93 O          -8.6995  -24.1962  -48.1910 O.2       16 UNK        -0.5000 
     94 N          -7.3785  -22.4416  -47.6193 N.am      17 UNK        -0.5000 
     95 CA         -8.1017  -21.2915  -48.1793 C.3       17 UNK         0.1400 
     96 CB         -9.5313  -21.1853  -47.6162 C.3       17 UNK        -0.1800 
     97 C          -8.0969  -21.2421  -49.7215 C.2       17 UNK         0.5000 
     98 O          -7.8647  -20.1776  -50.2949 O.2       17 UNK        -0.5000 
     99 N          -8.3393  -22.3868  -50.3685 N.am      18 UNK        -0.5000 
    100 CA        -8.2497  -22.5879  -51.8086 C.3       18 UNK         0.1400 
    101 CB        -8.9622  -23.9002  -52.1751 C.3       18 UNK        -0.1800 
    102 C         -6.7780  -22.6000  -52.2575 C.2       18 UNK         0.5000 
    103 O         -6.0785  -23.5917  -52.0438 O.2       18 UNK        -0.5000 
    104 N         -6.3372  -21.4933  -52.8678 N.am      19 UNK        -0.5000 
    105 CA        -4.9893  -21.3283  -53.4162 C.3       19 UNK         0.1400 
    106 CB        -4.7501  -19.8351  -53.6863 C.3       19 UNK        -0.1800 
    107 C         -4.7547  -22.1494  -54.7007 C.2       19 UNK         0.5000 
    108 O         -3.6059  -22.4648  -55.0134 O.2       19 UNK        -0.5000 
    109 N         -5.8410  -22.4713  -55.4219 N.am      20 UNK        -0.5000 
    110 CA        -5.8760  -23.2098  -56.6879 C.3       20 UNK         0.1400 
    111 CB        -5.5105  -24.6934  -56.4543 C.3       20 UNK        -0.1800 
    112 C         -5.0272  -22.5036  -57.7665 C.2       20 UNK         0.5000 
    113 O         -5.2737  -21.3282  -58.0457 O.2       20 UNK        -0.5000 
    114 N         -4.0219  -23.1967  -58.3189 N.am      21 UNK        -0.5000 
    115 CA        -3.0677  -22.6730  -59.3025 C.3       21 UNK         0.1400 
    116 CB        -2.1754  -23.8251  -59.7897 C.3       21 UNK        -0.1800 
    117 C         -2.2039  -21.5022  -58.7850 C.2       21 UNK         0.5000 
    118 O         -1.6945  -20.7259  -59.5942 O.2       21 UNK        -0.5000 
    119 N         -2.0709  -21.3841  -57.4577 N.am      22 UNK        -0.5000 
    120 CA        -1.4424  -20.2486  -56.7687 C.3       22 UNK         0.1400 
    121 C         -2.3589  -18.9883  -56.6704 C.2       22 UNK         0.5000 
    122 N         -3.6361  -19.0510  -57.0335 N.am      22 UNK        -0.7600 
    123 O         -1.9018  -17.9203  -56.2754 O.2       22 UNK        -0.5000 
    124 C124       -0.9045  -20.7010  -55.3864 C.3       23 UNK        -0.0398 
    125 S125        0.5043  -19.7231  -54.7661 S.3       23 UNK        -0.2404 
    126 C126       -0.2425  -18.9672  -53.2889 C.3       23 UNK        -0.0205 
    127 H127        4.5898   -8.9954  -49.1080 H         1 UNK         0.0600 
    128 H128        5.9417   -9.7387  -48.2487 H         1 UNK         0.0600 
    129 H129        4.7782   -8.7400  -47.3707 H         1 UNK         0.0600 
    130 H130        2.9481  -10.4310  -49.5536 H         1 UNK         0.3000 
    131 H131        2.7402  -12.9956  -48.1973 H         1 UNK         0.0600 
    132 H132        0.9016  -11.9950  -50.4246 H         1 UNK         0.0800 
    133 H133        2.5092  -12.5575  -50.7523 H         1 UNK         0.0800 
    134 H134        3.3242  -14.9902  -50.7643 H         1 UNK         0.0800 
    135 H135        2.2674  -14.6746  -52.1226 H         1 UNK         0.0800 
    136 H136        0.5360  -16.3839  -52.8026 H         1 UNK         0.1150 
    137 H137        1.3254  -20.4328  -51.6436 H         1 UNK         0.1150 
    138 H138        3.4719  -17.2202  -49.7875 H         1 UNK         0.1150 
    139 H139        3.1253  -20.9501  -50.1584 H         1 UNK         0.0800 
    140 H140        4.3004  -19.7124  -49.7942 H         1 UNK         0.0800 
    141 H141        0.5705  -20.2467  -49.1730 H         1 UNK         0.0800 
    142 H142        0.3476  -19.7724  -47.5195 H         1 UNK         0.0800 
    143 H143        1.3125  -22.5430  -48.4014 H         1 UNK         0.0600 
    144 H144        1.1572  -21.3225  -45.7817 H         1 UNK         0.3000 
    145 H145        0.5644  -23.0929  -43.7919 H         1 UNK         0.0600 
    146 H146        2.1205  -24.7014  -42.6772 H         1 UNK         0.0600 
    147 H147        1.1463  -25.4798  -43.9136 H         1 UNK         0.0600 
    148 H148        2.8319  -25.1031  -44.2402 H         1 UNK         0.0600 
    149 H149        2.0816  -21.5873  -43.3130 H         1 UNK         0.3000 
    150 H150        5.4651  -21.2974  -43.4010 H         1 UNK         0.0600 
    151 H151        5.2846  -20.4819  -45.7771 H         1 UNK         0.0600 
    152 H152        5.4272  -19.1584  -44.6292 H         1 UNK         0.0600 
    153 H153        3.8607  -19.5473  -45.3324 H         1 UNK         0.0600 
    154 H154        3.3793  -19.3364  -42.9995 H         1 UNK         0.3000 
    155 H155        2.5298  -20.3847  -39.6900 H         1 UNK         0.0600 
    156 H156        4.5183  -18.8834  -39.4603 H         1 UNK         0.0600 
    157 H157        3.0141  -18.0011  -39.2468 H         1 UNK         0.0600 
    158 H158        3.9081  -17.8652  -40.7593 H         1 UNK         0.0600 
    159 H159        1.5087  -18.2763  -41.2864 H         1 UNK         0.3000 
    160 H160       -1.0715  -20.1803  -42.9336 H         1 UNK         0.0600 
    161 H161       -1.0689  -17.9682  -40.8140 H         1 UNK         0.0600 
    162 H162       -1.8761  -19.5239  -40.6588 H         1 UNK         0.0600 
    163 H163       -2.4044  -18.3829  -41.8844 H         1 UNK         0.0600 
    164 H164       -0.3767  -17.4365  -43.1510 H         1 UNK         0.3000 
    165 H165        1.9406  -17.8010  -45.8869 H         1 UNK         0.0600 
    166 H166        0.3852  -16.1684  -46.8664 H         1 UNK         0.0600 
    167 H167       -0.4140  -17.7309  -46.8096 H         1 UNK         0.0600 
    168 H168       -0.8190  -16.4980  -45.6254 H         1 UNK         0.0600 
    169 H169        1.1020  -15.4779  -44.5117 H         1 UNK         0.3000 
    170 H170        3.5444  -15.5149  -41.8874 H         1 UNK         0.0600 
    171 H171        3.8545  -13.2491  -42.8718 H         1 UNK         0.0600 
    172 H172        4.5856  -14.4806  -43.8884 H         1 UNK         0.0600 
    173 H173        3.0530  -13.7614  -44.3566 H         1 UNK         0.0600 
    174 H174        1.3128  -13.8141  -42.5526 H         1 UNK         0.3000 
    175 H175       -1.0451  -15.3779  -40.3803 H         1 UNK         0.0600 
    176 H176        0.3670  -13.9544  -38.8892 H         1 UNK         0.0600 
    177 H177        0.4791  -12.7265  -40.1446 H         1 UNK         0.0600 
    178 H178       -1.0781  -13.1002  -39.4053 H         1 UNK         0.0600 
    179 H179       -1.1436  -13.0151  -41.9972 H         1 UNK         0.3000 
    180 H180       -2.2967  -14.5762  -44.9868 H         1 UNK         0.0600 
    181 H181       -4.3131  -14.3684  -43.5230 H         1 UNK         0.0600 
    182 H182       -3.7385  -12.8121  -42.9362 H         1 UNK         0.0600 
    183 H183       -4.1794  -13.0138  -44.6324 H         1 UNK         0.0600 
    184 H184       -1.9561  -11.8476  -44.4277 H         1 UNK         0.3000 
    185 H185       -0.3418  -10.7274  -45.5872 H         1 UNK         0.0600 
    186 H186        0.5131  -10.6931  -43.2323 H         1 UNK         0.0600 
    187 H187        1.9858  -11.5121  -43.7391 H         1 UNK         0.0600 
    188 H188        1.6336   -9.8856  -44.3173 H         1 UNK         0.0600 
    189 H189        2.3613  -11.6455  -46.1567 H         1 UNK         0.3000 
    190 H190       -0.3712  -23.1811  -49.7280 H         1 UNK         0.3000 
    191 H191       -2.7375  -24.1438  -48.7044 H         1 UNK         0.0600 
    192 H192       -1.7421  -24.9050  -50.8367 H         1 UNK         0.0600 
    193 H193       -2.1033  -23.3558  -51.6002 H         1 UNK         0.0600 
    194 H194       -3.4096  -24.4232  -51.1035 H         1 UNK         0.0600 
    195 H195       -2.2176  -20.9599  -50.1491 H         1 UNK         0.3000 
    196 H196       -4.8787  -20.0690  -50.4044 H         1 UNK         0.0600 
    197 H197       -3.8014  -17.8151  -50.5016 H         1 UNK         0.0600 
    198 H198       -2.8924  -18.9734  -51.4564 H         1 UNK         0.0600 
    199 H199       -2.3016  -18.4842  -49.8701 H         1 UNK         0.0600 
    200 H200       -3.0155  -20.5120  -47.4867 H         1 UNK         0.3000 
    201 H201       -5.0267  -18.9689  -45.8779 H         1 UNK         0.0600 
    202 H202       -3.2136  -18.8162  -44.1690 H         1 UNK         0.0600 
    203 H203       -2.0918  -19.5970  -45.2803 H         1 UNK         0.0600 
    204 H204       -2.7649  -18.0124  -45.6626 H         1 UNK         0.0600 
    205 H205       -2.9754  -21.9298  -46.0373 H         1 UNK         0.3000 
    206 H206       -4.0620  -23.1098  -43.6881 H         1 UNK         0.0600 
    207 H207       -1.7913  -23.5941  -44.5561 H         1 UNK         0.0600 
    208 H208       -2.7197  -25.0789  -44.4145 H         1 UNK         0.0600 
    209 H209       -2.4708  -24.3485  -45.9961 H         1 UNK         0.0600 
    210 H210       -4.9219  -23.4743  -47.1431 H         1 UNK         0.3000 
    211 H211       -7.1292  -25.3711  -46.4167 H         1 UNK         0.0600 
    212 H212       -6.8859  -26.2166  -48.7203 H         1 UNK         0.0600 
    213 H213       -5.3405  -26.3373  -47.8954 H         1 UNK         0.0600 
    214 H214       -5.6188  -25.0493  -49.0670 H         1 UNK         0.0600 
    215 H215       -6.4782  -22.2130  -47.2249 H         1 UNK         0.3000 
    216 H216       -7.5555  -20.4118  -47.8373 H         1 UNK         0.0600 
    217 H217      -10.0086  -20.2622  -47.9470 H         1 UNK         0.0600 
    218 H218       -9.5253  -21.1759  -46.5263 H         1 UNK         0.0600 
    219 H219      -10.1643  -22.0109  -47.9420 H         1 UNK         0.0600 
    220 H220       -8.5124  -23.2108  -49.8004 H         1 UNK         0.3000 
    221 H221       -8.7713  -21.7705  -52.3110 H         1 UNK         0.0600 
    222 H222       -8.5243  -24.7562  -51.6597 H         1 UNK         0.0600 
    223 H223      -10.0198  -23.8596  -51.9137 H         1 UNK         0.0600 
    224 H224       -8.8984  -24.0931  -53.2468 H         1 UNK         0.0600 
    225 H225       -6.9623  -20.7046  -52.9582 H         1 UNK         0.3000 
    226 H226       -4.2688  -21.6636  -52.6669 H         1 UNK         0.0600 
    227 H227       -3.7143  -19.6482  -53.9683 H         1 UNK         0.0600 
    228 H228       -5.3813  -19.4664  -54.4959 H         1 UNK         0.0600 
    229 H229       -4.9586  -19.2314  -52.8035 H         1 UNK         0.0600 
    230 H230       -6.7320  -22.1284  -55.0946 H         1 UNK         0.3000 
    231 H231       -6.9072  -23.1748  -57.0418 H         1 UNK         0.0600 
    232 H232       -6.1715  -25.1412  -55.7120 H         1 UNK         0.0600 
    233 H233       -4.4878  -24.8175  -56.0963 H         1 UNK         0.0600 
    234 H234       -5.6197  -25.2766  -57.3695 H         1 UNK         0.0600 
    235 H235       -3.8738  -24.1476  -58.0135 H         1 UNK         0.3000 
    236 H236       -3.6407  -22.3000  -60.1538 H         1 UNK         0.0600 
    237 H237       -2.7686  -24.6221  -60.2384 H         1 UNK         0.0600 
    238 H238       -1.4708  -23.4808  -60.5479 H         1 UNK         0.0600 
    239 H239       -1.5944  -24.2558  -58.9732 H         1 UNK         0.0600 
    240 H240       -2.5524  -22.0450  -56.8590 H         1 UNK         0.3000 
    241 H241       -0.5837  -19.9467  -57.3713 H         1 UNK         0.0600 
    242 H242       -4.1991  -18.2179  -56.9755 H         1 UNK         0.3800 
    243 H243       -4.0499  -19.9054  -57.3903 H         1 UNK         0.3800 
    244 H244       -1.7056  -20.7271  -54.6487 H         1 UNK         0.0800 
    245 H245       -0.5436  -21.7287  -55.4507 H         1 UNK         0.0800 
    246 H246       -0.8593  -19.7005  -52.7677 H         1 UNK         0.0800 
    247 H247       -0.9102  -18.1595  -53.5932 H         1 UNK         0.0800 
@<TRIPOS>BOND
     1    1    2 1    
     2    1  127 1    
     3    1  128 1    
     4    1  129 1    
     5    2    3 2    
     6    2    4 am   BACKBONE|DICT|INTERRES
     7    4    5 1    
     8    4  130 1    
     9    5    6 1    
    10    5   65 1    
    11    5  131 1    
    12    6    7 1    
    13    6  132 1    
    14    6  133 1    
    15    7    8 1    
    16    8    9 1    
    17    8  134 1    
    18    8  135 1    
    19    9   10 ar   
    20    9   14 ar   
    21   10   11 ar   
    22   10  136 1    
    23   11   12 ar   
    24   11  126 1    
    25   12   13 ar   
    26   12  137 1    
    27   13   14 ar   
    28   13   15 1    
    29   14  138 1    
    30   15   16 1    
    31   15  139 1    
    32   15  140 1    
    33   16   17 1    
    34   17   18 1    
    35   17  141 1    
    36   17  142 1    
    37   18   19 1    
    38   18   67 1    
    39   18  143 1    
    40   19   20 am   BACKBONE|DICT|INTERRES
    41   19  144 1    
    42   20   21 2    
    43   20   22 1    
    44   22   23 1    
    45   22   24 1    
    46   22  145 1    
    47   23  146 1    
    48   23  147 1    
    49   23  148 1    
    50   24   25 am   BACKBONE|DICT|INTERRES
    51   24  149 1    
    52   25   26 2    
    53   25   27 1    
    54   27   28 1    
    55   27   29 1    
    56   27  150 1    
    57   28  151 1    
    58   28  152 1    
    59   28  153 1    
    60   29   30 am   BACKBONE|DICT|INTERRES
    61   29  154 1    
    62   30   31 2    
    63   30   32 1    
    64   32   33 1    
    65   32   34 1    
    66   32  155 1    
    67   33  156 1    
    68   33  157 1    
    69   33  158 1    
    70   34   35 am   BACKBONE|DICT|INTERRES
    71   34  159 1    
    72   35   36 2    
    73   35   37 1    
    74   37   38 1    
    75   37   39 1    
    76   37  160 1    
    77   38  161 1    
    78   38  162 1    
    79   38  163 1    
    80   39   40 am   BACKBONE|DICT|INTERRES
    81   39  164 1    
    82   40   41 2    
    83   40   42 1    
    84   42   43 1    
    85   42   44 1    
    86   42  165 1    
    87   43  166 1    
    88   43  167 1    
    89   43  168 1    
    90   44   45 am   BACKBONE|DICT|INTERRES
    91   44  169 1    
    92   45   46 2    
    93   45   47 1    
    94   47   48 1    
    95   47   49 1    
    96   47  170 1    
    97   48  171 1    
    98   48  172 1    
    99   48  173 1    
   100   49   50 am   BACKBONE|DICT|INTERRES
   101   49  174 1    
   102   50   51 2    
   103   50   52 1    
   104   52   53 1    
   105   52   54 1    
   106   52  175 1    
   107   53  176 1    
   108   53  177 1    
   109   53  178 1    
   110   54   55 am   BACKBONE|DICT|INTERRES
   111   54  179 1    
   112   55   56 2    
   113   55   57 1    
   114   57   58 1    
   115   57   59 1    
   116   57  180 1    
   117   58  181 1    
   118   58  182 1    
   119   58  183 1    
   120   59   60 am   BACKBONE|DICT|INTERRES
   121   59  184 1    
   122   60   61 2    
   123   60   62 1    
   124   62   63 1    
   125   62   64 1    
   126   62  185 1    
   127   63  186 1    
   128   63  187 1    
   129   63  188 1    
   130   64   65 am   BACKBONE|DICT|INTERRES
   131   64  189 1    
   132   65   66 2    
   133   67   68 2    
   134   67   69 am   BACKBONE|DICT|INTERRES
   135   69   70 1    
   136   69  190 1    
   137   70   71 1    
   138   70   72 1    
   139   70  191 1    
   140   71  192 1    
   141   71  193 1    
   142   71  194 1    
   143   72   73 2    
   144   72   74 am   BACKBONE|DICT|INTERRES
   145   74   75 1    
   146   74  195 1    
   147   75   76 1    
   148   75   77 1    
   149   75  196 1    
   150   76  197 1    
   151   76  198 1    
   152   76  199 1    
   153   77   78 2    
   154   77   79 am   BACKBONE|DICT|INTERRES
   155   79   80 1    
   156   79  200 1    
   157   80   81 1    
   158   80   82 1    
   159   80  201 1    
   160   81  202 1    
   161   81  203 1    
   162   81  204 1    
   163   82   83 2    
   164   82   84 am   BACKBONE|DICT|INTERRES
   165   84   85 1    
   166   84  205 1    
   167   85   86 1    
   168   85   87 1    
   169   85  206 1    
   170   86  207 1    
   171   86  208 1    
   172   86  209 1    
   173   87   88 2    
   174   87   89 am   BACKBONE|DICT|INTERRES
   175   89   90 1    
   176   89  210 1    
   177   90   91 1    
   178   90   92 1    
   179   90  211 1    
   180   91  212 1    
   181   91  213 1    
   182   91  214 1    
   183   92   93 2    
   184   92   94 am   BACKBONE|DICT|INTERRES
   185   94   95 1    
   186   94  215 1    
   187   95   96 1    
   188   95   97 1    
   189   95  216 1    
   190   96  217 1    
   191   96  218 1    
   192   96  219 1    
   193   97   98 2    
   194   97   99 am   BACKBONE|DICT|INTERRES
   195   99  100 1    
   196   99  220 1    
   197  100  101 1    
   198  100  102 1    
   199  100  221 1    
   200  101  222 1    
   201  101  223 1    
   202  101  224 1    
   203  102  103 2    
   204  102  104 am   BACKBONE|DICT|INTERRES
   205  104  105 1    
   206  104  225 1    
   207  105  106 1    
   208  105  107 1    
   209  105  226 1    
   210  106  227 1    
   211  106  228 1    
   212  106  229 1    
   213  107  108 2    
   214  107  109 am   BACKBONE|DICT|INTERRES
   215  109  110 1    
   216  109  230 1    
   217  110  111 1    
   218  110  112 1    
   219  110  231 1    
   220  111  232 1    
   221  111  233 1    
   222  111  234 1    
   223  112  113 2    
   224  112  114 am   BACKBONE|DICT|INTERRES
   225  114  115 1    
   226  114  235 1    
   227  115  116 1    
   228  115  117 1    
   229  115  236 1    
   230  116  237 1    
   231  116  238 1    
   232  116  239 1    
   233  117  118 2    
   234  117  119 am   BACKBONE|DICT|INTERRES
   235  119  120 1    
   236  119  240 1    
   237  120  121 1    
   238  120  124 1    
   239  120  241 1    
   240  121  122 am   BACKBONE|DICT|INTERRES
   241  121  123 2    
   242  122  242 1    
   243  122  243 1    
   244  124  125 1    
   245  124  244 1    
   246  124  245 1    
   247  125  126 1    
   248  126  246 1    
   249  126  247 1    
@<TRIPOS>SUBSTRUCTURE
     1 UNK         1 GROUP             0       ****    0 ROOT    
