@<TRIPOS>MOLECULE
3R540
247   249    1
SMALL
USER_CHARGES


@<TRIPOS>ATOM
      1 CA          6.9745  -13.8417  -45.3787 C.3       0 UNK        -0.1800 
      2 C           5.6198  -13.1797  -45.1788 C.2       0 UNK         0.5000 
      3 O           5.2234  -12.9334  -44.0410 O.2       0 UNK        -0.5000 
      4 N           4.9182  -12.8739  -46.2782 N.am      1 UNK        -0.5000 
      5 CA          3.5611  -12.3053  -46.3070 C.3       1 UNK         0.1400 
      6 C6          3.0214  -12.1457  -47.7516 C.3       23 UNK        -0.0398 
      7 S7          3.2628  -13.6111  -48.8128 S.3       23 UNK        -0.2404 
      8 C8          1.6977  -14.5008  -48.5766 C.3       23 UNK        -0.0205 
      9 C9          1.5010  -15.5409  -49.6670 C.ar      23 UNK        -0.0193 
     10 C10         0.6523  -15.2762  -50.7456 C.ar      23 UNK        -0.1150 
     11 C11         0.4917  -16.2122  -51.7716 C.ar      23 UNK        -0.0193 
     12 C12         1.1804  -17.4266  -51.7062 C.ar      23 UNK        -0.1150 
     13 C13         2.0289  -17.7061  -50.6299 C.ar      23 UNK        -0.0193 
     14 C14         2.1842  -16.7585  -49.6128 C.ar      23 UNK        -0.1150 
     15 C15         2.8000  -19.0189  -50.5849 C.3       23 UNK        -0.0205 
     16 S16         2.4380  -19.9950  -49.0918 S.3       23 UNK        -0.2404 
     17 C17         0.6430  -20.2514  -49.2719 C.3       23 UNK        -0.0398 
     18 CA          0.1579  -21.4861  -48.4833 C.3       11 UNK         0.1400 
     19 N           0.2726  -21.3094  -47.0323 N.am      11 UNK        -0.5000 
     20 C           0.1157  -22.2967  -46.1399 C.2       10 UNK         0.5000 
     21 O          -0.1073  -23.4673  -46.4485 O.2       10 UNK        -0.5000 
     22 CA          0.1640  -21.9057  -44.6532 C.3       10 UNK         0.1400 
     23 CB          1.6139  -21.7198  -44.1817 C.3       10 UNK        -0.1800 
     24 N          -0.6125  -20.6990  -44.3674 N.am      10 UNK        -0.5000 
     25 C          -1.9409  -20.5984  -44.5201 C.2       9 UNK         0.5000 
     26 O          -2.6591  -21.5336  -44.8728 O.2       9 UNK        -0.5000 
     27 CA         -2.5696  -19.2119  -44.2869 C.3       9 UNK         0.1400 
     28 CB         -2.7753  -18.9492  -42.7885 C.3       9 UNK        -0.1800 
     29 N          -1.7842  -18.1269  -44.8766 N.am      9 UNK        -0.5000 
     30 C          -1.5400  -17.9924  -46.1884 C.2       8 UNK         0.5000 
     31 O          -1.9781  -18.7533  -47.0492 O.2       8 UNK        -0.5000 
     32 CA         -0.6095  -16.8417  -46.6038 C.3       8 UNK         0.1400 
     33 CB         -1.3843  -15.5173  -46.6890 C.3       8 UNK        -0.1800 
     34 N           0.5237  -16.7005  -45.6893 N.am      8 UNK        -0.5000 
     35 C           1.4974  -17.6126  -45.5538 C.2       7 UNK         0.5000 
     36 O           1.5475  -18.6597  -46.1968 O.2       7 UNK        -0.5000 
     37 CA          2.5575  -17.3301  -44.4746 C.3       7 UNK         0.1400 
     38 CB          3.5518  -16.2613  -44.9538 C.3       7 UNK        -0.1800 
     39 N           1.9549  -16.9059  -43.2103 N.am      7 UNK        -0.5000 
     40 C           1.1550  -17.6777  -42.4575 C.2       6 UNK         0.5000 
     41 O           0.9014  -18.8528  -42.7163 O.2       6 UNK        -0.5000 
     42 CA          0.4829  -17.0192  -41.2370 C.3       6 UNK         0.1400 
     43 CB          1.3504  -17.2041  -39.9833 C.3       6 UNK        -0.1800 
     44 N           0.2071  -15.5947  -41.4207 N.am      6 UNK        -0.5000 
     45 C          -0.5321  -15.0532  -42.4003 C.2       5 UNK         0.5000 
     46 O          -1.1450  -15.7193  -43.2348 O.2       5 UNK        -0.5000 
     47 CA         -0.5558  -13.5124  -42.4872 C.3       5 UNK         0.1400 
     48 CB         -1.9212  -12.9699  -42.0398 C.3       5 UNK        -0.1800 
     49 N           0.4988  -12.8708  -41.6928 N.am      5 UNK        -0.5000 
     50 C           1.8093  -12.9316  -41.9659 C.2       4 UNK         0.5000 
     51 O           2.2783  -13.4928  -42.9581 O.2       4 UNK        -0.5000 
     52 CA          2.7410  -12.3645  -40.8888 C.3       4 UNK         0.1400 
     53 CB          3.1122  -13.4669  -39.8775 C.3       4 UNK        -0.1800 
     54 N           3.9478  -11.8126  -41.4947 N.am      4 UNK        -0.5000 
     55 C           4.7555  -10.9293  -40.8923 C.2       3 UNK         0.5000 
     56 O           4.5711  -10.5011  -39.7518 O.2       3 UNK        -0.5000 
     57 CA          5.9567  -10.4121  -41.6985 C.3       3 UNK         0.1400 
     58 CB          7.1217  -11.4145  -41.6638 C.3       3 UNK        -0.1800 
     59 N           5.5845  -10.1254  -43.0822 N.am      3 UNK        -0.5000 
     60 C           5.0001   -8.9868  -43.4827 C.2       2 UNK         0.5000 
     61 O           4.7498   -8.0475  -42.7262 O.2       2 UNK        -0.5000 
     62 CA          4.6455   -8.8570  -44.9763 C.3       2 UNK         0.1400 
     63 CB          5.7067   -8.0201  -45.7075 C.3       2 UNK        -0.1800 
     64 N           4.5226  -10.1498  -45.6476 N.am      2 UNK        -0.5000 
     65 C           3.4522  -10.9524  -45.5703 C.2       1 UNK         0.5000 
     66 O           2.4234  -10.6658  -44.9574 O.2       1 UNK        -0.5000 
     67 C          -1.2693  -21.8823  -48.9104 C.2       11 UNK         0.5000 
     68 O          -1.4175  -22.7103  -49.8098 O.2       11 UNK        -0.5000 
     69 N          -2.2965  -21.3149  -48.2621 N.am      12 UNK        -0.5000 
     70 CA         -3.6971  -21.6843  -48.4645 C.3       12 UNK         0.1400 
     71 CB         -4.6231  -20.6892  -47.7514 C.3       12 UNK        -0.1800 
     72 C          -3.9811  -23.1261  -48.0164 C.2       12 UNK         0.5000 
     73 O          -4.5980  -23.8768  -48.7712 O.2       12 UNK        -0.5000 
     74 N          -3.4919  -23.5034  -46.8269 N.am      13 UNK        -0.5000 
     75 CA         -3.5956  -24.8548  -46.2729 C.3       13 UNK         0.1400 
     76 CB         -3.0461  -24.8719  -44.8389 C.3       13 UNK        -0.1800 
     77 C          -2.8952  -25.9132  -47.1446 C.2       13 UNK         0.5000 
     78 O          -3.4802  -26.9655  -47.4047 O.2       13 UNK        -0.5000 
     79 N          -1.6873  -25.5922  -47.6312 N.am      14 UNK        -0.5000 
     80 CA         -0.9136  -26.4139  -48.5674 C.3       14 UNK         0.1400 
     81 CB          0.4750  -25.7879  -48.7645 C.3       14 UNK        -0.1800 
     82 C          -1.6130  -26.6127  -49.9272 C.2       14 UNK         0.5000 
     83 O          -1.4601  -27.6682  -50.5420 O.2       14 UNK        -0.5000 
     84 N          -2.3997  -25.6144  -50.3462 N.am      15 UNK        -0.5000 
     85 CA         -3.2405  -25.6287  -51.5419 C.3       15 UNK         0.1400 
     86 CB         -3.2845  -24.2076  -52.1243 C.3       15 UNK        -0.1800 
     87 C          -4.6588  -26.1770  -51.2737 C.2       15 UNK         0.5000 
     88 O          -5.5600  -25.9051  -52.0662 O.2       15 UNK        -0.5000 
     89 N          -4.8457  -26.9245  -50.1743 N.am      16 UNK        -0.5000 
     90 CA         -6.0821  -27.5982  -49.7600 C.3       16 UNK         0.1400 
     91 CB         -6.4454  -28.7247  -50.7508 C.3       16 UNK        -0.1800 
     92 C          -7.2431  -26.6144  -49.5083 C.2       16 UNK         0.5000 
     93 O          -8.3443  -26.8032  -50.0278 O.2       16 UNK        -0.5000 
     94 N          -6.9508  -25.5727  -48.7175 N.am      17 UNK        -0.5000 
     95 CA         -7.8059  -24.4233  -48.4024 C.3       17 UNK         0.1400 
     96 CB         -9.1083  -24.8505  -47.6923 C.3       17 UNK        -0.1800 
     97 C          -8.0326  -23.5299  -49.6386 C.2       17 UNK         0.5000 
     98 O          -9.1571  -23.0994  -49.9001 O.2       17 UNK        -0.5000 
     99 N          -6.9326  -23.2708  -50.3615 N.am      18 UNK        -0.5000 
    100 CA        -6.8214  -22.4505  -51.5700 C.3       18 UNK         0.1400 
    101 CB        -7.0081  -20.9588  -51.2248 C.3       18 UNK        -0.1800 
    102 C         -7.7406  -22.9331  -52.7107 C.2       18 UNK         0.5000 
    103 O         -8.5332  -22.1556  -53.2486 O.2       18 UNK        -0.5000 
    104 N         -7.6277  -24.2227  -53.0545 N.am      19 UNK        -0.5000 
    105 CA        -8.3937  -24.8938  -54.1037 C.3       19 UNK         0.1400 
    106 CB        -8.3274  -26.4143  -53.8736 C.3       19 UNK        -0.1800 
    107 C         -7.9048  -24.4857  -55.5089 C.2       19 UNK         0.5000 
    108 O         -7.2087  -25.2555  -56.1734 O.2       19 UNK        -0.5000 
    109 N         -8.2704  -23.2622  -55.9162 N.am      20 UNK        -0.5000 
    110 CA        -7.9464  -22.6039  -57.1881 C.3       20 UNK         0.1400 
    111 CB        -8.5699  -23.3620  -58.3795 C.3       20 UNK        -0.1800 
    112 C         -6.4379  -22.3250  -57.3694 C.2       20 UNK         0.5000 
    113 O         -5.9382  -22.3256  -58.4962 O.2       20 UNK        -0.5000 
    114 N         -5.7429  -22.0687  -56.2565 N.am      21 UNK        -0.5000 
    115 CA        -4.3296  -21.7182  -56.1899 C.3       21 UNK         0.1400 
    116 CB        -3.4694  -22.9931  -56.2409 C.3       21 UNK        -0.1800 
    117 C         -4.0872  -20.9438  -54.8890 C.2       21 UNK         0.5000 
    118 O         -4.8215  -21.1453  -53.9170 O.2       21 UNK        -0.5000 
    119 N         -3.0607  -20.0852  -54.8847 N.am      22 UNK        -0.5000 
    120 CA        -2.6178  -19.3270  -53.7059 C.3       22 UNK         0.1400 
    121 C         -1.8368  -20.2408  -52.7222 C.2       22 UNK         0.5000 
    122 N         -2.5452  -21.0006  -51.9023 N.am      22 UNK        -0.7600 
    123 O         -0.6104  -20.2914  -52.7231 O.2       22 UNK        -0.5000 
    124 C124       -1.8468  -18.0408  -54.1070 C.3       23 UNK        -0.0398 
    125 S125       -2.0134  -16.7166  -52.8590 S.3       23 UNK        -0.2404 
    126 C126       -0.3948  -15.8899  -52.9657 C.3       23 UNK        -0.0205 
    127 H127        7.7580  -13.2363  -44.9230 H         1 UNK         0.0600 
    128 H128        7.2117  -13.9696  -46.4351 H         1 UNK         0.0600 
    129 H129        6.9821  -14.8238  -44.9060 H         1 UNK         0.0600 
    130 H130        5.2967  -13.1111  -47.1845 H         1 UNK         0.3000 
    131 H131        2.9122  -13.0073  -45.7800 H         1 UNK         0.0600 
    132 H132        1.9626  -11.8811  -47.7348 H         1 UNK         0.0800 
    133 H133        3.5246  -11.3163  -48.2526 H         1 UNK         0.0800 
    134 H134        0.8659  -13.7952  -48.5800 H         1 UNK         0.0800 
    135 H135        1.7032  -14.9793  -47.5971 H         1 UNK         0.0800 
    136 H136        0.1292  -14.3315  -50.7956 H         1 UNK         0.1150 
    137 H137        1.0601  -18.1504  -52.4999 H         1 UNK         0.1150 
    138 H138        2.8452  -16.9660  -48.7827 H         1 UNK         0.1150 
    139 H139        2.5854  -19.6272  -51.4652 H         1 UNK         0.0800 
    140 H140        3.8684  -18.8016  -50.6136 H         1 UNK         0.0800 
    141 H141        0.4294  -20.3709  -50.3346 H         1 UNK         0.0800 
    142 H142        0.1189  -19.3500  -48.9494 H         1 UNK         0.0800 
    143 H143        0.8016  -22.3252  -48.7561 H         1 UNK         0.0600 
    144 H144        0.5032  -20.3765  -46.7051 H         1 UNK         0.3000 
    145 H145       -0.2740  -22.7261  -44.0810 H         1 UNK         0.0600 
    146 H146        1.6576  -21.5390  -43.1077 H         1 UNK         0.0600 
    147 H147        2.2087  -22.6109  -44.3860 H         1 UNK         0.0600 
    148 H148        2.0969  -20.8797  -44.6814 H         1 UNK         0.0600 
    149 H149       -0.0929  -19.8980  -44.0205 H         1 UNK         0.3000 
    150 H150       -3.5495  -19.2052  -44.7685 H         1 UNK         0.0600 
    151 H151       -3.4519  -19.6870  -42.3556 H         1 UNK         0.0600 
    152 H152       -3.2094  -17.9646  -42.6132 H         1 UNK         0.0600 
    153 H153       -1.8370  -19.0070  -42.2384 H         1 UNK         0.0600 
    154 H154       -1.4164  -17.4238  -44.2432 H         1 UNK         0.3000 
    155 H155       -0.2147  -17.0704  -47.5963 H         1 UNK         0.0600 
    156 H156       -1.8595  -15.2612  -45.7420 H         1 UNK         0.0600 
    157 H157       -2.1715  -15.5799  -47.4412 H         1 UNK         0.0600 
    158 H158       -0.7349  -14.6892  -46.9679 H         1 UNK         0.0600 
    159 H159        0.5077  -15.9084  -45.0640 H         1 UNK         0.3000 
    160 H160        3.1085  -18.2559  -44.2954 H         1 UNK         0.0600 
    161 H161        4.3524  -16.1134  -44.2288 H         1 UNK         0.0600 
    162 H162        3.0640  -15.2990  -45.1091 H         1 UNK         0.0600 
    163 H163        4.0153  -16.5504  -45.8979 H         1 UNK         0.0600 
    164 H164        2.1026  -15.9433  -42.9374 H         1 UNK         0.3000 
    165 H165       -0.4718  -17.5197  -41.0697 H         1 UNK         0.0600 
    166 H166        0.8523  -16.8122  -39.0963 H         1 UNK         0.0600 
    167 H167        1.5519  -18.2606  -39.8008 H         1 UNK         0.0600 
    168 H168        2.3121  -16.6985  -40.0805 H         1 UNK         0.0600 
    169 H169        0.6587  -14.9656  -40.7755 H         1 UNK         0.3000 
    170 H170       -0.4055  -13.2440  -43.5351 H         1 UNK         0.0600 
    171 H171       -2.7275  -13.4035  -42.6333 H         1 UNK         0.0600 
    172 H172       -2.1234  -13.2009  -40.9932 H         1 UNK         0.0600 
    173 H173       -1.9756  -11.8881  -42.1629 H         1 UNK         0.0600 
    174 H174        0.1960  -12.4010  -40.8513 H         1 UNK         0.3000 
    175 H175        2.2118  -11.5624  -40.3696 H         1 UNK         0.0600 
    176 H176        3.6602  -14.2796  -40.3565 H         1 UNK         0.0600 
    177 H177        3.7328  -13.0777  -39.0704 H         1 UNK         0.0600 
    178 H178        2.2222  -13.8959  -39.4160 H         1 UNK         0.0600 
    179 H179        4.1591  -12.1436  -42.4331 H         1 UNK         0.3000 
    180 H180        6.3050   -9.4900  -41.2278 H         1 UNK         0.0600 
    181 H181        6.8406  -12.3857  -42.0705 H         1 UNK         0.0600 
    182 H182        7.4593  -11.5781  -40.6397 H         1 UNK         0.0600 
    183 H183        7.9758  -11.0469  -42.2326 H         1 UNK         0.0600 
    184 H184        5.6789  -10.8892  -43.7394 H         1 UNK         0.3000 
    185 H185        3.6907   -8.3311  -45.0452 H         1 UNK         0.0600 
    186 H186        5.8073   -7.0332  -45.2536 H         1 UNK         0.0600 
    187 H187        6.6873   -8.4967  -45.6770 H         1 UNK         0.0600 
    188 H188        5.4383   -7.8689  -46.7533 H         1 UNK         0.0600 
    189 H189        5.3244  -10.4682  -46.1726 H         1 UNK         0.3000 
    190 H190       -2.1113  -20.5719  -47.5935 H         1 UNK         0.3000 
    191 H191       -3.9113  -21.6255  -49.5326 H         1 UNK         0.0600 
    192 H192       -4.4507  -20.6723  -46.6757 H         1 UNK         0.0600 
    193 H193       -5.6706  -20.9473  -47.9124 H         1 UNK         0.0600 
    194 H194       -4.4756  -19.6773  -48.1289 H         1 UNK         0.0600 
    195 H195       -3.0262  -22.8100  -46.2467 H         1 UNK         0.3000 
    196 H196       -4.6559  -25.1119  -46.2304 H         1 UNK         0.0600 
    197 H197       -3.1322  -25.8661  -44.3987 H         1 UNK         0.0600 
    198 H198       -3.5977  -24.1834  -44.1985 H         1 UNK         0.0600 
    199 H199       -1.9944  -24.5871  -44.8058 H         1 UNK         0.0600 
    200 H200       -1.2543  -24.7235  -47.3269 H         1 UNK         0.3000 
    201 H201       -0.7841  -27.3994  -48.1157 H         1 UNK         0.0600 
    202 H202        1.0104  -25.7090  -47.8182 H         1 UNK         0.0600 
    203 H203        0.4061  -24.7885  -49.1948 H         1 UNK         0.0600 
    204 H204        1.0862  -26.3935  -49.4348 H         1 UNK         0.0600 
    205 H205       -2.4496  -24.7751  -49.7822 H         1 UNK         0.3000 
    206 H206       -2.7901  -26.2802  -52.2931 H         1 UNK         0.0600 
    207 H207       -2.2841  -23.8593  -52.3816 H         1 UNK         0.0600 
    208 H208       -3.8847  -24.1600  -53.0333 H         1 UNK         0.0600 
    209 H209       -3.7098  -23.5052  -51.4088 H         1 UNK         0.0600 
    210 H210       -4.0632  -27.0367  -49.5417 H         1 UNK         0.3000 
    211 H211       -5.8663  -28.0664  -48.7985 H         1 UNK         0.0600 
    212 H212       -6.7142  -28.3328  -51.7322 H         1 UNK         0.0600 
    213 H213       -7.2948  -29.3042  -50.3876 H         1 UNK         0.0600 
    214 H214       -5.6137  -29.4167  -50.8825 H         1 UNK         0.0600 
    215 H215       -5.9849  -25.4689  -48.4304 H         1 UNK         0.3000 
    216 H216       -7.2411  -23.8158  -47.6937 H         1 UNK         0.0600 
    217 H217       -9.6515  -23.9793  -47.3248 H         1 UNK         0.0600 
    218 H218       -8.8986  -25.4879  -46.8335 H         1 UNK         0.0600 
    219 H219       -9.7806  -25.3924  -48.3577 H         1 UNK         0.0600 
    220 H220       -6.0642  -23.6765  -50.0258 H         1 UNK         0.3000 
    221 H221       -5.8018  -22.5774  -51.9306 H         1 UNK         0.0600 
    222 H222       -8.0136  -20.7497  -50.8586 H         1 UNK         0.0600 
    223 H223       -6.2989  -20.6392  -50.4617 H         1 UNK         0.0600 
    224 H224       -6.8420  -20.3327  -52.1022 H         1 UNK         0.0600 
    225 H225       -6.9248  -24.7963  -52.5907 H         1 UNK         0.3000 
    226 H226       -9.4403  -24.5951  -54.0146 H         1 UNK         0.0600 
    227 H227       -8.9233  -26.9476  -54.6151 H         1 UNK         0.0600 
    228 H228       -7.3059  -26.7902  -53.9407 H         1 UNK         0.0600 
    229 H229       -8.7151  -26.6808  -52.8901 H         1 UNK         0.0600 
    230 H230       -8.7634  -22.6884  -55.2393 H         1 UNK         0.3000 
    231 H231       -8.4231  -21.6238  -57.1447 H         1 UNK         0.0600 
    232 H232       -9.6349  -23.5339  -58.2240 H         1 UNK         0.0600 
    233 H233       -8.0931  -24.3293  -58.5402 H         1 UNK         0.0600 
    234 H234       -8.4670  -22.7913  -59.3031 H         1 UNK         0.0600 
    235 H235       -6.2179  -22.0461  -55.3629 H         1 UNK         0.3000 
    236 H236       -4.0771  -21.0694  -57.0313 H         1 UNK         0.0600 
    237 H237       -3.6038  -23.5233  -57.1838 H         1 UNK         0.0600 
    238 H238       -2.4087  -22.7566  -56.1498 H         1 UNK         0.0600 
    239 H239       -3.7248  -23.6803  -55.4337 H         1 UNK         0.0600 
    240 H240       -2.4827  -20.0051  -55.7086 H         1 UNK         0.3000 
    241 H241       -3.5226  -19.0013  -53.1871 H         1 UNK         0.0600 
    242 H242       -2.0716  -21.6405  -51.2742 H         1 UNK         0.3800 
    243 H243       -3.5483  -21.0318  -52.0059 H         1 UNK         0.3800 
    244 H244       -0.7970  -18.2538  -54.3136 H         1 UNK         0.0800 
    245 H245       -2.2533  -17.6373  -55.0354 H         1 UNK         0.0800 
    246 H246        0.1176  -16.1563  -53.8910 H         1 UNK         0.0800 
    247 H247       -0.5650  -14.8138  -53.0239 H         1 UNK         0.0800 
@<TRIPOS>BOND
     1    1    2 1    
     2    1  127 1    
     3    1  128 1    
     4    1  129 1    
     5    2    3 2    
     6    2    4 am   BACKBONE|DICT|INTERRES
     7    4    5 1    
     8    4  130 1    
     9    5    6 1    
    10    5   65 1    
    11    5  131 1    
    12    6    7 1    
    13    6  132 1    
    14    6  133 1    
    15    7    8 1    
    16    8    9 1    
    17    8  134 1    
    18    8  135 1    
    19    9   10 ar   
    20    9   14 ar   
    21   10   11 ar   
    22   10  136 1    
    23   11   12 ar   
    24   11  126 1    
    25   12   13 ar   
    26   12  137 1    
    27   13   14 ar   
    28   13   15 1    
    29   14  138 1    
    30   15   16 1    
    31   15  139 1    
    32   15  140 1    
    33   16   17 1    
    34   17   18 1    
    35   17  141 1    
    36   17  142 1    
    37   18   19 1    
    38   18   67 1    
    39   18  143 1    
    40   19   20 am   BACKBONE|DICT|INTERRES
    41   19  144 1    
    42   20   21 2    
    43   20   22 1    
    44   22   23 1    
    45   22   24 1    
    46   22  145 1    
    47   23  146 1    
    48   23  147 1    
    49   23  148 1    
    50   24   25 am   BACKBONE|DICT|INTERRES
    51   24  149 1    
    52   25   26 2    
    53   25   27 1    
    54   27   28 1    
    55   27   29 1    
    56   27  150 1    
    57   28  151 1    
    58   28  152 1    
    59   28  153 1    
    60   29   30 am   BACKBONE|DICT|INTERRES
    61   29  154 1    
    62   30   31 2    
    63   30   32 1    
    64   32   33 1    
    65   32   34 1    
    66   32  155 1    
    67   33  156 1    
    68   33  157 1    
    69   33  158 1    
    70   34   35 am   BACKBONE|DICT|INTERRES
    71   34  159 1    
    72   35   36 2    
    73   35   37 1    
    74   37   38 1    
    75   37   39 1    
    76   37  160 1    
    77   38  161 1    
    78   38  162 1    
    79   38  163 1    
    80   39   40 am   BACKBONE|DICT|INTERRES
    81   39  164 1    
    82   40   41 2    
    83   40   42 1    
    84   42   43 1    
    85   42   44 1    
    86   42  165 1    
    87   43  166 1    
    88   43  167 1    
    89   43  168 1    
    90   44   45 am   BACKBONE|DICT|INTERRES
    91   44  169 1    
    92   45   46 2    
    93   45   47 1    
    94   47   48 1    
    95   47   49 1    
    96   47  170 1    
    97   48  171 1    
    98   48  172 1    
    99   48  173 1    
   100   49   50 am   BACKBONE|DICT|INTERRES
   101   49  174 1    
   102   50   51 2    
   103   50   52 1    
   104   52   53 1    
   105   52   54 1    
   106   52  175 1    
   107   53  176 1    
   108   53  177 1    
   109   53  178 1    
   110   54   55 am   BACKBONE|DICT|INTERRES
   111   54  179 1    
   112   55   56 2    
   113   55   57 1    
   114   57   58 1    
   115   57   59 1    
   116   57  180 1    
   117   58  181 1    
   118   58  182 1    
   119   58  183 1    
   120   59   60 am   BACKBONE|DICT|INTERRES
   121   59  184 1    
   122   60   61 2    
   123   60   62 1    
   124   62   63 1    
   125   62   64 1    
   126   62  185 1    
   127   63  186 1    
   128   63  187 1    
   129   63  188 1    
   130   64   65 am   BACKBONE|DICT|INTERRES
   131   64  189 1    
   132   65   66 2    
   133   67   68 2    
   134   67   69 am   BACKBONE|DICT|INTERRES
   135   69   70 1    
   136   69  190 1    
   137   70   71 1    
   138   70   72 1    
   139   70  191 1    
   140   71  192 1    
   141   71  193 1    
   142   71  194 1    
   143   72   73 2    
   144   72   74 am   BACKBONE|DICT|INTERRES
   145   74   75 1    
   146   74  195 1    
   147   75   76 1    
   148   75   77 1    
   149   75  196 1    
   150   76  197 1    
   151   76  198 1    
   152   76  199 1    
   153   77   78 2    
   154   77   79 am   BACKBONE|DICT|INTERRES
   155   79   80 1    
   156   79  200 1    
   157   80   81 1    
   158   80   82 1    
   159   80  201 1    
   160   81  202 1    
   161   81  203 1    
   162   81  204 1    
   163   82   83 2    
   164   82   84 am   BACKBONE|DICT|INTERRES
   165   84   85 1    
   166   84  205 1    
   167   85   86 1    
   168   85   87 1    
   169   85  206 1    
   170   86  207 1    
   171   86  208 1    
   172   86  209 1    
   173   87   88 2    
   174   87   89 am   BACKBONE|DICT|INTERRES
   175   89   90 1    
   176   89  210 1    
   177   90   91 1    
   178   90   92 1    
   179   90  211 1    
   180   91  212 1    
   181   91  213 1    
   182   91  214 1    
   183   92   93 2    
   184   92   94 am   BACKBONE|DICT|INTERRES
   185   94   95 1    
   186   94  215 1    
   187   95   96 1    
   188   95   97 1    
   189   95  216 1    
   190   96  217 1    
   191   96  218 1    
   192   96  219 1    
   193   97   98 2    
   194   97   99 am   BACKBONE|DICT|INTERRES
   195   99  100 1    
   196   99  220 1    
   197  100  101 1    
   198  100  102 1    
   199  100  221 1    
   200  101  222 1    
   201  101  223 1    
   202  101  224 1    
   203  102  103 2    
   204  102  104 am   BACKBONE|DICT|INTERRES
   205  104  105 1    
   206  104  225 1    
   207  105  106 1    
   208  105  107 1    
   209  105  226 1    
   210  106  227 1    
   211  106  228 1    
   212  106  229 1    
   213  107  108 2    
   214  107  109 am   BACKBONE|DICT|INTERRES
   215  109  110 1    
   216  109  230 1    
   217  110  111 1    
   218  110  112 1    
   219  110  231 1    
   220  111  232 1    
   221  111  233 1    
   222  111  234 1    
   223  112  113 2    
   224  112  114 am   BACKBONE|DICT|INTERRES
   225  114  115 1    
   226  114  235 1    
   227  115  116 1    
   228  115  117 1    
   229  115  236 1    
   230  116  237 1    
   231  116  238 1    
   232  116  239 1    
   233  117  118 2    
   234  117  119 am   BACKBONE|DICT|INTERRES
   235  119  120 1    
   236  119  240 1    
   237  120  121 1    
   238  120  124 1    
   239  120  241 1    
   240  121  122 am   BACKBONE|DICT|INTERRES
   241  121  123 2    
   242  122  242 1    
   243  122  243 1    
   244  124  125 1    
   245  124  244 1    
   246  124  245 1    
   247  125  126 1    
   248  126  246 1    
   249  126  247 1    
@<TRIPOS>SUBSTRUCTURE
     1 UNK         1 GROUP             0       ****    0 ROOT    
