@<TRIPOS>MOLECULE
3R540
247   249    1
SMALL
USER_CHARGES


@<TRIPOS>ATOM
      1 CA          0.3108  -13.8435  -53.5086 C.3       0 UNK        -0.1800 
      2 C          -0.7659  -14.7760  -52.9589 C.2       0 UNK         0.5000 
      3 O          -1.8057  -14.9392  -53.5952 O.2       0 UNK        -0.5000 
      4 N          -0.5682  -15.4041  -51.7949 N.am      1 UNK        -0.5000 
      5 CA          0.5825  -15.2798  -50.9042 C.3       1 UNK         0.1400 
      6 C6          1.7097  -16.2794  -51.2677 C.3       23 UNK        -0.0398 
      7 S7          3.3105  -15.8182  -50.5232 S.3       23 UNK        -0.2404 
      8 C8          4.4512  -16.9633  -51.3678 C.3       23 UNK        -0.0205 
      9 C9          4.0867  -18.4198  -51.1187 C.ar      23 UNK        -0.0193 
     10 C10         3.6368  -19.2251  -52.1679 C.ar      23 UNK        -0.1150 
     11 C11         3.2504  -20.5480  -51.9323 C.ar      23 UNK        -0.0193 
     12 C12         3.3096  -21.0599  -50.6331 C.ar      23 UNK        -0.1150 
     13 C13         3.7574  -20.2655  -49.5730 C.ar      23 UNK        -0.0193 
     14 C14         4.1740  -18.9548  -49.8314 C.ar      23 UNK        -0.1150 
     15 C15         3.7773  -20.8389  -48.1589 C.3       23 UNK        -0.0205 
     16 S16         3.2231  -19.6766  -46.8614 S.3       23 UNK        -0.2404 
     17 C17         1.6157  -19.0831  -47.4964 C.3       23 UNK        -0.0398 
     18 CA          0.5103  -20.1654  -47.5399 C.3       11 UNK         0.1400 
     19 N           0.3474  -20.8831  -46.2726 N.am      11 UNK        -0.5000 
     20 C          -0.3929  -21.9890  -46.1122 C.2       10 UNK         0.5000 
     21 O          -0.9831  -22.5563  -47.0305 O.2       10 UNK        -0.5000 
     22 CA         -0.5374  -22.5188  -44.6743 C.3       10 UNK         0.1400 
     23 CB          0.6631  -23.3988  -44.2969 C.3       10 UNK        -0.1800 
     24 N          -0.6740  -21.4342  -43.7014 N.am      10 UNK        -0.5000 
     25 C          -1.7360  -20.6167  -43.6263 C.2       9 UNK         0.5000 
     26 O          -2.7447  -20.7463  -44.3187 O.2       9 UNK        -0.5000 
     27 CA         -1.6276  -19.4182  -42.6628 C.3       9 UNK         0.1400 
     28 CB         -2.1376  -19.7989  -41.2662 C.3       9 UNK        -0.1800 
     29 N          -0.2595  -18.9063  -42.5630 N.am      9 UNK        -0.5000 
     30 C           0.4248  -18.3772  -43.5885 C.2       8 UNK         0.5000 
     31 O          -0.0793  -18.1570  -44.6896 O.2       8 UNK        -0.5000 
     32 CA          1.9266  -18.1028  -43.3891 C.3       8 UNK         0.1400 
     33 CB          2.2458  -16.6102  -43.5258 C.3       8 UNK        -0.1800 
     34 N           2.4480  -18.6037  -42.1172 N.am      8 UNK        -0.5000 
     35 C           2.7292  -19.8912  -41.8686 C.2       7 UNK         0.5000 
     36 O           2.5428  -20.7943  -42.6843 O.2       7 UNK        -0.5000 
     37 CA          3.2797  -20.2330  -40.4702 C.3       7 UNK         0.1400 
     38 CB          4.8148  -20.2758  -40.4963 C.3       7 UNK        -0.1800 
     39 N           2.8469  -19.2926  -39.4344 N.am      7 UNK        -0.5000 
     40 C           1.5881  -19.1772  -38.9885 C.2       6 UNK         0.5000 
     41 O           0.6591  -19.8822  -39.3813 O.2       6 UNK        -0.5000 
     42 CA          1.3159  -18.0559  -37.9669 C.3       6 UNK         0.1400 
     43 CB          1.5087  -18.5741  -36.5339 C.3       6 UNK        -0.1800 
     44 N           2.1480  -16.8637  -38.1676 N.am      6 UNK        -0.5000 
     45 C           2.1142  -16.0913  -39.2616 C.2       5 UNK         0.5000 
     46 O           1.4115  -16.3334  -40.2440 O.2       5 UNK        -0.5000 
     47 CA          3.0701  -14.8846  -39.2862 C.3       5 UNK         0.1400 
     48 CB          4.3879  -15.2710  -39.9761 C.3       5 UNK        -0.1800 
     49 N           2.4924  -13.7369  -39.9862 N.am      5 UNK        -0.5000 
     50 C           1.4278  -13.0352  -39.5722 C.2       4 UNK         0.5000 
     51 O           0.8469  -13.2457  -38.5061 O.2       4 UNK        -0.5000 
     52 CA          0.9373  -11.8882  -40.4816 C.3       4 UNK         0.1400 
     53 CB          1.3315  -10.5268  -39.8865 C.3       4 UNK        -0.1800 
     54 N           1.4403  -11.9619  -41.8573 N.am      4 UNK        -0.5000 
     55 C           1.0015  -12.8246  -42.7819 C.2       3 UNK         0.5000 
     56 O           0.1122  -13.6554  -42.5771 O.2       3 UNK        -0.5000 
     57 CA          1.6737  -12.7463  -44.1621 C.3       3 UNK         0.1400 
     58 CB          3.1791  -13.0729  -44.0830 C.3       3 UNK        -0.1800 
     59 N           0.9910  -13.6730  -45.0602 N.am      3 UNK        -0.5000 
     60 C           1.0193  -13.6384  -46.3944 C.2       2 UNK         0.5000 
     61 O           1.6935  -12.8351  -47.0467 O.2       2 UNK        -0.5000 
     62 CA          0.1236  -14.6536  -47.1229 C.3       2 UNK         0.1400 
     63 CB         -1.3655  -14.2885  -46.9447 C.3       2 UNK        -0.1800 
     64 N           0.4924  -14.6500  -48.5362 N.am      2 UNK        -0.5000 
     65 C           0.0586  -15.4952  -49.4749 C.2       1 UNK         0.5000 
     66 O          -0.7314  -16.4140  -49.2593 O.2       1 UNK        -0.5000 
     67 C          -0.8229  -19.5474  -48.0002 C.2       11 UNK         0.5000 
     68 O          -1.1686  -19.6710  -49.1726 O.2       11 UNK        -0.5000 
     69 N          -1.5589  -18.9407  -47.0559 N.am      12 UNK        -0.5000 
     70 CA         -2.8824  -18.3574  -47.2716 C.3       12 UNK         0.1400 
     71 CB         -3.3129  -17.5820  -46.0177 C.3       12 UNK        -0.1800 
     72 C          -3.9367  -19.4093  -47.6597 C.2       12 UNK         0.5000 
     73 O          -4.7201  -19.1684  -48.5764 O.2       12 UNK        -0.5000 
     74 N          -3.9110  -20.5761  -46.9984 N.am      13 UNK        -0.5000 
     75 CA         -4.7360  -21.7402  -47.3343 C.3       13 UNK         0.1400 
     76 CB         -4.5222  -22.8392  -46.2828 C.3       13 UNK        -0.1800 
     77 C          -4.4528  -22.2702  -48.7539 C.2       13 UNK         0.5000 
     78 O          -5.3908  -22.5827  -49.4909 O.2       13 UNK        -0.5000 
     79 N          -3.1641  -22.3043  -49.1172 N.am      14 UNK        -0.5000 
     80 CA         -2.6604  -22.6842  -50.4352 C.3       14 UNK         0.1400 
     81 CB         -1.1752  -23.0549  -50.3121 C.3       14 UNK        -0.1800 
     82 C          -2.8730  -21.6119  -51.5263 C.2       14 UNK         0.5000 
     83 O          -2.6116  -21.8862  -52.6970 O.2       14 UNK        -0.5000 
     84 N          -3.3520  -20.4116  -51.1739 N.am      15 UNK        -0.5000 
     85 CA         -3.6448  -19.3262  -52.1129 C.3       15 UNK         0.1400 
     86 CB         -3.3871  -17.9696  -51.4341 C.3       15 UNK        -0.1800 
     87 C          -5.0632  -19.4517  -52.7080 C.2       15 UNK         0.5000 
     88 O          -5.7749  -18.4527  -52.8145 O.2       15 UNK        -0.5000 
     89 N          -5.4555  -20.6849  -53.0654 N.am      16 UNK        -0.5000 
     90 CA         -6.7529  -21.1056  -53.6093 C.3       16 UNK         0.1400 
     91 CB         -7.0505  -20.4072  -54.9530 C.3       16 UNK        -0.1800 
     92 C          -7.9294  -20.9891  -52.6165 C.2       16 UNK         0.5000 
     93 O          -9.0783  -21.1714  -53.0229 O.2       16 UNK        -0.5000 
     94 N          -7.6432  -20.7017  -51.3390 N.am      17 UNK        -0.5000 
     95 CA         -8.6427  -20.5630  -50.2817 C.3       17 UNK         0.1400 
     96 CB         -8.0487  -19.7602  -49.1162 C.3       17 UNK        -0.1800 
     97 C          -9.1611  -21.9289  -49.8045 C.2       17 UNK         0.5000 
     98 O         -10.3706  -22.0918  -49.6367 O.2       17 UNK        -0.5000 
     99 N          -8.2402  -22.8817  -49.6143 N.am      18 UNK        -0.5000 
    100 CA        -8.5324  -24.2621  -49.2324 C.3       18 UNK         0.1400 
    101 CB        -7.8805  -24.5584  -47.8731 C.3       18 UNK        -0.1800 
    102 C         -8.0278  -25.2544  -50.2916 C.2       18 UNK         0.5000 
    103 O         -8.6768  -26.2787  -50.5087 O.2       18 UNK        -0.5000 
    104 N         -6.8931  -24.9490  -50.9331 N.am      19 UNK        -0.5000 
    105 CA        -6.2392  -25.7896  -51.9325 C.3       19 UNK         0.1400 
    106 CB        -5.4847  -26.9353  -51.2264 C.3       19 UNK        -0.1800 
    107 C         -5.2790  -24.9357  -52.7735 C.2       19 UNK         0.5000 
    108 O         -5.0721  -23.7639  -52.4546 O.2       19 UNK        -0.5000 
    109 N         -4.6962  -25.5575  -53.8087 N.am      20 UNK        -0.5000 
    110 CA        -3.6379  -25.0376  -54.6839 C.3       20 UNK         0.1400 
    111 CB        -2.2871  -25.0443  -53.9345 C.3       20 UNK        -0.1800 
    112 C         -3.9878  -23.6971  -55.3731 C.2       20 UNK         0.5000 
    113 O         -5.1617  -23.4603  -55.6681 O.2       20 UNK        -0.5000 
    114 N         -2.9741  -22.8744  -55.6724 N.am      21 UNK        -0.5000 
    115 CA        -3.1037  -21.5974  -56.3728 C.3       21 UNK         0.1400 
    116 CB        -3.4336  -21.8252  -57.8648 C.3       21 UNK        -0.1800 
    117 C         -1.8462  -20.7323  -56.1665 C.2       21 UNK         0.5000 
    118 O         -1.3003  -20.1980  -57.1334 O.2       21 UNK        -0.5000 
    119 N         -1.3962  -20.6076  -54.9116 N.am      22 UNK        -0.5000 
    120 CA        -0.2523  -19.7626  -54.5144 C.3       22 UNK         0.1400 
    121 C         -0.4767  -18.2253  -54.6342 C.2       22 UNK         0.5000 
    122 N         -1.6899  -17.7312  -54.8471 N.am      22 UNK        -0.7600 
    123 O          0.4797  -17.4639  -54.5256 O.2       22 UNK        -0.5000 
    124 C124        0.2505  -20.1041  -53.0894 C.3       23 UNK        -0.0398 
    125 S125        0.9729  -21.7746  -52.9769 S.3       23 UNK        -0.2404 
    126 C126        2.7575  -21.4189  -53.0808 C.3       23 UNK        -0.0205 
    127 H127        1.2922  -14.3162  -53.4949 H         1 UNK         0.0600 
    128 H128        0.3544  -12.9240  -52.9251 H         1 UNK         0.0600 
    129 H129        0.0903  -13.5754  -54.5420 H         1 UNK         0.0600 
    130 H130       -1.2957  -15.9990  -51.4196 H         1 UNK         0.3000 
    131 H131        0.9671  -14.2601  -50.9687 H         1 UNK         0.0600 
    132 H132        1.4445  -17.2963  -50.9707 H         1 UNK         0.0800 
    133 H133        1.8490  -16.3147  -52.3486 H         1 UNK         0.0800 
    134 H134        5.4656  -16.7822  -51.0100 H         1 UNK         0.0800 
    135 H135        4.4569  -16.7393  -52.4357 H         1 UNK         0.0800 
    136 H136        3.5708  -18.8170  -53.1669 H         1 UNK         0.1150 
    137 H137        2.9929  -22.0773  -50.4499 H         1 UNK         0.1150 
    138 H138        4.5257  -18.3305  -49.0221 H         1 UNK         0.1150 
    139 H139        3.1549  -21.7333  -48.1021 H         1 UNK         0.0800 
    140 H140        4.7941  -21.1586  -47.9286 H         1 UNK         0.0800 
    141 H141        1.7586  -18.6536  -48.4890 H         1 UNK         0.0800 
    142 H142        1.3121  -18.2469  -46.8660 H         1 UNK         0.0800 
    143 H143        0.7985  -20.9017  -48.2931 H         1 UNK         0.0600 
    144 H144        0.7919  -20.4728  -45.4658 H         1 UNK         0.3000 
    145 H145       -1.4394  -23.1329  -44.6307 H         1 UNK         0.0600 
    146 H146        0.5486  -23.8148  -43.2958 H         1 UNK         0.0600 
    147 H147        0.7639  -24.2366  -44.9880 H         1 UNK         0.0600 
    148 H148        1.5987  -22.8386  -44.3222 H         1 UNK         0.0600 
    149 H149        0.1258  -21.2509  -43.1107 H         1 UNK         0.3000 
    150 H150       -2.2582  -18.6161  -43.0509 H         1 UNK         0.0600 
    151 H151       -3.1782  -20.1232  -41.3070 H         1 UNK         0.0600 
    152 H152       -2.0866  -18.9518  -40.5818 H         1 UNK         0.0600 
    153 H153       -1.5568  -20.6146  -40.8341 H         1 UNK         0.0600 
    154 H154        0.2164  -19.0455  -41.6820 H         1 UNK         0.3000 
    155 H155        2.4513  -18.6208  -44.1932 H         1 UNK         0.0600 
    156 H156        1.6834  -16.0066  -42.8141 H         1 UNK         0.0600 
    157 H157        1.9988  -16.2556  -44.5265 H         1 UNK         0.0600 
    158 H158        3.3075  -16.4212  -43.3691 H         1 UNK         0.0600 
    159 H159        2.5393  -17.9251  -41.3727 H         1 UNK         0.3000 
    160 H160        2.9130  -21.2269  -40.2050 H         1 UNK         0.0600 
    161 H161        5.2411  -19.3015  -40.7389 H         1 UNK         0.0600 
    162 H162        5.1729  -20.9860  -41.2429 H         1 UNK         0.0600 
    163 H163        5.2175  -20.5889  -39.5328 H         1 UNK         0.0600 
    164 H164        3.5494  -18.6749  -39.0557 H         1 UNK         0.3000 
    165 H165        0.2723  -17.7558  -38.0834 H         1 UNK         0.0600 
    166 H166        1.2310  -17.8175  -35.7998 H         1 UNK         0.0600 
    167 H167        0.8847  -19.4493  -36.3479 H         1 UNK         0.0600 
    168 H168        2.5435  -18.8627  -36.3451 H         1 UNK         0.0600 
    169 H169        2.7612  -16.6107  -37.4059 H         1 UNK         0.3000 
    170 H170        3.2854  -14.5827  -38.2591 H         1 UNK         0.0600 
    171 H171        4.8665  -16.1091  -39.4680 H         1 UNK         0.0600 
    172 H172        4.2280  -15.5647  -41.0145 H         1 UNK         0.0600 
    173 H173        5.0957  -14.4418  -39.9677 H         1 UNK         0.0600 
    174 H174        2.8904  -13.5076  -40.8835 H         1 UNK         0.3000 
    175 H175       -0.1531  -11.9422  -40.5100 H         1 UNK         0.0600 
    176 H176        2.4145  -10.4069  -39.8387 H         1 UNK         0.0600 
    177 H177        0.9274   -9.7052  -40.4782 H         1 UNK         0.0600 
    178 H178        0.9442  -10.4152  -38.8729 H         1 UNK         0.0600 
    179 H179        2.1677  -11.3056  -42.1029 H         1 UNK         0.3000 
    180 H180        1.5416  -11.7306  -44.5404 H         1 UNK         0.0600 
    181 H181        3.3595  -14.0443  -43.6257 H         1 UNK         0.0600 
    182 H182        3.7129  -12.3303  -43.4895 H         1 UNK         0.0600 
    183 H183        3.6407  -13.0790  -45.0702 H         1 UNK         0.0600 
    184 H184        0.3692  -14.3113  -44.5775 H         1 UNK         0.3000 
    185 H185        0.3136  -15.6469  -46.7103 H         1 UNK         0.0600 
    186 H186       -2.0207  -15.0131  -47.4273 H         1 UNK         0.0600 
    187 H187       -1.6437  -14.2665  -45.8905 H         1 UNK         0.0600 
    188 H188       -1.5887  -13.3069  -47.3641 H         1 UNK         0.0600 
    189 H189        1.1642  -13.9267  -48.7672 H         1 UNK         0.3000 
    190 H190       -1.1613  -18.8349  -46.1272 H         1 UNK         0.3000 
    191 H191       -2.8010  -17.6492  -48.0982 H         1 UNK         0.0600 
    192 H192       -4.2508  -17.0535  -46.1918 H         1 UNK         0.0600 
    193 H193       -2.5664  -16.8396  -45.7354 H         1 UNK         0.0600 
    194 H194       -3.4635  -18.2440  -45.1654 H         1 UNK         0.0600 
    195 H195       -3.2821  -20.6766  -46.2072 H         1 UNK         0.3000 
    196 H196       -5.7822  -21.4352  -47.2909 H         1 UNK         0.0600 
    197 H197       -3.4847  -23.1706  -46.2491 H         1 UNK         0.0600 
    198 H198       -4.7918  -22.4875  -45.2868 H         1 UNK         0.0600 
    199 H199       -5.1365  -23.7138  -46.4941 H         1 UNK         0.0600 
    200 H200       -2.4611  -22.0515  -48.4311 H         1 UNK         0.3000 
    201 H201       -3.1939  -23.5820  -50.7473 H         1 UNK         0.0600 
    202 H202       -1.0186  -23.8192  -49.5510 H         1 UNK         0.0600 
    203 H203       -0.5638  -22.1905  -50.0524 H         1 UNK         0.0600 
    204 H204       -0.7960  -23.4558  -51.2521 H         1 UNK         0.0600 
    205 H205       -3.5418  -20.2276  -50.1971 H         1 UNK         0.3000 
    206 H206       -2.9526  -19.3888  -52.9510 H         1 UNK         0.0600 
    207 H207       -2.3939  -17.9357  -50.9860 H         1 UNK         0.0600 
    208 H208       -3.4432  -17.1562  -52.1585 H         1 UNK         0.0600 
    209 H209       -4.1162  -17.7599  -50.6525 H         1 UNK         0.0600 
    210 H210       -4.8040  -21.4482  -52.9119 H         1 UNK         0.3000 
    211 H211       -6.6568  -22.1705  -53.8184 H         1 UNK         0.0600 
    212 H212       -7.9331  -20.8364  -55.4283 H         1 UNK         0.0600 
    213 H213       -6.2240  -20.5263  -55.6522 H         1 UNK         0.0600 
    214 H214       -7.2370  -19.3407  -54.8276 H         1 UNK         0.0600 
    215 H215       -6.6752  -20.5849  -51.0771 H         1 UNK         0.3000 
    216 H216       -9.4913  -19.9998  -50.6762 H         1 UNK         0.0600 
    217 H217       -7.1888  -20.2654  -48.6802 H         1 UNK         0.0600 
    218 H218       -8.7841  -19.6179  -48.3235 H         1 UNK         0.0600 
    219 H219       -7.7233  -18.7720  -49.4422 H         1 UNK         0.0600 
    220 H220       -7.2591  -22.6511  -49.7454 H         1 UNK         0.3000 
    221 H221       -9.6090  -24.4143  -49.1319 H         1 UNK         0.0600 
    222 H222       -8.2166  -23.8559  -47.1103 H         1 UNK         0.0600 
    223 H223       -6.7940  -24.4991  -47.9316 H         1 UNK         0.0600 
    224 H224       -8.1352  -25.5617  -47.5294 H         1 UNK         0.0600 
    225 H225       -6.4005  -24.0842  -50.7340 H         1 UNK         0.3000 
    226 H226       -6.9943  -26.2030  -52.6043 H         1 UNK         0.0600 
    227 H227       -4.7170  -26.5501  -50.5539 H         1 UNK         0.0600 
    228 H228       -6.1605  -27.5566  -50.6388 H         1 UNK         0.0600 
    229 H229       -4.9931  -27.5929  -51.9439 H         1 UNK         0.0600 
    230 H230       -4.9794  -26.5066  -54.0063 H         1 UNK         0.3000 
    231 H231       -3.5517  -25.7571  -55.4992 H         1 UNK         0.0600 
    232 H232       -2.2936  -24.3689  -53.0817 H         1 UNK         0.0600 
    233 H233       -1.4558  -24.7627  -54.5812 H         1 UNK         0.0600 
    234 H234       -2.0628  -26.0408  -53.5541 H         1 UNK         0.0600 
    235 H235       -2.0405  -23.1178  -55.3711 H         1 UNK         0.3000 
    236 H236       -3.9273  -21.0430  -55.9201 H         1 UNK         0.0600 
    237 H237       -4.3744  -22.3597  -57.9936 H         1 UNK         0.0600 
    238 H238       -3.5355  -20.8773  -58.3946 H         1 UNK         0.0600 
    239 H239       -2.6517  -22.3998  -58.3624 H         1 UNK         0.0600 
    240 H240       -1.8662  -21.1065  -54.1570 H         1 UNK         0.3000 
    241 H241        0.5618  -19.9841  -55.2072 H         1 UNK         0.0600 
    242 H242       -1.8080  -16.7265  -54.8480 H         1 UNK         0.3800 
    243 H243       -2.4803  -18.3318  -55.0011 H         1 UNK         0.3800 
    244 H244       -0.5639  -20.0305  -52.3688 H         1 UNK         0.0800 
    245 H245        0.9869  -19.3767  -52.7507 H         1 UNK         0.0800 
    246 H246        3.3051  -22.3622  -53.0732 H         1 UNK         0.0800 
    247 H247        2.9713  -20.9502  -54.0427 H         1 UNK         0.0800 
@<TRIPOS>BOND
     1    1    2 1    
     2    1  127 1    
     3    1  128 1    
     4    1  129 1    
     5    2    3 2    
     6    2    4 am   BACKBONE|DICT|INTERRES
     7    4    5 1    
     8    4  130 1    
     9    5    6 1    
    10    5   65 1    
    11    5  131 1    
    12    6    7 1    
    13    6  132 1    
    14    6  133 1    
    15    7    8 1    
    16    8    9 1    
    17    8  134 1    
    18    8  135 1    
    19    9   10 ar   
    20    9   14 ar   
    21   10   11 ar   
    22   10  136 1    
    23   11   12 ar   
    24   11  126 1    
    25   12   13 ar   
    26   12  137 1    
    27   13   14 ar   
    28   13   15 1    
    29   14  138 1    
    30   15   16 1    
    31   15  139 1    
    32   15  140 1    
    33   16   17 1    
    34   17   18 1    
    35   17  141 1    
    36   17  142 1    
    37   18   19 1    
    38   18   67 1    
    39   18  143 1    
    40   19   20 am   BACKBONE|DICT|INTERRES
    41   19  144 1    
    42   20   21 2    
    43   20   22 1    
    44   22   23 1    
    45   22   24 1    
    46   22  145 1    
    47   23  146 1    
    48   23  147 1    
    49   23  148 1    
    50   24   25 am   BACKBONE|DICT|INTERRES
    51   24  149 1    
    52   25   26 2    
    53   25   27 1    
    54   27   28 1    
    55   27   29 1    
    56   27  150 1    
    57   28  151 1    
    58   28  152 1    
    59   28  153 1    
    60   29   30 am   BACKBONE|DICT|INTERRES
    61   29  154 1    
    62   30   31 2    
    63   30   32 1    
    64   32   33 1    
    65   32   34 1    
    66   32  155 1    
    67   33  156 1    
    68   33  157 1    
    69   33  158 1    
    70   34   35 am   BACKBONE|DICT|INTERRES
    71   34  159 1    
    72   35   36 2    
    73   35   37 1    
    74   37   38 1    
    75   37   39 1    
    76   37  160 1    
    77   38  161 1    
    78   38  162 1    
    79   38  163 1    
    80   39   40 am   BACKBONE|DICT|INTERRES
    81   39  164 1    
    82   40   41 2    
    83   40   42 1    
    84   42   43 1    
    85   42   44 1    
    86   42  165 1    
    87   43  166 1    
    88   43  167 1    
    89   43  168 1    
    90   44   45 am   BACKBONE|DICT|INTERRES
    91   44  169 1    
    92   45   46 2    
    93   45   47 1    
    94   47   48 1    
    95   47   49 1    
    96   47  170 1    
    97   48  171 1    
    98   48  172 1    
    99   48  173 1    
   100   49   50 am   BACKBONE|DICT|INTERRES
   101   49  174 1    
   102   50   51 2    
   103   50   52 1    
   104   52   53 1    
   105   52   54 1    
   106   52  175 1    
   107   53  176 1    
   108   53  177 1    
   109   53  178 1    
   110   54   55 am   BACKBONE|DICT|INTERRES
   111   54  179 1    
   112   55   56 2    
   113   55   57 1    
   114   57   58 1    
   115   57   59 1    
   116   57  180 1    
   117   58  181 1    
   118   58  182 1    
   119   58  183 1    
   120   59   60 am   BACKBONE|DICT|INTERRES
   121   59  184 1    
   122   60   61 2    
   123   60   62 1    
   124   62   63 1    
   125   62   64 1    
   126   62  185 1    
   127   63  186 1    
   128   63  187 1    
   129   63  188 1    
   130   64   65 am   BACKBONE|DICT|INTERRES
   131   64  189 1    
   132   65   66 2    
   133   67   68 2    
   134   67   69 am   BACKBONE|DICT|INTERRES
   135   69   70 1    
   136   69  190 1    
   137   70   71 1    
   138   70   72 1    
   139   70  191 1    
   140   71  192 1    
   141   71  193 1    
   142   71  194 1    
   143   72   73 2    
   144   72   74 am   BACKBONE|DICT|INTERRES
   145   74   75 1    
   146   74  195 1    
   147   75   76 1    
   148   75   77 1    
   149   75  196 1    
   150   76  197 1    
   151   76  198 1    
   152   76  199 1    
   153   77   78 2    
   154   77   79 am   BACKBONE|DICT|INTERRES
   155   79   80 1    
   156   79  200 1    
   157   80   81 1    
   158   80   82 1    
   159   80  201 1    
   160   81  202 1    
   161   81  203 1    
   162   81  204 1    
   163   82   83 2    
   164   82   84 am   BACKBONE|DICT|INTERRES
   165   84   85 1    
   166   84  205 1    
   167   85   86 1    
   168   85   87 1    
   169   85  206 1    
   170   86  207 1    
   171   86  208 1    
   172   86  209 1    
   173   87   88 2    
   174   87   89 am   BACKBONE|DICT|INTERRES
   175   89   90 1    
   176   89  210 1    
   177   90   91 1    
   178   90   92 1    
   179   90  211 1    
   180   91  212 1    
   181   91  213 1    
   182   91  214 1    
   183   92   93 2    
   184   92   94 am   BACKBONE|DICT|INTERRES
   185   94   95 1    
   186   94  215 1    
   187   95   96 1    
   188   95   97 1    
   189   95  216 1    
   190   96  217 1    
   191   96  218 1    
   192   96  219 1    
   193   97   98 2    
   194   97   99 am   BACKBONE|DICT|INTERRES
   195   99  100 1    
   196   99  220 1    
   197  100  101 1    
   198  100  102 1    
   199  100  221 1    
   200  101  222 1    
   201  101  223 1    
   202  101  224 1    
   203  102  103 2    
   204  102  104 am   BACKBONE|DICT|INTERRES
   205  104  105 1    
   206  104  225 1    
   207  105  106 1    
   208  105  107 1    
   209  105  226 1    
   210  106  227 1    
   211  106  228 1    
   212  106  229 1    
   213  107  108 2    
   214  107  109 am   BACKBONE|DICT|INTERRES
   215  109  110 1    
   216  109  230 1    
   217  110  111 1    
   218  110  112 1    
   219  110  231 1    
   220  111  232 1    
   221  111  233 1    
   222  111  234 1    
   223  112  113 2    
   224  112  114 am   BACKBONE|DICT|INTERRES
   225  114  115 1    
   226  114  235 1    
   227  115  116 1    
   228  115  117 1    
   229  115  236 1    
   230  116  237 1    
   231  116  238 1    
   232  116  239 1    
   233  117  118 2    
   234  117  119 am   BACKBONE|DICT|INTERRES
   235  119  120 1    
   236  119  240 1    
   237  120  121 1    
   238  120  124 1    
   239  120  241 1    
   240  121  122 am   BACKBONE|DICT|INTERRES
   241  121  123 2    
   242  122  242 1    
   243  122  243 1    
   244  124  125 1    
   245  124  244 1    
   246  124  245 1    
   247  125  126 1    
   248  126  246 1    
   249  126  247 1    
@<TRIPOS>SUBSTRUCTURE
     1 UNK         1 GROUP             0       ****    0 ROOT    
