@<TRIPOS>MOLECULE
3R540
247   249    1
SMALL
USER_CHARGES


@<TRIPOS>ATOM
      1 CA         -1.2437  -12.4707  -45.7922 C.3       0 UNK        -0.1800 
      2 C          -0.1335  -12.4540  -46.8332 C.2       0 UNK         0.5000 
      3 O           0.7447  -11.5942  -46.7742 O.2       0 UNK        -0.5000 
      4 N          -0.1597  -13.4095  -47.7740 N.am      1 UNK        -0.5000 
      5 CA          0.7791  -13.5566  -48.9019 C.3       1 UNK         0.1400 
      6 C6          0.4411  -14.7735  -49.8062 C.3       23 UNK        -0.0398 
      7 S7         -1.3313  -14.9441  -50.2143 S.3       23 UNK        -0.2404 
      8 C8         -1.8441  -16.1950  -48.9916 C.3       23 UNK        -0.0205 
      9 C9         -1.8373  -17.6100  -49.5512 C.ar      23 UNK        -0.0193 
     10 C10        -3.0476  -18.2361  -49.8622 C.ar      23 UNK        -0.1150 
     11 C11        -3.0729  -19.5600  -50.3127 C.ar      23 UNK        -0.0193 
     12 C12        -1.8649  -20.2421  -50.4709 C.ar      23 UNK        -0.1150 
     13 C13        -0.6434  -19.6334  -50.1756 C.ar      23 UNK        -0.0193 
     14 C14        -0.6378  -18.3104  -49.7213 C.ar      23 UNK        -0.1150 
     15 C15         0.6453  -20.4254  -50.3928 C.3       23 UNK        -0.0205 
     16 S16         1.9646  -20.1846  -49.1488 S.3       23 UNK        -0.2404 
     17 C17         1.1071  -20.2631  -47.5395 C.3       23 UNK        -0.0398 
     18 CA          0.8653  -21.6894  -46.9843 C.3       11 UNK         0.1400 
     19 N           0.7674  -21.6782  -45.5198 N.am      11 UNK        -0.5000 
     20 C           0.5925  -22.7489  -44.7320 C.2       10 UNK         0.5000 
     21 O           0.5563  -23.9057  -45.1461 O.2       10 UNK        -0.5000 
     22 CA          0.3520  -22.4800  -43.2348 C.3       10 UNK         0.1400 
     23 CB          1.6735  -22.2218  -42.4965 C.3       10 UNK        -0.1800 
     24 N          -0.5739  -21.3683  -43.0116 N.am      10 UNK        -0.5000 
     25 C          -1.8610  -21.3750  -43.3893 C.2       9 UNK         0.5000 
     26 O          -2.4154  -22.3477  -43.9010 O.2       9 UNK        -0.5000 
     27 CA         -2.6480  -20.0631  -43.2150 C.3       9 UNK         0.1400 
     28 CB         -3.1533  -19.9132  -41.7726 C.3       9 UNK        -0.1800 
     29 N          -1.8683  -18.8837  -43.5949 N.am      9 UNK        -0.5000 
     30 C          -1.4198  -18.6423  -44.8350 C.2       8 UNK         0.5000 
     31 O          -1.6659  -19.3645  -45.7997 O.2       8 UNK        -0.5000 
     32 CA         -0.4952  -17.4250  -45.0223 C.3       8 UNK         0.1400 
     33 CB         -1.3070  -16.1282  -45.1376 C.3       8 UNK        -0.1800 
     34 N           0.4897  -17.2908  -43.9482 N.am      8 UNK        -0.5000 
     35 C           1.4436  -18.1921  -43.6736 C.2       7 UNK         0.5000 
     36 O           1.6384  -19.2022  -44.3467 O.2       7 UNK        -0.5000 
     37 CA          2.2794  -17.9609  -42.4030 C.3       7 UNK         0.1400 
     38 CB          3.4245  -16.9700  -42.6505 C.3       7 UNK        -0.1800 
     39 N           1.4557  -17.4909  -41.2919 N.am      7 UNK        -0.5000 
     40 C           0.5570  -18.2496  -40.6500 C.2       6 UNK         0.5000 
     41 O           0.3559  -19.4369  -40.9055 O.2       6 UNK        -0.5000 
     42 CA         -0.2850  -17.5457  -39.5711 C.3       6 UNK         0.1400 
     43 CB          0.4703  -17.5041  -38.2344 C.3       6 UNK        -0.1800 
     44 N          -0.6621  -16.1851  -39.9600 N.am      6 UNK        -0.5000 
     45 C          -1.5042  -15.8955  -40.9619 C.2       5 UNK         0.5000 
     46 O          -2.0700  -16.7472  -41.6454 O.2       5 UNK        -0.5000 
     47 CA         -1.7133  -14.4050  -41.2810 C.3       5 UNK         0.1400 
     48 CB         -2.7914  -13.8018  -40.3686 C.3       5 UNK        -0.1800 
     49 N          -0.4830  -13.6169  -41.1711 N.am      5 UNK        -0.5000 
     50 C           0.5805  -13.7605  -41.9711 C.2       4 UNK         0.5000 
     51 O           0.6597  -14.6050  -42.8676 O.2       4 UNK        -0.5000 
     52 CA          1.7620  -12.8197  -41.7179 C.3       4 UNK         0.1400 
     53 CB          2.7942  -13.4662  -40.7778 C.3       4 UNK        -0.1800 
     54 N           2.3682  -12.5029  -43.0048 N.am      4 UNK        -0.5000 
     55 C           3.1044  -11.4198  -43.2749 C.2       3 UNK         0.5000 
     56 O           3.4231  -10.5909  -42.4203 O.2       3 UNK        -0.5000 
     57 CA          3.5139  -11.1909  -44.7457 C.3       3 UNK         0.1400 
     58 CB          4.9142  -10.5566  -44.8854 C.3       3 UNK        -0.1800 
     59 N           3.3666  -12.3695  -45.6097 N.am      3 UNK        -0.5000 
     60 C           4.1030  -13.4922  -45.6127 C.2       2 UNK         0.5000 
     61 O           5.0266  -13.7017  -44.8262 O.2       2 UNK        -0.5000 
     62 CA          3.7488  -14.5678  -46.6645 C.3       2 UNK         0.1400 
     63 CB          3.7172  -15.9794  -46.0579 C.3       2 UNK        -0.1800 
     64 N           2.4560  -14.3298  -47.3036 N.am      2 UNK        -0.5000 
     65 C           2.2523  -13.6711  -48.4513 C.2       1 UNK         0.5000 
     66 O           3.1486  -13.1703  -49.1304 O.2       1 UNK        -0.5000 
     67 C          -0.3794  -22.3330  -47.6298 C.2       11 UNK         0.5000 
     68 O          -0.2441  -23.2367  -48.4572 O.2       11 UNK        -0.5000 
     69 N          -1.5681  -21.8803  -47.2088 N.am      12 UNK        -0.5000 
     70 CA         -2.8655  -22.3815  -47.6566 C.3       12 UNK         0.1400 
     71 CB         -3.9796  -21.5208  -47.0455 C.3       12 UNK        -0.1800 
     72 C          -3.0865  -23.8689  -47.3341 C.2       12 UNK         0.5000 
     73 O          -3.6130  -24.5974  -48.1744 O.2       12 UNK        -0.5000 
     74 N          -2.6718  -24.2901  -46.1331 N.am      13 UNK        -0.5000 
     75 CA         -2.7727  -25.6688  -45.6655 C.3       13 UNK         0.1400 
     76 CB         -2.5865  -25.7033  -44.1402 C.3       13 UNK        -0.1800 
     77 C          -1.7737  -26.6127  -46.3583 C.2       13 UNK         0.5000 
     78 O          -2.1731  -27.6850  -46.8146 O.2       13 UNK        -0.5000 
     79 N          -0.4928  -26.2221  -46.3897 N.am      14 UNK        -0.5000 
     80 CA          0.6057  -27.0825  -46.8250 C.3       14 UNK         0.1400 
     81 CB          1.9098  -26.6329  -46.1472 C.3       14 UNK        -0.1800 
     82 C           0.7863  -27.1212  -48.3495 C.2       14 UNK         0.5000 
     83 O           1.0034  -28.2035  -48.8968 O.2       14 UNK        -0.5000 
     84 N           0.7361  -25.9522  -49.0007 N.am      15 UNK        -0.5000 
     85 CA          1.0681  -25.7975  -50.4171 C.3       15 UNK         0.1400 
     86 CB          2.0854  -24.6544  -50.5779 C.3       15 UNK        -0.1800 
     87 C          -0.1758  -25.5372  -51.2758 C.2       15 UNK         0.5000 
     88 O          -0.2961  -26.1292  -52.3485 O.2       15 UNK        -0.5000 
     89 N          -1.0549  -24.6356  -50.8088 N.am      16 UNK        -0.5000 
     90 CA         -2.2495  -24.1275  -51.5034 C.3       16 UNK         0.1400 
     91 CB         -3.2906  -25.2464  -51.7073 C.3       16 UNK        -0.1800 
     92 C          -1.9214  -23.3774  -52.8180 C.2       16 UNK         0.5000 
     93 O          -2.7763  -23.2640  -53.6987 O.2       16 UNK        -0.5000 
     94 N          -0.6839  -22.8717  -52.9240 N.am      17 UNK        -0.5000 
     95 CA         -0.0624  -22.2961  -54.1189 C.3       17 UNK         0.1400 
     96 CB          1.4659  -22.4040  -53.9649 C.3       17 UNK        -0.1800 
     97 C          -0.5284  -20.8612  -54.4525 C.2       17 UNK         0.5000 
     98 O           0.2971  -19.9859  -54.7188 O.2       17 UNK        -0.5000 
     99 N          -1.8460  -20.6537  -54.4598 N.am      18 UNK        -0.5000 
    100 CA        -2.5235  -19.4361  -54.8872 C.3       18 UNK         0.1400 
    101 CB        -2.4360  -18.3408  -53.8072 C.3       18 UNK        -0.1800 
    102 C         -3.9632  -19.8407  -55.2133 C.2       18 UNK         0.5000 
    103 O         -4.8590  -19.6663  -54.3837 O.2       18 UNK        -0.5000 
    104 N         -4.1516  -20.4616  -56.3848 N.am      19 UNK        -0.5000 
    105 CA        -5.3991  -21.0985  -56.8294 C.3       19 UNK         0.1400 
    106 CB        -5.1688  -21.7347  -58.2085 C.3       19 UNK        -0.1800 
    107 C         -6.6299  -20.1703  -56.8661 C.2       19 UNK         0.5000 
    108 O         -7.7514  -20.6430  -56.6795 O.2       19 UNK        -0.5000 
    109 N         -6.3986  -18.8697  -57.0862 N.am      20 UNK        -0.5000 
    110 CA        -7.4267  -17.8289  -57.0639 C.3       20 UNK         0.1400 
    111 CB        -6.8768  -16.5759  -57.7631 C.3       20 UNK        -0.1800 
    112 C         -7.9117  -17.4796  -55.6419 C.2       20 UNK         0.5000 
    113 O         -9.0308  -16.9856  -55.4969 O.2       20 UNK        -0.5000 
    114 N         -7.0685  -17.7210  -54.6290 N.am      21 UNK        -0.5000 
    115 CA        -7.3525  -17.4342  -53.2250 C.3       21 UNK         0.1400 
    116 CB        -6.0808  -16.8929  -52.5473 C.3       21 UNK        -0.1800 
    117 C         -7.8665  -18.6851  -52.4973 C.2       21 UNK         0.5000 
    118 O         -8.9238  -18.6309  -51.8674 O.2       21 UNK        -0.5000 
    119 N         -7.1042  -19.7802  -52.5888 N.am      22 UNK        -0.5000 
    120 CA        -7.3169  -21.0232  -51.8279 C.3       22 UNK         0.1400 
    121 C         -6.5129  -22.2558  -52.3345 C.2       22 UNK         0.5000 
    122 N         -5.6086  -22.1245  -53.2954 N.am      22 UNK        -0.7600 
    123 O         -6.7212  -23.3636  -51.8490 O.2       22 UNK        -0.5000 
    124 C124       -7.1947  -20.8302  -50.2822 C.3       23 UNK        -0.0398 
    125 S125       -5.7944  -19.8356  -49.6320 S.3       23 UNK        -0.2404 
    126 C126       -4.3759  -20.2524  -50.7019 C.3       23 UNK        -0.0205 
    127 H127       -0.8350  -12.7180  -44.8122 H         1 UNK         0.0600 
    128 H128       -2.0170  -13.1998  -46.0349 H         1 UNK         0.0600 
    129 H129       -1.7131  -11.4891  -45.7289 H         1 UNK         0.0600 
    130 H130       -0.9391  -14.0499  -47.7910 H         1 UNK         0.3000 
    131 H131        0.6903  -12.6499  -49.5037 H         1 UNK         0.0600 
    132 H132        0.9884  -14.6948  -50.7473 H         1 UNK         0.0800 
    133 H133        0.7861  -15.6994  -49.3465 H         1 UNK         0.0800 
    134 H134       -2.8438  -15.9382  -48.6374 H         1 UNK         0.0800 
    135 H135       -1.1984  -16.1568  -48.1149 H         1 UNK         0.0800 
    136 H136       -3.9731  -17.6901  -49.7494 H         1 UNK         0.1150 
    137 H137       -1.8729  -21.2540  -50.8396 H         1 UNK         0.1150 
    138 H138        0.3028  -17.8372  -49.4878 H         1 UNK         0.1150 
    139 H139        0.4265  -21.4920  -50.4402 H         1 UNK         0.0800 
    140 H140        1.0451  -20.1569  -51.3713 H         1 UNK         0.0800 
    141 H141        0.1896  -19.6782  -47.5634 H         1 UNK         0.0800 
    142 H142        1.7630  -19.7218  -46.8583 H         1 UNK         0.0800 
    143 H143        1.7274  -22.3115  -47.2332 H         1 UNK         0.0600 
    144 H144        0.8383  -20.7672  -45.0744 H         1 UNK         0.3000 
    145 H145       -0.1001  -23.3773  -42.8072 H         1 UNK         0.0600 
    146 H146        1.5071  -22.0863  -41.4277 H         1 UNK         0.0600 
    147 H147        2.3562  -23.0639  -42.6160 H         1 UNK         0.0600 
    148 H148        2.1817  -21.3334  -42.8699 H         1 UNK         0.0600 
    149 H149       -0.2021  -20.5465  -42.5475 H         1 UNK         0.3000 
    150 H150       -3.5179  -20.1106  -43.8732 H         1 UNK         0.0600 
    151 H151       -3.7561  -20.7734  -41.4790 H         1 UNK         0.0600 
    152 H152       -3.7778  -19.0262  -41.6647 H         1 UNK         0.0600 
    153 H153       -2.3307  -19.8308  -41.0623 H         1 UNK         0.0600 
    154 H154       -1.6824  -18.2039  -42.8633 H         1 UNK         0.3000 
    155 H155        0.0495  -17.5671  -45.9580 H         1 UNK         0.0600 
    156 H156       -1.8166  -15.8876  -44.2054 H         1 UNK         0.0600 
    157 H157       -0.6601  -15.2893  -45.3898 H         1 UNK         0.0600 
    158 H158       -2.0704  -16.2063  -45.9118 H         1 UNK         0.0600 
    159 H159        0.4282  -16.4524  -43.3779 H         1 UNK         0.3000 
    160 H160        2.7214  -18.9178  -42.1171 H         1 UNK         0.0600 
    161 H161        3.0568  -15.9930  -42.9642 H         1 UNK         0.0600 
    162 H162        4.0929  -17.3396  -43.4284 H         1 UNK         0.0600 
    163 H163        4.0251  -16.8291  -41.7518 H         1 UNK         0.0600 
    164 H164        1.5313  -16.5159  -41.0463 H         1 UNK         0.3000 
    165 H165       -1.1989  -18.1266  -39.4295 H         1 UNK         0.0600 
    166 H166       -0.1473  -17.0731  -37.4463 H         1 UNK         0.0600 
    167 H167        0.7502  -18.5085  -37.9138 H         1 UNK         0.0600 
    168 H168        1.3854  -16.9147  -38.3047 H         1 UNK         0.0600 
    169 H169       -0.2410  -15.4256  -39.4459 H         1 UNK         0.3000 
    170 H170       -2.0653  -14.3342  -42.3123 H         1 UNK         0.0600 
    171 H171       -3.7250  -14.3610  -40.4456 H         1 UNK         0.0600 
    172 H172       -2.4876  -13.8127  -39.3212 H         1 UNK         0.0600 
    173 H173       -3.0092  -12.7699  -40.6448 H         1 UNK         0.0600 
    174 H174       -0.4681  -12.9043  -40.4555 H         1 UNK         0.3000 
    175 H175        1.3833  -11.9009  -41.2650 H         1 UNK         0.0600 
    176 H176        3.2339  -14.3617  -41.2157 H         1 UNK         0.0600 
    177 H177        3.6069  -12.7762  -40.5506 H         1 UNK         0.0600 
    178 H178        2.3382  -13.7513  -39.8290 H         1 UNK         0.0600 
    179 H179        2.1207  -13.1366  -43.7531 H         1 UNK         0.3000 
    180 H180        2.7977  -10.4643  -45.1314 H         1 UNK         0.0600 
    181 H181        5.6891  -11.1754  -44.4328 H         1 UNK         0.0600 
    182 H182        4.9522   -9.5825  -44.3966 H         1 UNK         0.0600 
    183 H183        5.1749  -10.4016  -45.9324 H         1 UNK         0.0600 
    184 H184        2.6042  -12.3003  -46.2758 H         1 UNK         0.3000 
    185 H185        4.5401  -14.5441  -47.4166 H         1 UNK         0.0600 
    186 H186        4.6569  -16.2223  -45.5607 H         1 UNK         0.0600 
    187 H187        2.9141  -16.0762  -45.3287 H         1 UNK         0.0600 
    188 H188        3.5569  -16.7344  -46.8278 H         1 UNK         0.0600 
    189 H189        1.6469  -14.6764  -46.8101 H         1 UNK         0.3000 
    190 H190       -1.5900  -21.1003  -46.5561 H         1 UNK         0.3000 
    191 H191       -2.9072  -22.2694  -48.7396 H         1 UNK         0.0600 
    192 H192       -3.9876  -21.5806  -45.9575 H         1 UNK         0.0600 
    193 H193       -4.9595  -21.8423  -47.3997 H         1 UNK         0.0600 
    194 H194       -3.8599  -20.4724  -47.3200 H         1 UNK         0.0600 
    195 H195       -2.2971  -23.6102  -45.4791 H         1 UNK         0.3000 
    196 H196       -3.7794  -26.0301  -45.8863 H         1 UNK         0.0600 
    197 H197       -2.6624  -26.7224  -43.7590 H         1 UNK         0.0600 
    198 H198       -3.3507  -25.1099  -43.6378 H         1 UNK         0.0600 
    199 H199       -1.6131  -25.3115  -43.8429 H         1 UNK         0.0600 
    200 H200       -0.2322  -25.3247  -45.9844 H         1 UNK         0.3000 
    201 H201        0.4013  -28.1021  -46.4902 H         1 UNK         0.0600 
    202 H202        1.8129  -26.6394  -45.0613 H         1 UNK         0.0600 
    203 H203        2.1970  -25.6256  -46.4513 H         1 UNK         0.0600 
    204 H204        2.7336  -27.2996  -46.4049 H         1 UNK         0.0600 
    205 H205        0.4930  -25.1068  -48.4953 H         1 UNK         0.3000 
    206 H206        1.5417  -26.7037  -50.8008 H         1 UNK         0.0600 
    207 H207        2.9986  -24.8634  -50.0207 H         1 UNK         0.0600 
    208 H208        2.3678  -24.5274  -51.6235 H         1 UNK         0.0600 
    209 H209        1.6941  -23.7004  -50.2249 H         1 UNK         0.0600 
    210 H210       -0.8476  -24.1964  -49.9141 H         1 UNK         0.3000 
    211 H211       -2.6996  -23.3947  -50.8355 H         1 UNK         0.0600 
    212 H212       -2.9620  -25.9813  -52.4423 H         1 UNK         0.0600 
    213 H213       -4.2391  -24.8374  -52.0570 H         1 UNK         0.0600 
    214 H214       -3.4921  -25.7710  -50.7733 H         1 UNK         0.0600 
    215 H215       -0.0682  -23.0063  -52.1377 H         1 UNK         0.3000 
    216 H216       -0.3466  -22.9149  -54.9725 H         1 UNK         0.0600 
    217 H217        1.9792  -22.0438  -54.8574 H         1 UNK         0.0600 
    218 H218        1.7737  -23.4393  -53.8174 H         1 UNK         0.0600 
    219 H219        1.8287  -21.8210  -53.1179 H         1 UNK         0.0600 
    220 H220       -2.4454  -21.4470  -54.2454 H         1 UNK         0.3000 
    221 H221       -2.0582  -19.0631  -55.8018 H         1 UNK         0.0600 
    222 H222       -2.8767  -18.6657  -52.8679 H         1 UNK         0.0600 
    223 H223       -1.4030  -18.0575  -53.6061 H         1 UNK         0.0600 
    224 H224       -2.9650  -17.4406  -54.1215 H         1 UNK         0.0600 
    225 H225       -3.3553  -20.5843  -56.9937 H         1 UNK         0.3000 
    226 H226       -5.6248  -21.9005  -56.1244 H         1 UNK         0.0600 
    227 H227       -4.3731  -22.4790  -58.1721 H         1 UNK         0.0600 
    228 H228       -6.0682  -22.2411  -58.5617 H         1 UNK         0.0600 
    229 H229       -4.8976  -20.9875  -58.9555 H         1 UNK         0.0600 
    230 H230       -5.4473  -18.5702  -57.2411 H         1 UNK         0.3000 
    231 H231       -8.2911  -18.1828  -57.6300 H         1 UNK         0.0600 
    232 H232       -7.6267  -15.7843  -57.7932 H         1 UNK         0.0600 
    233 H233       -6.5926  -16.7913  -58.7933 H         1 UNK         0.0600 
    234 H234       -6.0011  -16.1789  -57.2480 H         1 UNK         0.0600 
    235 H235       -6.1956  -18.1965  -54.8220 H         1 UNK         0.3000 
    236 H236       -8.1203  -16.6614  -53.1475 H         1 UNK         0.0600 
    237 H237       -5.7520  -15.9645  -53.0141 H         1 UNK         0.0600 
    238 H238       -6.2610  -16.6813  -51.4926 H         1 UNK         0.0600 
    239 H239       -5.2538  -17.6014  -52.5991 H         1 UNK         0.0600 
    240 H240       -6.2676  -19.7377  -53.1599 H         1 UNK         0.3000 
    241 H241       -8.3518  -21.3088  -52.0252 H         1 UNK         0.0600 
    242 H242       -5.4015  -21.2266  -53.7180 H         1 UNK         0.3800 
    243 H243       -5.0754  -22.9332  -53.5793 H         1 UNK         0.3800 
    244 H244       -8.1011  -20.3407  -49.9250 H         1 UNK         0.0800 
    245 H245       -7.1889  -21.7927  -49.7679 H         1 UNK         0.0800 
    246 H246       -4.5939  -19.9673  -51.7279 H         1 UNK         0.0800 
    247 H247       -4.2441  -21.3347  -50.6906 H         1 UNK         0.0800 
@<TRIPOS>BOND
     1    1    2 1    
     2    1  127 1    
     3    1  128 1    
     4    1  129 1    
     5    2    3 2    
     6    2    4 am   BACKBONE|DICT|INTERRES
     7    4    5 1    
     8    4  130 1    
     9    5    6 1    
    10    5   65 1    
    11    5  131 1    
    12    6    7 1    
    13    6  132 1    
    14    6  133 1    
    15    7    8 1    
    16    8    9 1    
    17    8  134 1    
    18    8  135 1    
    19    9   10 ar   
    20    9   14 ar   
    21   10   11 ar   
    22   10  136 1    
    23   11   12 ar   
    24   11  126 1    
    25   12   13 ar   
    26   12  137 1    
    27   13   14 ar   
    28   13   15 1    
    29   14  138 1    
    30   15   16 1    
    31   15  139 1    
    32   15  140 1    
    33   16   17 1    
    34   17   18 1    
    35   17  141 1    
    36   17  142 1    
    37   18   19 1    
    38   18   67 1    
    39   18  143 1    
    40   19   20 am   BACKBONE|DICT|INTERRES
    41   19  144 1    
    42   20   21 2    
    43   20   22 1    
    44   22   23 1    
    45   22   24 1    
    46   22  145 1    
    47   23  146 1    
    48   23  147 1    
    49   23  148 1    
    50   24   25 am   BACKBONE|DICT|INTERRES
    51   24  149 1    
    52   25   26 2    
    53   25   27 1    
    54   27   28 1    
    55   27   29 1    
    56   27  150 1    
    57   28  151 1    
    58   28  152 1    
    59   28  153 1    
    60   29   30 am   BACKBONE|DICT|INTERRES
    61   29  154 1    
    62   30   31 2    
    63   30   32 1    
    64   32   33 1    
    65   32   34 1    
    66   32  155 1    
    67   33  156 1    
    68   33  157 1    
    69   33  158 1    
    70   34   35 am   BACKBONE|DICT|INTERRES
    71   34  159 1    
    72   35   36 2    
    73   35   37 1    
    74   37   38 1    
    75   37   39 1    
    76   37  160 1    
    77   38  161 1    
    78   38  162 1    
    79   38  163 1    
    80   39   40 am   BACKBONE|DICT|INTERRES
    81   39  164 1    
    82   40   41 2    
    83   40   42 1    
    84   42   43 1    
    85   42   44 1    
    86   42  165 1    
    87   43  166 1    
    88   43  167 1    
    89   43  168 1    
    90   44   45 am   BACKBONE|DICT|INTERRES
    91   44  169 1    
    92   45   46 2    
    93   45   47 1    
    94   47   48 1    
    95   47   49 1    
    96   47  170 1    
    97   48  171 1    
    98   48  172 1    
    99   48  173 1    
   100   49   50 am   BACKBONE|DICT|INTERRES
   101   49  174 1    
   102   50   51 2    
   103   50   52 1    
   104   52   53 1    
   105   52   54 1    
   106   52  175 1    
   107   53  176 1    
   108   53  177 1    
   109   53  178 1    
   110   54   55 am   BACKBONE|DICT|INTERRES
   111   54  179 1    
   112   55   56 2    
   113   55   57 1    
   114   57   58 1    
   115   57   59 1    
   116   57  180 1    
   117   58  181 1    
   118   58  182 1    
   119   58  183 1    
   120   59   60 am   BACKBONE|DICT|INTERRES
   121   59  184 1    
   122   60   61 2    
   123   60   62 1    
   124   62   63 1    
   125   62   64 1    
   126   62  185 1    
   127   63  186 1    
   128   63  187 1    
   129   63  188 1    
   130   64   65 am   BACKBONE|DICT|INTERRES
   131   64  189 1    
   132   65   66 2    
   133   67   68 2    
   134   67   69 am   BACKBONE|DICT|INTERRES
   135   69   70 1    
   136   69  190 1    
   137   70   71 1    
   138   70   72 1    
   139   70  191 1    
   140   71  192 1    
   141   71  193 1    
   142   71  194 1    
   143   72   73 2    
   144   72   74 am   BACKBONE|DICT|INTERRES
   145   74   75 1    
   146   74  195 1    
   147   75   76 1    
   148   75   77 1    
   149   75  196 1    
   150   76  197 1    
   151   76  198 1    
   152   76  199 1    
   153   77   78 2    
   154   77   79 am   BACKBONE|DICT|INTERRES
   155   79   80 1    
   156   79  200 1    
   157   80   81 1    
   158   80   82 1    
   159   80  201 1    
   160   81  202 1    
   161   81  203 1    
   162   81  204 1    
   163   82   83 2    
   164   82   84 am   BACKBONE|DICT|INTERRES
   165   84   85 1    
   166   84  205 1    
   167   85   86 1    
   168   85   87 1    
   169   85  206 1    
   170   86  207 1    
   171   86  208 1    
   172   86  209 1    
   173   87   88 2    
   174   87   89 am   BACKBONE|DICT|INTERRES
   175   89   90 1    
   176   89  210 1    
   177   90   91 1    
   178   90   92 1    
   179   90  211 1    
   180   91  212 1    
   181   91  213 1    
   182   91  214 1    
   183   92   93 2    
   184   92   94 am   BACKBONE|DICT|INTERRES
   185   94   95 1    
   186   94  215 1    
   187   95   96 1    
   188   95   97 1    
   189   95  216 1    
   190   96  217 1    
   191   96  218 1    
   192   96  219 1    
   193   97   98 2    
   194   97   99 am   BACKBONE|DICT|INTERRES
   195   99  100 1    
   196   99  220 1    
   197  100  101 1    
   198  100  102 1    
   199  100  221 1    
   200  101  222 1    
   201  101  223 1    
   202  101  224 1    
   203  102  103 2    
   204  102  104 am   BACKBONE|DICT|INTERRES
   205  104  105 1    
   206  104  225 1    
   207  105  106 1    
   208  105  107 1    
   209  105  226 1    
   210  106  227 1    
   211  106  228 1    
   212  106  229 1    
   213  107  108 2    
   214  107  109 am   BACKBONE|DICT|INTERRES
   215  109  110 1    
   216  109  230 1    
   217  110  111 1    
   218  110  112 1    
   219  110  231 1    
   220  111  232 1    
   221  111  233 1    
   222  111  234 1    
   223  112  113 2    
   224  112  114 am   BACKBONE|DICT|INTERRES
   225  114  115 1    
   226  114  235 1    
   227  115  116 1    
   228  115  117 1    
   229  115  236 1    
   230  116  237 1    
   231  116  238 1    
   232  116  239 1    
   233  117  118 2    
   234  117  119 am   BACKBONE|DICT|INTERRES
   235  119  120 1    
   236  119  240 1    
   237  120  121 1    
   238  120  124 1    
   239  120  241 1    
   240  121  122 am   BACKBONE|DICT|INTERRES
   241  121  123 2    
   242  122  242 1    
   243  122  243 1    
   244  124  125 1    
   245  124  244 1    
   246  124  245 1    
   247  125  126 1    
   248  126  246 1    
   249  126  247 1    
@<TRIPOS>SUBSTRUCTURE
     1 UNK         1 GROUP             0       ****    0 ROOT    
