@<TRIPOS>MOLECULE
3R540
247   249    1
SMALL
USER_CHARGES


@<TRIPOS>ATOM
      1 CA         -0.3825  -12.0679  -47.5048 C.3       0 UNK        -0.1800 
      2 C           0.9883  -12.3402  -48.1090 C.2       0 UNK         0.5000 
      3 O           1.8055  -11.4260  -48.2144 O.2       0 UNK        -0.5000 
      4 N           1.2378  -13.5934  -48.5109 N.am      1 UNK        -0.5000 
      5 CA          2.5086  -14.0590  -49.0869 C.3       1 UNK         0.1400 
      6 C6          2.3800  -15.4525  -49.7555 C.3       23 UNK        -0.0398 
      7 S7          0.9737  -15.5864  -50.9142 S.3       23 UNK        -0.2404 
      8 C8         -0.0462  -16.8589  -50.1014 C.3       23 UNK        -0.0205 
      9 C9          0.3446  -18.2640  -50.5350 C.ar      23 UNK        -0.0193 
     10 C10        -0.3846  -18.9044  -51.5389 C.ar      23 UNK        -0.1150 
     11 C11        -0.0531  -20.1996  -51.9402 C.ar      23 UNK        -0.0193 
     12 C12         0.9987  -20.8643  -51.3072 C.ar      23 UNK        -0.1150 
     13 C13         1.7257  -20.2524  -50.2819 C.ar      23 UNK        -0.0193 
     14 C14         1.4103  -18.9349  -49.9250 C.ar      23 UNK        -0.1150 
     15 C15         2.8412  -21.0620  -49.6155 C.3       23 UNK        -0.0205 
     16 S16         3.3983  -20.5385  -47.9505 S.3       23 UNK        -0.2404 
     17 C17         1.8868  -20.3287  -46.9451 C.3       23 UNK        -0.0398 
     18 CA          1.1160  -21.6151  -46.5523 C.3       11 UNK         0.1400 
     19 N           0.3554  -21.4059  -45.3148 N.am      11 UNK        -0.5000 
     20 C          -0.3963  -22.3172  -44.6817 C.2       10 UNK         0.5000 
     21 O          -0.4761  -23.4969  -45.0204 O.2       10 UNK        -0.5000 
     22 CA         -1.2499  -21.8108  -43.5034 C.3       10 UNK         0.1400 
     23 CB         -0.4172  -21.7254  -42.2159 C.3       10 UNK        -0.1800 
     24 N          -1.8803  -20.5166  -43.7771 N.am      10 UNK        -0.5000 
     25 C          -2.7900  -20.3085  -44.7412 C.2       9 UNK         0.5000 
     26 O          -3.2258  -21.1977  -45.4701 O.2       9 UNK        -0.5000 
     27 CA         -3.2594  -18.8607  -44.9660 C.3       9 UNK         0.1400 
     28 CB         -4.3283  -18.4639  -43.9373 C.3       9 UNK        -0.1800 
     29 N          -2.1553  -17.9028  -44.9307 N.am      9 UNK        -0.5000 
     30 C          -1.1407  -17.8813  -45.8061 C.2       8 UNK         0.5000 
     31 O          -1.0588  -18.6326  -46.7775 O.2       8 UNK        -0.5000 
     32 CA          0.0022  -16.8910  -45.5160 C.3       8 UNK         0.1400 
     33 CB         -0.3646  -15.4760  -45.9846 C.3       8 UNK        -0.1800 
     34 N           0.3675  -16.8580  -44.0992 N.am      8 UNK        -0.5000 
     35 C           0.8688  -17.8990  -43.4187 C.2       7 UNK         0.5000 
     36 O           1.1163  -18.9907  -43.9270 O.2       7 UNK        -0.5000 
     37 CA          1.0732  -17.7085  -41.9066 C.3       7 UNK         0.1400 
     38 CB          2.4008  -16.9976  -41.6028 C.3       7 UNK        -0.1800 
     39 N          -0.0353  -16.9741  -41.2993 N.am      7 UNK        -0.5000 
     40 C          -1.2755  -17.4641  -41.1603 C.2       6 UNK         0.5000 
     41 O          -1.6005  -18.6062  -41.4851 O.2       6 UNK        -0.5000 
     42 CA         -2.3380  -16.4960  -40.6091 C.3       6 UNK         0.1400 
     43 CB         -2.2901  -16.4541  -39.0746 C.3       6 UNK        -0.1800 
     44 N          -2.1825  -15.1395  -41.1380 N.am      6 UNK        -0.5000 
     45 C          -2.3685  -14.8037  -42.4227 C.2       5 UNK         0.5000 
     46 O          -2.7359  -15.5967  -43.2879 O.2       5 UNK        -0.5000 
     47 CA         -2.0397  -13.3517  -42.8157 C.3       5 UNK         0.1400 
     48 CB         -3.2637  -12.4466  -42.6150 C.3       5 UNK        -0.1800 
     49 N          -0.8994  -12.8019  -42.0775 N.am      5 UNK        -0.5000 
     50 C           0.3551  -13.2599  -42.1712 C.2       4 UNK         0.5000 
     51 O           0.6881  -14.2114  -42.8836 O.2       4 UNK        -0.5000 
     52 CA          1.3978  -12.5759  -41.2802 C.3       4 UNK         0.1400 
     53 CB          1.4492  -13.2431  -39.8957 C.3       4 UNK        -0.1800 
     54 N           2.7041  -12.6841  -41.9177 N.am      4 UNK        -0.5000 
     55 C           3.6428  -11.7310  -41.9318 C.2       3 UNK         0.5000 
     56 O           3.5308  -10.6591  -41.3346 O.2       3 UNK        -0.5000 
     57 CA          4.9306  -12.0072  -42.7391 C.3       3 UNK         0.1400 
     58 CB          6.1114  -12.2652  -41.7893 C.3       3 UNK        -0.1800 
     59 N           4.8373  -13.1278  -43.6811 N.am      3 UNK        -0.5000 
     60 C           4.0769  -13.1521  -44.7832 C.2       2 UNK         0.5000 
     61 O           3.3445  -12.2208  -45.1247 O.2       2 UNK        -0.5000 
     62 CA          4.1401  -14.4465  -45.6153 C.3       2 UNK         0.1400 
     63 CB          3.6893  -15.6581  -44.7817 C.3       2 UNK        -0.1800 
     64 N           3.2619  -14.3529  -46.7768 N.am      2 UNK        -0.5000 
     65 C           3.6407  -14.1052  -48.0360 C.2       1 UNK         0.5000 
     66 O           4.8105  -13.9445  -48.3868 O.2       1 UNK        -0.5000 
     67 C           0.1926  -22.0903  -47.6936 C.2       11 UNK         0.5000 
     68 O           0.4486  -23.1334  -48.2962 O.2       11 UNK        -0.5000 
     69 N          -0.8900  -21.3375  -47.9353 N.am      12 UNK        -0.5000 
     70 CA         -1.8903  -21.6309  -48.9590 C.3       12 UNK         0.1400 
     71 CB         -2.8550  -20.4432  -49.0757 C.3       12 UNK        -0.1800 
     72 C          -2.6396  -22.9520  -48.7059 C.2       12 UNK         0.5000 
     73 O          -2.8745  -23.7044  -49.6513 O.2       12 UNK        -0.5000 
     74 N          -2.9667  -23.2372  -47.4382 N.am      13 UNK        -0.5000 
     75 CA         -3.5743  -24.4935  -47.0007 C.3       13 UNK         0.1400 
     76 CB         -4.0362  -24.3721  -45.5419 C.3       13 UNK        -0.1800 
     77 C          -2.6445  -25.7046  -47.1881 C.2       13 UNK         0.5000 
     78 O          -3.1019  -26.7392  -47.6729 O.2       13 UNK        -0.5000 
     79 N          -1.3541  -25.5499  -46.8575 N.am      14 UNK        -0.5000 
     80 CA         -0.3142  -26.5606  -47.0772 C.3       14 UNK         0.1400 
     81 CB          0.9857  -26.1257  -46.3838 C.3       14 UNK        -0.1800 
     82 C          -0.0681  -26.8500  -48.5708 C.2       14 UNK         0.5000 
     83 O           0.1877  -27.9978  -48.9358 O.2       14 UNK        -0.5000 
     84 N          -0.1987  -25.8138  -49.4091 N.am      15 UNK        -0.5000 
     85 CA         -0.1640  -25.8968  -50.8702 C.3       15 UNK         0.1400 
     86 CB          0.1607  -24.5033  -51.4290 C.3       15 UNK        -0.1800 
     87 C          -1.4658  -26.4486  -51.4940 C.2       15 UNK         0.5000 
     88 O          -1.4949  -26.6711  -52.7050 O.2       15 UNK        -0.5000 
     89 N          -2.5084  -26.6546  -50.6735 N.am      16 UNK        -0.5000 
     90 CA         -3.8519  -27.1263  -51.0253 C.3       16 UNK         0.1400 
     91 CB         -3.8083  -28.5777  -51.5474 C.3       16 UNK        -0.1800 
     92 C          -4.6017  -26.1596  -51.9662 C.2       16 UNK         0.5000 
     93 O          -5.3187  -26.5996  -52.8671 O.2       16 UNK        -0.5000 
     94 N          -4.4250  -24.8545  -51.7330 N.am      17 UNK        -0.5000 
     95 CA         -4.9955  -23.7655  -52.5200 C.3       17 UNK         0.1400 
     96 CB         -3.9853  -23.3414  -53.6021 C.3       17 UNK        -0.1800 
     97 C          -5.3947  -22.6084  -51.5895 C.2       17 UNK         0.5000 
     98 O          -5.1154  -21.4518  -51.8967 O.2       17 UNK        -0.5000 
     99 N          -6.0286  -22.9427  -50.4548 N.am      18 UNK        -0.5000 
    100 CA        -6.3423  -22.0456  -49.3334 C.3       18 UNK         0.1400 
    101 CB        -7.1026  -22.8416  -48.2612 C.3       18 UNK        -0.1800 
    102 C         -7.1287  -20.7677  -49.6913 C.2       18 UNK         0.5000 
    103 O         -6.9713  -19.7515  -49.0141 O.2       18 UNK        -0.5000 
    104 N         -7.9633  -20.8460  -50.7337 N.am      19 UNK        -0.5000 
    105 CA        -8.8191  -19.7584  -51.2081 C.3       19 UNK         0.1400 
    106 CB       -10.1675  -20.3662  -51.6332 C.3       19 UNK        -0.1800 
    107 C         -8.1973  -18.9460  -52.3640 C.2       19 UNK         0.5000 
    108 O         -8.8708  -18.0557  -52.8865 O.2       19 UNK        -0.5000 
    109 N         -6.9625  -19.2633  -52.7752 N.am      20 UNK        -0.5000 
    110 CA        -6.3008  -18.6859  -53.9442 C.3       20 UNK         0.1400 
    111 CB        -6.4446  -19.6774  -55.1150 C.3       20 UNK        -0.1800 
    112 C         -4.8248  -18.3665  -53.6507 C.2       20 UNK         0.5000 
    113 O         -4.3424  -18.5846  -52.5380 O.2       20 UNK        -0.5000 
    114 N         -4.1263  -17.8585  -54.6717 N.am      21 UNK        -0.5000 
    115 CA        -2.6833  -17.6407  -54.6674 C.3       21 UNK         0.1400 
    116 CB        -2.3561  -16.2750  -54.0307 C.3       21 UNK        -0.1800 
    117 C         -2.1527  -17.7885  -56.1073 C.2       21 UNK         0.5000 
    118 O         -1.8055  -16.7819  -56.7241 O.2       21 UNK        -0.5000 
    119 N         -2.1149  -18.9953  -56.6915 N.am      22 UNK        -0.5000 
    120 CA        -2.5262  -20.3088  -56.1515 C.3       22 UNK         0.1400 
    121 C         -3.5430  -21.0370  -57.0811 C.2       22 UNK         0.5000 
    122 N         -4.1100  -20.3845  -58.0893 N.am      22 UNK        -0.7600 
    123 O         -3.8400  -22.2103  -56.8808 O.2       22 UNK        -0.5000 
    124 C124       -1.3129  -21.2177  -55.8109 C.3       23 UNK        -0.0398 
    125 S125       -0.1173  -20.4435  -54.6723 S.3       23 UNK        -0.2404 
    126 C126       -0.8276  -20.8784  -53.0565 C.3       23 UNK        -0.0205 
    127 H127       -0.2848  -11.8484  -46.4414 H         1 UNK         0.0600 
    128 H128       -1.0529  -12.9201  -47.6171 H         1 UNK         0.0600 
    129 H129       -0.8446  -11.2087  -47.9911 H         1 UNK         0.0600 
    130 H130        0.5027  -14.2822  -48.4659 H         1 UNK         0.3000 
    131 H131        2.8047  -13.3429  -49.8566 H         1 UNK         0.0600 
    132 H132        3.2896  -15.6859  -50.3120 H         1 UNK         0.0800 
    133 H133        2.2932  -16.2255  -48.9919 H         1 UNK         0.0800 
    134 H134        0.0163  -16.7734  -49.0163 H         1 UNK         0.0800 
    135 H135       -1.0918  -16.6734  -50.3524 H         1 UNK         0.0800 
    136 H136       -1.2096  -18.3906  -52.0099 H         1 UNK         0.1150 
    137 H137        1.2527  -21.8674  -51.6159 H         1 UNK         0.1150 
    138 H138        1.9813  -18.4345  -49.1593 H         1 UNK         0.1150 
    139 H139        2.5442  -22.1095  -49.5543 H         1 UNK         0.0800 
    140 H140        3.7081  -21.0402  -50.2768 H         1 UNK         0.0800 
    141 H141        1.2265  -19.5903  -47.3919 H         1 UNK         0.0800 
    142 H142        2.2505  -19.8494  -46.0369 H         1 UNK         0.0800 
    143 H143        1.8384  -22.4083  -46.3506 H         1 UNK         0.0600 
    144 H144        0.4000  -20.4716  -44.9173 H         1 UNK         0.3000 
    145 H145       -2.0480  -22.5372  -43.3382 H         1 UNK         0.0600 
    146 H146       -1.0343  -21.4312  -41.3668 H         1 UNK         0.0600 
    147 H147        0.0282  -22.6915  -41.9757 H         1 UNK         0.0600 
    148 H148        0.3942  -21.0036  -42.3048 H         1 UNK         0.0600 
    149 H149       -1.6069  -19.7404  -43.1837 H         1 UNK         0.3000 
    150 H150       -3.7109  -18.8101  -45.9591 H         1 UNK         0.0600 
    151 H151       -5.1699  -19.1572  -43.9619 H         1 UNK         0.0600 
    152 H152       -4.7210  -17.4679  -44.1426 H         1 UNK         0.0600 
    153 H153       -3.9319  -18.4635  -42.9219 H         1 UNK         0.0600 
    154 H154       -2.1833  -17.2029  -44.1947 H         1 UNK         0.3000 
    155 H155        0.8793  -17.2193  -46.0778 H         1 UNK         0.0600 
    156 H156       -1.2532  -15.1019  -45.4775 H         1 UNK         0.0600 
    157 H157       -0.5757  -15.4632  -47.0533 H         1 UNK         0.0600 
    158 H158        0.4448  -14.7720  -45.7939 H         1 UNK         0.0600 
    159 H159        0.2386  -15.9763  -43.6123 H         1 UNK         0.3000 
    160 H160        1.1138  -18.7006  -41.4519 H         1 UNK         0.0600 
    161 H161        2.4140  -15.9755  -41.9780 H         1 UNK         0.0600 
    162 H162        3.2388  -17.5258  -42.0595 H         1 UNK         0.0600 
    163 H163        2.5880  -16.9595  -40.5296 H         1 UNK         0.0600 
    164 H164        0.1366  -16.0117  -41.0523 H         1 UNK         0.3000 
    165 H165       -3.3187  -16.8697  -40.9113 H         1 UNK         0.0600 
    166 H166       -3.0872  -15.8285  -38.6726 H         1 UNK         0.0600 
    167 H167       -2.4182  -17.4522  -38.6535 H         1 UNK         0.0600 
    168 H168       -1.3395  -16.0631  -38.7097 H         1 UNK         0.0600 
    169 H169       -1.8861  -14.4250  -40.4902 H         1 UNK         0.3000 
    170 H170       -1.7843  -13.3460  -43.8772 H         1 UNK         0.0600 
    171 H171       -4.1228  -12.8234  -43.1719 H         1 UNK         0.0600 
    172 H172       -3.5538  -12.3859  -41.5653 H         1 UNK         0.0600 
    173 H173       -3.0679  -11.4343  -42.9690 H         1 UNK         0.0600 
    174 H174       -1.0944  -12.0234  -41.4643 H         1 UNK         0.3000 
    175 H175        1.1177  -11.5261  -41.1699 H         1 UNK         0.0600 
    176 H176        1.7250  -14.2961  -39.9654 H         1 UNK         0.0600 
    177 H177        2.1773  -12.7509  -39.2507 H         1 UNK         0.0600 
    178 H178        0.4823  -13.1868  -39.3944 H         1 UNK         0.0600 
    179 H179        2.8300  -13.5083  -42.4887 H         1 UNK         0.3000 
    180 H180        5.1473  -11.1045  -43.3140 H         1 UNK         0.0600 
    181 H181        5.9599  -13.1682  -41.1966 H         1 UNK         0.0600 
    182 H182        6.2446  -11.4352  -41.0940 H         1 UNK         0.0600 
    183 H183        7.0455  -12.3762  -42.3404 H         1 UNK         0.0600 
    184 H184        5.4079  -13.9327  -43.4661 H         1 UNK         0.3000 
    185 H185        5.1736  -14.6004  -45.9323 H         1 UNK         0.0600 
    186 H186        3.6407  -16.5630  -45.3882 H         1 UNK         0.0600 
    187 H187        4.3775  -15.8599  -43.9606 H         1 UNK         0.0600 
    188 H188        2.7027  -15.4916  -44.3519 H         1 UNK         0.0600 
    189 H189        2.2731  -14.3675  -46.5809 H         1 UNK         0.3000 
    190 H190       -1.0226  -20.4795  -47.4070 H         1 UNK         0.3000 
    191 H191       -1.3671  -21.7329  -49.9102 H         1 UNK         0.0600 
    192 H192       -3.4435  -20.3081  -48.1678 H         1 UNK         0.0600 
    193 H193       -3.5455  -20.5808  -49.9073 H         1 UNK         0.0600 
    194 H194       -2.3143  -19.5151  -49.2624 H         1 UNK         0.0600 
    195 H195       -2.8014  -22.5371  -46.7190 H         1 UNK         0.3000 
    196 H196       -4.4553  -24.6673  -47.6200 H         1 UNK         0.0600 
    197 H197       -4.5088  -25.2948  -45.2030 H         1 UNK         0.0600 
    198 H198       -4.7666  -23.5710  -45.4265 H         1 UNK         0.0600 
    199 H199       -3.2021  -24.1638  -44.8719 H         1 UNK         0.0600 
    200 H200       -1.0563  -24.6816  -46.4199 H         1 UNK         0.3000 
    201 H201       -0.6502  -27.4901  -46.6131 H         1 UNK         0.0600 
    202 H202        0.8370  -26.0028  -45.3110 H         1 UNK         0.0600 
    203 H203        1.3575  -25.1803  -46.7795 H         1 UNK         0.0600 
    204 H204        1.7702  -26.8709  -46.5203 H         1 UNK         0.0600 
    205 H205       -0.3360  -24.8896  -49.0121 H         1 UNK         0.3000 
    206 H206        0.6432  -26.5728  -51.1591 H         1 UNK         0.0600 
    207 H207        1.1106  -24.1406  -51.0364 H         1 UNK         0.0600 
    208 H208        0.2427  -24.5210  -52.5164 H         1 UNK         0.0600 
    209 H209       -0.6095  -23.7776  -51.1684 H         1 UNK         0.0600 
    210 H210       -2.3816  -26.4324  -49.6941 H         1 UNK         0.3000 
    211 H211       -4.4201  -27.1342  -50.0944 H         1 UNK         0.0600 
    212 H212       -3.3103  -28.6476  -52.5147 H         1 UNK         0.0600 
    213 H213       -4.8149  -28.9792  -51.6693 H         1 UNK         0.0600 
    214 H214       -3.2823  -29.2305  -50.8507 H         1 UNK         0.0600 
    215 H215       -3.8227  -24.5633  -50.9628 H         1 UNK         0.3000 
    216 H216       -5.9126  -24.0963  -53.0112 H         1 UNK         0.0600 
    217 H217       -4.3789  -22.5268  -54.2103 H         1 UNK         0.0600 
    218 H218       -3.7567  -24.1671  -54.2759 H         1 UNK         0.0600 
    219 H219       -3.0489  -23.0024  -53.1591 H         1 UNK         0.0600 
    220 H220       -6.2229  -23.9216  -50.3037 H         1 UNK         0.3000 
    221 H221       -5.3947  -21.7274  -48.9000 H         1 UNK         0.0600 
    222 H222       -8.0612  -23.2032  -48.6353 H         1 UNK         0.0600 
    223 H223       -6.5311  -23.7033  -47.9206 H         1 UNK         0.0600 
    224 H224       -7.3042  -22.2236  -47.3850 H         1 UNK         0.0600 
    225 H225       -8.0112  -21.7155  -51.2443 H         1 UNK         0.3000 
    226 H226       -9.0120  -19.0573  -50.3935 H         1 UNK         0.0600 
    227 H227      -10.6290  -20.9146  -50.8118 H         1 UNK         0.0600 
    228 H228      -10.8723  -19.5912  -51.9371 H         1 UNK         0.0600 
    229 H229      -10.0521  -21.0528  -52.4728 H         1 UNK         0.0600 
    230 H230       -6.4117  -19.9488  -52.2645 H         1 UNK         0.3000 
    231 H231       -6.7738  -17.7415  -54.2209 H         1 UNK         0.0600 
    232 H232       -6.0391  -19.2704  -56.0413 H         1 UNK         0.0600 
    233 H233       -7.4921  -19.9122  -55.3049 H         1 UNK         0.0600 
    234 H234       -5.9267  -20.6151  -54.9095 H         1 UNK         0.0600 
    235 H235       -4.5881  -17.6897  -55.5549 H         1 UNK         0.3000 
    236 H236       -2.1968  -18.4069  -54.0658 H         1 UNK         0.0600 
    237 H237       -2.6744  -16.2391  -52.9887 H         1 UNK         0.0600 
    238 H238       -1.2820  -16.0857  -54.0450 H         1 UNK         0.0600 
    239 H239       -2.8455  -15.4557  -54.5583 H         1 UNK         0.0600 
    240 H240       -1.7592  -19.0401  -57.6350 H         1 UNK         0.3000 
    241 H241       -3.0812  -20.1808  -55.2253 H         1 UNK         0.0600 
    242 H242       -4.7672  -20.8704  -58.6796 H         1 UNK         0.3800 
    243 H243       -3.8989  -19.4165  -58.2725 H         1 UNK         0.3800 
    244 H244       -1.6442  -22.1615  -55.3737 H         1 UNK         0.0800 
    245 H245       -0.7772  -21.4815  -56.7240 H         1 UNK         0.0800 
    246 H246       -0.8038  -21.9614  -52.9299 H         1 UNK         0.0800 
    247 H247       -1.8776  -20.5836  -53.0126 H         1 UNK         0.0800 
@<TRIPOS>BOND
     1    1    2 1    
     2    1  127 1    
     3    1  128 1    
     4    1  129 1    
     5    2    3 2    
     6    2    4 am   BACKBONE|DICT|INTERRES
     7    4    5 1    
     8    4  130 1    
     9    5    6 1    
    10    5   65 1    
    11    5  131 1    
    12    6    7 1    
    13    6  132 1    
    14    6  133 1    
    15    7    8 1    
    16    8    9 1    
    17    8  134 1    
    18    8  135 1    
    19    9   10 ar   
    20    9   14 ar   
    21   10   11 ar   
    22   10  136 1    
    23   11   12 ar   
    24   11  126 1    
    25   12   13 ar   
    26   12  137 1    
    27   13   14 ar   
    28   13   15 1    
    29   14  138 1    
    30   15   16 1    
    31   15  139 1    
    32   15  140 1    
    33   16   17 1    
    34   17   18 1    
    35   17  141 1    
    36   17  142 1    
    37   18   19 1    
    38   18   67 1    
    39   18  143 1    
    40   19   20 am   BACKBONE|DICT|INTERRES
    41   19  144 1    
    42   20   21 2    
    43   20   22 1    
    44   22   23 1    
    45   22   24 1    
    46   22  145 1    
    47   23  146 1    
    48   23  147 1    
    49   23  148 1    
    50   24   25 am   BACKBONE|DICT|INTERRES
    51   24  149 1    
    52   25   26 2    
    53   25   27 1    
    54   27   28 1    
    55   27   29 1    
    56   27  150 1    
    57   28  151 1    
    58   28  152 1    
    59   28  153 1    
    60   29   30 am   BACKBONE|DICT|INTERRES
    61   29  154 1    
    62   30   31 2    
    63   30   32 1    
    64   32   33 1    
    65   32   34 1    
    66   32  155 1    
    67   33  156 1    
    68   33  157 1    
    69   33  158 1    
    70   34   35 am   BACKBONE|DICT|INTERRES
    71   34  159 1    
    72   35   36 2    
    73   35   37 1    
    74   37   38 1    
    75   37   39 1    
    76   37  160 1    
    77   38  161 1    
    78   38  162 1    
    79   38  163 1    
    80   39   40 am   BACKBONE|DICT|INTERRES
    81   39  164 1    
    82   40   41 2    
    83   40   42 1    
    84   42   43 1    
    85   42   44 1    
    86   42  165 1    
    87   43  166 1    
    88   43  167 1    
    89   43  168 1    
    90   44   45 am   BACKBONE|DICT|INTERRES
    91   44  169 1    
    92   45   46 2    
    93   45   47 1    
    94   47   48 1    
    95   47   49 1    
    96   47  170 1    
    97   48  171 1    
    98   48  172 1    
    99   48  173 1    
   100   49   50 am   BACKBONE|DICT|INTERRES
   101   49  174 1    
   102   50   51 2    
   103   50   52 1    
   104   52   53 1    
   105   52   54 1    
   106   52  175 1    
   107   53  176 1    
   108   53  177 1    
   109   53  178 1    
   110   54   55 am   BACKBONE|DICT|INTERRES
   111   54  179 1    
   112   55   56 2    
   113   55   57 1    
   114   57   58 1    
   115   57   59 1    
   116   57  180 1    
   117   58  181 1    
   118   58  182 1    
   119   58  183 1    
   120   59   60 am   BACKBONE|DICT|INTERRES
   121   59  184 1    
   122   60   61 2    
   123   60   62 1    
   124   62   63 1    
   125   62   64 1    
   126   62  185 1    
   127   63  186 1    
   128   63  187 1    
   129   63  188 1    
   130   64   65 am   BACKBONE|DICT|INTERRES
   131   64  189 1    
   132   65   66 2    
   133   67   68 2    
   134   67   69 am   BACKBONE|DICT|INTERRES
   135   69   70 1    
   136   69  190 1    
   137   70   71 1    
   138   70   72 1    
   139   70  191 1    
   140   71  192 1    
   141   71  193 1    
   142   71  194 1    
   143   72   73 2    
   144   72   74 am   BACKBONE|DICT|INTERRES
   145   74   75 1    
   146   74  195 1    
   147   75   76 1    
   148   75   77 1    
   149   75  196 1    
   150   76  197 1    
   151   76  198 1    
   152   76  199 1    
   153   77   78 2    
   154   77   79 am   BACKBONE|DICT|INTERRES
   155   79   80 1    
   156   79  200 1    
   157   80   81 1    
   158   80   82 1    
   159   80  201 1    
   160   81  202 1    
   161   81  203 1    
   162   81  204 1    
   163   82   83 2    
   164   82   84 am   BACKBONE|DICT|INTERRES
   165   84   85 1    
   166   84  205 1    
   167   85   86 1    
   168   85   87 1    
   169   85  206 1    
   170   86  207 1    
   171   86  208 1    
   172   86  209 1    
   173   87   88 2    
   174   87   89 am   BACKBONE|DICT|INTERRES
   175   89   90 1    
   176   89  210 1    
   177   90   91 1    
   178   90   92 1    
   179   90  211 1    
   180   91  212 1    
   181   91  213 1    
   182   91  214 1    
   183   92   93 2    
   184   92   94 am   BACKBONE|DICT|INTERRES
   185   94   95 1    
   186   94  215 1    
   187   95   96 1    
   188   95   97 1    
   189   95  216 1    
   190   96  217 1    
   191   96  218 1    
   192   96  219 1    
   193   97   98 2    
   194   97   99 am   BACKBONE|DICT|INTERRES
   195   99  100 1    
   196   99  220 1    
   197  100  101 1    
   198  100  102 1    
   199  100  221 1    
   200  101  222 1    
   201  101  223 1    
   202  101  224 1    
   203  102  103 2    
   204  102  104 am   BACKBONE|DICT|INTERRES
   205  104  105 1    
   206  104  225 1    
   207  105  106 1    
   208  105  107 1    
   209  105  226 1    
   210  106  227 1    
   211  106  228 1    
   212  106  229 1    
   213  107  108 2    
   214  107  109 am   BACKBONE|DICT|INTERRES
   215  109  110 1    
   216  109  230 1    
   217  110  111 1    
   218  110  112 1    
   219  110  231 1    
   220  111  232 1    
   221  111  233 1    
   222  111  234 1    
   223  112  113 2    
   224  112  114 am   BACKBONE|DICT|INTERRES
   225  114  115 1    
   226  114  235 1    
   227  115  116 1    
   228  115  117 1    
   229  115  236 1    
   230  116  237 1    
   231  116  238 1    
   232  116  239 1    
   233  117  118 2    
   234  117  119 am   BACKBONE|DICT|INTERRES
   235  119  120 1    
   236  119  240 1    
   237  120  121 1    
   238  120  124 1    
   239  120  241 1    
   240  121  122 am   BACKBONE|DICT|INTERRES
   241  121  123 2    
   242  122  242 1    
   243  122  243 1    
   244  124  125 1    
   245  124  244 1    
   246  124  245 1    
   247  125  126 1    
   248  126  246 1    
   249  126  247 1    
@<TRIPOS>SUBSTRUCTURE
     1 UNK         1 GROUP             0       ****    0 ROOT    
