@<TRIPOS>MOLECULE
3R540
247   249    1
SMALL
USER_CHARGES


@<TRIPOS>ATOM
      1 CA          2.3711  -10.4234  -51.0952 C.3       0 UNK        -0.1800 
      2 C           2.3892  -11.8258  -50.5036 C.2       0 UNK         0.5000 
      3 O           2.8134  -12.7652  -51.1759 O.2       0 UNK        -0.5000 
      4 N           1.9250  -11.9616  -49.2548 N.am      1 UNK        -0.5000 
      5 CA          1.8758  -13.2074  -48.4801 C.3       1 UNK         0.1400 
      6 C6          1.1777  -13.0381  -47.1098 C.3       23 UNK        -0.0398 
      7 S7         -0.5550  -12.4908  -47.2373 S.3       23 UNK        -0.2404 
      8 C8         -1.4438  -14.0329  -46.8534 C.3       23 UNK        -0.0205 
      9 C9         -1.6503  -14.8925  -48.0907 C.ar      23 UNK        -0.0193 
     10 C10        -2.8023  -14.7220  -48.8621 C.ar      23 UNK        -0.1150 
     11 C11        -3.0135  -15.4918  -50.0082 C.ar      23 UNK        -0.0193 
     12 C12        -2.0594  -16.4417  -50.3816 C.ar      23 UNK        -0.1150 
     13 C13        -0.9051  -16.6308  -49.6156 C.ar      23 UNK        -0.0193 
     14 C14        -0.7065  -15.8538  -48.4678 C.ar      23 UNK        -0.1150 
     15 C15         0.1378  -17.6479  -50.0637 C.3       23 UNK        -0.0205 
     16 S16         0.5157  -18.9036  -48.8015 S.3       23 UNK        -0.2404 
     17 C17        -1.1210  -19.6451  -48.4775 C.3       23 UNK        -0.0398 
     18 CA         -0.9942  -21.0586  -47.8607 C.3       11 UNK         0.1400 
     19 N          -0.3322  -21.0528  -46.5518 N.am      11 UNK        -0.5000 
     20 C           0.1016  -22.1458  -45.9107 C.2       10 UNK         0.5000 
     21 O           0.0019  -23.2841  -46.3648 O.2       10 UNK        -0.5000 
     22 CA          0.7026  -21.9477  -44.5074 C.3       10 UNK         0.1400 
     23 CB          2.1473  -21.4329  -44.5895 C.3       10 UNK        -0.1800 
     24 N          -0.1019  -21.0556  -43.6721 N.am      10 UNK        -0.5000 
     25 C          -1.3517  -21.3265  -43.2688 C.2       9 UNK         0.5000 
     26 O          -1.9412  -22.3752  -43.5301 O.2       9 UNK        -0.5000 
     27 CA         -2.0825  -20.2292  -42.4741 C.3       9 UNK         0.1400 
     28 CB         -1.6531  -20.2440  -40.9996 C.3       9 UNK        -0.1800 
     29 N          -1.8742  -18.8935  -43.0314 N.am      9 UNK        -0.5000 
     30 C          -2.2688  -18.5082  -44.2537 C.2       8 UNK         0.5000 
     31 O          -2.8958  -19.2271  -45.0303 O.2       8 UNK        -0.5000 
     32 CA         -1.8378  -17.1004  -44.7046 C.3       8 UNK         0.1400 
     33 CB         -2.7407  -16.0344  -44.0637 C.3       8 UNK        -0.1800 
     34 N          -0.4280  -16.8202  -44.4090 N.am      8 UNK        -0.5000 
     35 C           0.5943  -17.5574  -44.8697 C.2       7 UNK         0.5000 
     36 O           0.4510  -18.5324  -45.6001 O.2       7 UNK        -0.5000 
     37 CA          2.0108  -17.1928  -44.4001 C.3       7 UNK         0.1400 
     38 CB          2.5914  -16.0488  -45.2370 C.3       7 UNK        -0.1800 
     39 N           2.0548  -16.8625  -42.9778 N.am      7 UNK        -0.5000 
     40 C           1.8190  -17.7507  -42.0020 C.2       6 UNK         0.5000 
     41 O           1.6349  -18.9530  -42.1965 O.2       6 UNK        -0.5000 
     42 CA          1.6998  -17.1823  -40.5786 C.3       6 UNK         0.1400 
     43 CB          3.0835  -16.9312  -39.9605 C.3       6 UNK        -0.1800 
     44 N           0.9084  -15.9505  -40.5584 N.am      6 UNK        -0.5000 
     45 C          -0.4102  -15.9106  -40.8009 C.2       5 UNK         0.5000 
     46 O          -1.0906  -16.9124  -41.0212 O.2       5 UNK        -0.5000 
     47 CA         -1.0866  -14.5280  -40.8262 C.3       5 UNK         0.1400 
     48 CB         -1.6439  -14.1806  -39.4379 C.3       5 UNK        -0.1800 
     49 N          -0.2123  -13.4452  -41.2751 N.am      5 UNK        -0.5000 
     50 C           0.3174  -13.3243  -42.5003 C.2       4 UNK         0.5000 
     51 O           0.1462  -14.1484  -43.4009 O.2       4 UNK        -0.5000 
     52 CA          1.1858  -12.0722  -42.7656 C.3       4 UNK         0.1400 
     53 CB          1.3742  -11.1661  -41.5284 C.3       4 UNK        -0.1800 
     54 N           2.5014  -12.3655  -43.3426 N.am      4 UNK        -0.5000 
     55 C           3.3929  -13.2887  -42.9571 C.2       3 UNK         0.5000 
     56 O           3.1670  -14.1464  -42.1011 O.2       3 UNK        -0.5000 
     57 CA          4.7708  -13.2380  -43.6570 C.3       3 UNK         0.1400 
     58 CB          5.6566  -14.4521  -43.3196 C.3       3 UNK        -0.1800 
     59 N           4.6821  -13.0878  -45.1166 N.am      3 UNK        -0.5000 
     60 C           4.4640  -11.9317  -45.7613 C.2       2 UNK         0.5000 
     61 O           4.2289  -10.8741  -45.1773 O.2       2 UNK        -0.5000 
     62 CA          4.4674  -11.9422  -47.3016 C.3       2 UNK         0.1400 
     63 CB          5.7702  -11.3241  -47.8309 C.3       2 UNK        -0.1800 
     64 N           4.3345  -13.2912  -47.8622 N.am      2 UNK        -0.5000 
     65 C           3.2436  -13.9252  -48.3269 C.2       1 UNK         0.5000 
     66 O           3.3142  -15.1052  -48.6641 O.2       1 UNK        -0.5000 
     67 C          -2.3600  -21.7720  -47.8122 C.2       11 UNK         0.5000 
     68 O          -2.6962  -22.4891  -48.7560 O.2       11 UNK        -0.5000 
     69 N          -3.1083  -21.6075  -46.7123 N.am      12 UNK        -0.5000 
     70 CA         -4.3735  -22.3020  -46.4740 C.3       12 UNK         0.1400 
     71 CB         -5.0933  -21.6761  -45.2704 C.3       12 UNK        -0.1800 
     72 C          -4.1830  -23.8167  -46.2735 C.2       12 UNK         0.5000 
     73 O          -4.9763  -24.5989  -46.7973 O.2       12 UNK        -0.5000 
     74 N          -3.1259  -24.2033  -45.5441 N.am      13 UNK        -0.5000 
     75 CA         -2.7306  -25.5961  -45.3283 C.3       13 UNK         0.1400 
     76 CB         -1.6821  -25.6658  -44.2076 C.3       13 UNK        -0.1800 
     77 C          -2.2085  -26.2695  -46.6115 C.2       13 UNK         0.5000 
     78 O          -2.5415  -27.4276  -46.8666 O.2       13 UNK        -0.5000 
     79 N          -1.4166  -25.5298  -47.4006 N.am      14 UNK        -0.5000 
     80 CA         -0.9035  -25.9468  -48.7069 C.3       14 UNK         0.1400 
     81 CB          0.1544  -24.9363  -49.1756 C.3       14 UNK        -0.1800 
     82 C          -2.0105  -26.0903  -49.7671 C.2       14 UNK         0.5000 
     83 O          -1.9097  -26.9605  -50.6340 O.2       14 UNK        -0.5000 
     84 N          -3.0402  -25.2360  -49.6736 N.am      15 UNK        -0.5000 
     85 CA         -4.2025  -25.1468  -50.5559 C.3       15 UNK         0.1400 
     86 CB         -5.1273  -26.3681  -50.3589 C.3       15 UNK        -0.1800 
     87 C          -3.7600  -24.9043  -52.0106 C.2       15 UNK         0.5000 
     88 O          -3.0393  -23.9367  -52.2550 O.2       15 UNK        -0.5000 
     89 N          -4.1434  -25.7927  -52.9377 N.am      16 UNK        -0.5000 
     90 CA         -3.8373  -25.7344  -54.3708 C.3       16 UNK         0.1400 
     91 CB         -4.5201  -26.9170  -55.0733 C.3       16 UNK        -0.1800 
     92 C          -2.3389  -25.6756  -54.7315 C.2       16 UNK         0.5000 
     93 O          -2.0100  -25.2118  -55.8238 O.2       16 UNK        -0.5000 
     94 N          -1.4574  -26.1087  -53.8183 N.am      17 UNK        -0.5000 
     95 CA         -0.0064  -25.9652  -53.9541 C.3       17 UNK         0.1400 
     96 CB          0.6944  -26.8990  -52.9566 C.3       17 UNK        -0.1800 
     97 C           0.4789  -24.5084  -53.7880 C.2       17 UNK         0.5000 
     98 O           1.5493  -24.1770  -54.2993 O.2       17 UNK        -0.5000 
     99 N          -0.3082  -23.6672  -53.1020 N.am      18 UNK        -0.5000 
    100 CA        -0.0896  -22.2272  -52.9828 C.3       18 UNK         0.1400 
    101 CB        -0.3440  -21.7818  -51.5328 C.3       18 UNK        -0.1800 
    102 C         -1.0032  -21.4786  -53.9665 C.2       18 UNK         0.5000 
    103 O         -0.5045  -20.7491  -54.8242 O.2       18 UNK        -0.5000 
    104 N         -2.3173  -21.6976  -53.8415 N.am      19 UNK        -0.5000 
    105 CA        -3.3794  -21.1293  -54.6648 C.3       19 UNK         0.1400 
    106 CB        -3.4976  -19.6082  -54.4466 C.3       19 UNK        -0.1800 
    107 C         -4.6867  -21.8177  -54.2620 C.2       19 UNK         0.5000 
    108 O         -4.9943  -21.8676  -53.0704 O.2       19 UNK        -0.5000 
    109 N         -5.4601  -22.3095  -55.2367 N.am      20 UNK        -0.5000 
    110 CA        -6.6854  -23.0922  -55.0137 C.3       20 UNK         0.1400 
    111 CB        -7.2099  -23.5891  -56.3692 C.3       20 UNK        -0.1800 
    112 C         -7.8008  -22.3685  -54.2287 C.2       20 UNK         0.5000 
    113 O         -8.6703  -23.0359  -53.6673 O.2       20 UNK        -0.5000 
    114 N         -7.7479  -21.0320  -54.1948 N.am      21 UNK        -0.5000 
    115 CA        -8.6785  -20.1656  -53.4753 C.3       21 UNK         0.1400 
    116 CB        -9.2356  -19.1336  -54.4725 C.3       21 UNK        -0.1800 
    117 C         -8.0311  -19.4659  -52.2610 C.2       21 UNK         0.5000 
    118 O         -8.6830  -18.5987  -51.6765 O.2       21 UNK        -0.5000 
    119 N         -6.7815  -19.8046  -51.9013 N.am      22 UNK        -0.5000 
    120 CA        -6.0300  -19.0954  -50.8469 C.3       22 UNK         0.1400 
    121 C         -5.0285  -19.9587  -50.0276 C.2       22 UNK         0.5000 
    122 N         -4.6367  -21.1492  -50.4610 N.am      22 UNK        -0.7600 
    123 O         -4.6063  -19.5409  -48.9547 O.2       22 UNK        -0.5000 
    124 C124       -5.3666  -17.7988  -51.3955 C.3       23 UNK        -0.0398 
    125 S125       -5.6302  -16.3477  -50.3234 S.3       23 UNK        -0.2404 
    126 C126       -4.2614  -15.2703  -50.8490 C.3       23 UNK        -0.0205 
    127 H127        1.7636  -10.4055  -52.0001 H         1 UNK         0.0600 
    128 H128        3.3831  -10.1139  -51.3562 H         1 UNK         0.0600 
    129 H129        1.9620   -9.6928  -50.3969 H         1 UNK         0.0600 
    130 H130        1.5526  -11.1491  -48.7849 H         1 UNK         0.3000 
    131 H131        1.2530  -13.8837  -49.0690 H         1 UNK         0.0600 
    132 H132        1.1999  -13.9747  -46.5581 H         1 UNK         0.0800 
    133 H133        1.7009  -12.3129  -46.4884 H         1 UNK         0.0800 
    134 H134       -2.4122  -13.7741  -46.4228 H         1 UNK         0.0800 
    135 H135       -0.9145  -14.5918  -46.0822 H         1 UNK         0.0800 
    136 H136       -3.5346  -13.9808  -48.5736 H         1 UNK         0.1150 
    137 H137       -2.2095  -17.0274  -51.2768 H         1 UNK         0.1150 
    138 H138        0.1867  -15.9954  -47.8757 H         1 UNK         0.1150 
    139 H139       -0.1786  -18.1548  -50.9764 H         1 UNK         0.0800 
    140 H140        1.0577  -17.1166  -50.3114 H         1 UNK         0.0800 
    141 H141       -1.6851  -18.9839  -47.8167 H         1 UNK         0.0800 
    142 H142       -1.6728  -19.6864  -49.4187 H         1 UNK         0.0800 
    143 H143       -0.3637  -21.6483  -48.5281 H         1 UNK         0.0600 
    144 H144       -0.1631  -20.1373  -46.1365 H         1 UNK         0.3000 
    145 H145        0.7245  -22.9237  -44.0182 H         1 UNK         0.0600 
    146 H146        2.5882  -21.3344  -43.5974 H         1 UNK         0.0600 
    147 H147        2.7729  -22.1222  -45.1577 H         1 UNK         0.0600 
    148 H148        2.2051  -20.4614  -45.0791 H         1 UNK         0.0600 
    149 H149        0.3224  -20.1760  -43.4012 H         1 UNK         0.3000 
    150 H150       -3.1519  -20.4445  -42.5186 H         1 UNK         0.0600 
    151 H151       -1.8092  -21.2283  -40.5565 H         1 UNK         0.0600 
    152 H152       -2.2308  -19.5279  -40.4148 H         1 UNK         0.0600 
    153 H153       -0.5980  -19.9936  -40.8844 H         1 UNK         0.0600 
    154 H154       -1.3968  -18.2221  -42.4367 H         1 UNK         0.3000 
    155 H155       -1.9572  -17.0432  -45.7887 H         1 UNK         0.0600 
    156 H156       -2.3863  -15.0240  -44.2614 H         1 UNK         0.0600 
    157 H157       -2.8056  -16.1576  -42.9835 H         1 UNK         0.0600 
    158 H158       -3.7554  -16.1070  -44.4563 H         1 UNK         0.0600 
    159 H159       -0.2251  -15.9967  -43.8497 H         1 UNK         0.3000 
    160 H160        2.6395  -18.0706  -44.5629 H         1 UNK         0.0600 
    161 H161        2.1892  -15.0868  -44.9266 H         1 UNK         0.0600 
    162 H162        2.3676  -16.1850  -46.2957 H         1 UNK         0.0600 
    163 H163        3.6745  -16.0098  -45.1467 H         1 UNK         0.0600 
    164 H164        2.1955  -15.8899  -42.7267 H         1 UNK         0.3000 
    165 H165        1.1873  -17.9263  -39.9647 H         1 UNK         0.0600 
    166 H166        3.6585  -16.2003  -40.5289 H         1 UNK         0.0600 
    167 H167        2.9974  -16.5673  -38.9366 H         1 UNK         0.0600 
    168 H168        3.6668  -17.8523  -39.9300 H         1 UNK         0.0600 
    169 H169        1.4128  -15.0823  -40.4445 H         1 UNK         0.3000 
    170 H170       -1.9253  -14.5816  -41.5215 H         1 UNK         0.0600 
    171 H171       -2.3242  -14.9569  -39.0848 H         1 UNK         0.0600 
    172 H172       -0.8487  -14.0798  -38.6982 H         1 UNK         0.0600 
    173 H173       -2.2043  -13.2457  -39.4596 H         1 UNK         0.0600 
    174 H174       -0.0073  -12.7265  -40.5965 H         1 UNK         0.3000 
    175 H175        0.6468  -11.4955  -43.5185 H         1 UNK         0.0600 
    176 H176        1.9475  -10.2750  -41.7850 H         1 UNK         0.0600 
    177 H177        0.4180  -10.8200  -41.1338 H         1 UNK         0.0600 
    178 H178        1.9086  -11.6784  -40.7271 H         1 UNK         0.0600 
    179 H179        2.8186  -11.7148  -44.0529 H         1 UNK         0.3000 
    180 H180        5.2799  -12.3587  -43.2566 H         1 UNK         0.0600 
    181 H181        6.6296  -14.3784  -43.8054 H         1 UNK         0.0600 
    182 H182        5.8386  -14.5133  -42.2459 H         1 UNK         0.0600 
    183 H183        5.2001  -15.3932  -43.6221 H         1 UNK         0.0600 
    184 H184        4.8249  -13.9242  -45.6623 H         1 UNK         0.3000 
    185 H185        3.6551  -11.2914  -47.6129 H         1 UNK         0.0600 
    186 H186        5.7600  -11.2610  -48.9194 H         1 UNK         0.0600 
    187 H187        5.9078  -10.3110  -47.4502 H         1 UNK         0.0600 
    188 H188        6.6438  -11.9071  -47.5365 H         1 UNK         0.0600 
    189 H189        5.1933  -13.8214  -47.8638 H         1 UNK         0.3000 
    190 H190       -2.8128  -20.9401  -46.0061 H         1 UNK         0.3000 
    191 H191       -5.0043  -22.1593  -47.3542 H         1 UNK         0.0600 
    192 H192       -6.0449  -22.1742  -45.0817 H         1 UNK         0.0600 
    193 H193       -5.3074  -20.6219  -45.4474 H         1 UNK         0.0600 
    194 H194       -4.4970  -21.7484  -44.3607 H         1 UNK         0.0600 
    195 H195       -2.5536  -23.4936  -45.0976 H         1 UNK         0.3000 
    196 H196       -3.6128  -26.1489  -44.9989 H         1 UNK         0.0600 
    197 H197       -1.3845  -26.6971  -44.0143 H         1 UNK         0.0600 
    198 H198       -2.0753  -25.2600  -43.2754 H         1 UNK         0.0600 
    199 H199       -0.7818  -25.1056  -44.4611 H         1 UNK         0.0600 
    200 H200       -1.1219  -24.6135  -47.0716 H         1 UNK         0.3000 
    201 H201       -0.4236  -26.9204  -48.5900 H         1 UNK         0.0600 
    202 H202        0.9843  -24.8781  -48.4714 H         1 UNK         0.0600 
    203 H203       -0.2703  -23.9380  -49.2755 H         1 UNK         0.0600 
    204 H204        0.5698  -25.2119  -50.1441 H         1 UNK         0.0600 
    205 H205       -2.9641  -24.4854  -48.9958 H         1 UNK         0.3000 
    206 H206       -4.7539  -24.2562  -50.2512 H         1 UNK         0.0600 
    207 H207       -5.4276  -26.4565  -49.3145 H         1 UNK         0.0600 
    208 H208       -6.0414  -26.2704  -50.9457 H         1 UNK         0.0600 
    209 H209       -4.6437  -27.3042  -50.6400 H         1 UNK         0.0600 
    210 H210       -4.6956  -26.5811  -52.6337 H         1 UNK         0.3000 
    211 H211       -4.2758  -24.8157  -54.7577 H         1 UNK         0.0600 
    212 H212       -4.1499  -27.8727  -54.7001 H         1 UNK         0.0600 
    213 H213       -4.3398  -26.8920  -56.1489 H         1 UNK         0.0600 
    214 H214       -5.6002  -26.8928  -54.9276 H         1 UNK         0.0600 
    215 H215       -1.8011  -26.4675  -52.9359 H         1 UNK         0.3000 
    216 H216        0.2743  -26.2853  -54.9598 H         1 UNK         0.0600 
    217 H217        1.7788  -26.8294  -53.0504 H         1 UNK         0.0600 
    218 H218        0.4193  -27.9392  -53.1314 H         1 UNK         0.0600 
    219 H219        0.4381  -26.6558  -51.9271 H         1 UNK         0.0600 
    220 H220       -1.2028  -24.0039  -52.7579 H         1 UNK         0.3000 
    221 H221        0.9440  -21.9750  -53.2285 H         1 UNK         0.0600 
    222 H222       -1.3375  -22.0644  -51.1827 H         1 UNK         0.0600 
    223 H223        0.3873  -22.2254  -50.8581 H         1 UNK         0.0600 
    224 H224       -0.2571  -20.6993  -51.4363 H         1 UNK         0.0600 
    225 H225       -2.6444  -22.3512  -53.1303 H         1 UNK         0.3000 
    226 H226       -3.1647  -21.3378  -55.7146 H         1 UNK         0.0600 
    227 H227       -2.6153  -19.0801  -54.8072 H         1 UNK         0.0600 
    228 H228       -4.3559  -19.1994  -54.9811 H         1 UNK         0.0600 
    229 H229       -3.6210  -19.3676  -53.3907 H         1 UNK         0.0600 
    230 H230       -5.1668  -22.2040  -56.1976 H         1 UNK         0.3000 
    231 H231       -6.4139  -23.9652  -54.4175 H         1 UNK         0.0600 
    232 H232       -8.1055  -24.1993  -56.2441 H         1 UNK         0.0600 
    233 H233       -6.4684  -24.2062  -56.8771 H         1 UNK         0.0600 
    234 H234       -7.4675  -22.7590  -57.0281 H         1 UNK         0.0600 
    235 H235       -6.9930  -20.5738  -54.6835 H         1 UNK         0.3000 
    236 H236       -9.5191  -20.7449  -53.0885 H         1 UNK         0.0600 
    237 H237       -8.4498  -18.4840  -54.8598 H         1 UNK         0.0600 
    238 H238       -9.7131  -19.6245  -55.3207 H         1 UNK         0.0600 
    239 H239       -9.9884  -18.4973  -54.0055 H         1 UNK         0.0600 
    240 H240       -6.3002  -20.5595  -52.3771 H         1 UNK         0.3000 
    241 H241       -6.7659  -18.8091  -50.0926 H         1 UNK         0.0600 
    242 H242       -3.9811  -21.6760  -49.8937 H         1 UNK         0.3800 
    243 H243       -4.8735  -21.4934  -51.3896 H         1 UNK         0.3800 
    244 H244       -5.7749  -17.5367  -52.3726 H         1 UNK         0.0800 
    245 H245       -4.2999  -17.9455  -51.5642 H         1 UNK         0.0800 
    246 H246       -4.0429  -15.4250  -51.9068 H         1 UNK         0.0800 
    247 H247       -4.5838  -14.2318  -50.7597 H         1 UNK         0.0800 
@<TRIPOS>BOND
     1    1    2 1    
     2    1  127 1    
     3    1  128 1    
     4    1  129 1    
     5    2    3 2    
     6    2    4 am   BACKBONE|DICT|INTERRES
     7    4    5 1    
     8    4  130 1    
     9    5    6 1    
    10    5   65 1    
    11    5  131 1    
    12    6    7 1    
    13    6  132 1    
    14    6  133 1    
    15    7    8 1    
    16    8    9 1    
    17    8  134 1    
    18    8  135 1    
    19    9   10 ar   
    20    9   14 ar   
    21   10   11 ar   
    22   10  136 1    
    23   11   12 ar   
    24   11  126 1    
    25   12   13 ar   
    26   12  137 1    
    27   13   14 ar   
    28   13   15 1    
    29   14  138 1    
    30   15   16 1    
    31   15  139 1    
    32   15  140 1    
    33   16   17 1    
    34   17   18 1    
    35   17  141 1    
    36   17  142 1    
    37   18   19 1    
    38   18   67 1    
    39   18  143 1    
    40   19   20 am   BACKBONE|DICT|INTERRES
    41   19  144 1    
    42   20   21 2    
    43   20   22 1    
    44   22   23 1    
    45   22   24 1    
    46   22  145 1    
    47   23  146 1    
    48   23  147 1    
    49   23  148 1    
    50   24   25 am   BACKBONE|DICT|INTERRES
    51   24  149 1    
    52   25   26 2    
    53   25   27 1    
    54   27   28 1    
    55   27   29 1    
    56   27  150 1    
    57   28  151 1    
    58   28  152 1    
    59   28  153 1    
    60   29   30 am   BACKBONE|DICT|INTERRES
    61   29  154 1    
    62   30   31 2    
    63   30   32 1    
    64   32   33 1    
    65   32   34 1    
    66   32  155 1    
    67   33  156 1    
    68   33  157 1    
    69   33  158 1    
    70   34   35 am   BACKBONE|DICT|INTERRES
    71   34  159 1    
    72   35   36 2    
    73   35   37 1    
    74   37   38 1    
    75   37   39 1    
    76   37  160 1    
    77   38  161 1    
    78   38  162 1    
    79   38  163 1    
    80   39   40 am   BACKBONE|DICT|INTERRES
    81   39  164 1    
    82   40   41 2    
    83   40   42 1    
    84   42   43 1    
    85   42   44 1    
    86   42  165 1    
    87   43  166 1    
    88   43  167 1    
    89   43  168 1    
    90   44   45 am   BACKBONE|DICT|INTERRES
    91   44  169 1    
    92   45   46 2    
    93   45   47 1    
    94   47   48 1    
    95   47   49 1    
    96   47  170 1    
    97   48  171 1    
    98   48  172 1    
    99   48  173 1    
   100   49   50 am   BACKBONE|DICT|INTERRES
   101   49  174 1    
   102   50   51 2    
   103   50   52 1    
   104   52   53 1    
   105   52   54 1    
   106   52  175 1    
   107   53  176 1    
   108   53  177 1    
   109   53  178 1    
   110   54   55 am   BACKBONE|DICT|INTERRES
   111   54  179 1    
   112   55   56 2    
   113   55   57 1    
   114   57   58 1    
   115   57   59 1    
   116   57  180 1    
   117   58  181 1    
   118   58  182 1    
   119   58  183 1    
   120   59   60 am   BACKBONE|DICT|INTERRES
   121   59  184 1    
   122   60   61 2    
   123   60   62 1    
   124   62   63 1    
   125   62   64 1    
   126   62  185 1    
   127   63  186 1    
   128   63  187 1    
   129   63  188 1    
   130   64   65 am   BACKBONE|DICT|INTERRES
   131   64  189 1    
   132   65   66 2    
   133   67   68 2    
   134   67   69 am   BACKBONE|DICT|INTERRES
   135   69   70 1    
   136   69  190 1    
   137   70   71 1    
   138   70   72 1    
   139   70  191 1    
   140   71  192 1    
   141   71  193 1    
   142   71  194 1    
   143   72   73 2    
   144   72   74 am   BACKBONE|DICT|INTERRES
   145   74   75 1    
   146   74  195 1    
   147   75   76 1    
   148   75   77 1    
   149   75  196 1    
   150   76  197 1    
   151   76  198 1    
   152   76  199 1    
   153   77   78 2    
   154   77   79 am   BACKBONE|DICT|INTERRES
   155   79   80 1    
   156   79  200 1    
   157   80   81 1    
   158   80   82 1    
   159   80  201 1    
   160   81  202 1    
   161   81  203 1    
   162   81  204 1    
   163   82   83 2    
   164   82   84 am   BACKBONE|DICT|INTERRES
   165   84   85 1    
   166   84  205 1    
   167   85   86 1    
   168   85   87 1    
   169   85  206 1    
   170   86  207 1    
   171   86  208 1    
   172   86  209 1    
   173   87   88 2    
   174   87   89 am   BACKBONE|DICT|INTERRES
   175   89   90 1    
   176   89  210 1    
   177   90   91 1    
   178   90   92 1    
   179   90  211 1    
   180   91  212 1    
   181   91  213 1    
   182   91  214 1    
   183   92   93 2    
   184   92   94 am   BACKBONE|DICT|INTERRES
   185   94   95 1    
   186   94  215 1    
   187   95   96 1    
   188   95   97 1    
   189   95  216 1    
   190   96  217 1    
   191   96  218 1    
   192   96  219 1    
   193   97   98 2    
   194   97   99 am   BACKBONE|DICT|INTERRES
   195   99  100 1    
   196   99  220 1    
   197  100  101 1    
   198  100  102 1    
   199  100  221 1    
   200  101  222 1    
   201  101  223 1    
   202  101  224 1    
   203  102  103 2    
   204  102  104 am   BACKBONE|DICT|INTERRES
   205  104  105 1    
   206  104  225 1    
   207  105  106 1    
   208  105  107 1    
   209  105  226 1    
   210  106  227 1    
   211  106  228 1    
   212  106  229 1    
   213  107  108 2    
   214  107  109 am   BACKBONE|DICT|INTERRES
   215  109  110 1    
   216  109  230 1    
   217  110  111 1    
   218  110  112 1    
   219  110  231 1    
   220  111  232 1    
   221  111  233 1    
   222  111  234 1    
   223  112  113 2    
   224  112  114 am   BACKBONE|DICT|INTERRES
   225  114  115 1    
   226  114  235 1    
   227  115  116 1    
   228  115  117 1    
   229  115  236 1    
   230  116  237 1    
   231  116  238 1    
   232  116  239 1    
   233  117  118 2    
   234  117  119 am   BACKBONE|DICT|INTERRES
   235  119  120 1    
   236  119  240 1    
   237  120  121 1    
   238  120  124 1    
   239  120  241 1    
   240  121  122 am   BACKBONE|DICT|INTERRES
   241  121  123 2    
   242  122  242 1    
   243  122  243 1    
   244  124  125 1    
   245  124  244 1    
   246  124  245 1    
   247  125  126 1    
   248  126  246 1    
   249  126  247 1    
@<TRIPOS>SUBSTRUCTURE
     1 UNK         1 GROUP             0       ****    0 ROOT    
