@<TRIPOS>MOLECULE
3R540
247   249    1
SMALL
USER_CHARGES


@<TRIPOS>ATOM
      1 CA          2.5785  -12.1816  -47.1010 C.3       0 UNK        -0.1800 
      2 C           1.1866  -12.5813  -47.5700 C.2       0 UNK         0.5000 
      3 O           0.4599  -11.7463  -48.1079 O.2       0 UNK        -0.5000 
      4 N           0.8225  -13.8540  -47.3614 N.am      1 UNK        -0.5000 
      5 CA         -0.4638  -14.4732  -47.7193 C.3       1 UNK         0.1400 
      6 C6         -0.7009  -14.5819  -49.2512 C.3       23 UNK        -0.0398 
      7 S7          0.5926  -15.5544  -50.0985 S.3       23 UNK        -0.2404 
      8 C8         -0.0938  -17.2245  -49.8973 C.3       23 UNK        -0.0205 
      9 C9          0.7687  -18.2854  -50.5590 C.ar      23 UNK        -0.0193 
     10 C10         0.5145  -18.6844  -51.8750 C.ar      23 UNK        -0.1150 
     11 C11         1.2883  -19.6841  -52.4722 C.ar      23 UNK        -0.0193 
     12 C12         2.3098  -20.2935  -51.7396 C.ar      23 UNK        -0.1150 
     13 C13         2.5651  -19.9120  -50.4207 C.ar      23 UNK        -0.0193 
     14 C14         1.8012  -18.8947  -49.8405 C.ar      23 UNK        -0.1150 
     15 C15         3.6649  -20.6090  -49.6350 C.3       23 UNK        -0.0205 
     16 S16         3.0572  -22.1277  -48.8317 S.3       23 UNK        -0.2404 
     17 C17         2.3027  -21.4331  -47.3270 C.3       23 UNK        -0.0398 
     18 CA          1.0955  -22.2304  -46.7845 C.3       11 UNK         0.1400 
     19 N           0.8189  -21.8587  -45.3946 N.am      11 UNK        -0.5000 
     20 C          -0.0457  -22.4796  -44.5822 C.2       10 UNK         0.5000 
     21 O          -0.6700  -23.4922  -44.8955 O.2       10 UNK        -0.5000 
     22 CA         -0.2872  -21.8294  -43.2067 C.3       10 UNK         0.1400 
     23 CB          0.8024  -22.2426  -42.2066 C.3       10 UNK        -0.1800 
     24 N          -0.3572  -20.3683  -43.2842 N.am      10 UNK        -0.5000 
     25 C          -1.3147  -19.6912  -43.9348 C.2       9 UNK         0.5000 
     26 O          -2.2796  -20.2313  -44.4740 O.2       9 UNK        -0.5000 
     27 CA         -1.1364  -18.1651  -44.0536 C.3       9 UNK         0.1400 
     28 CB         -1.5939  -17.4559  -42.7713 C.3       9 UNK        -0.1800 
     29 N           0.2448  -17.7916  -44.3633 N.am      9 UNK        -0.5000 
     30 C           0.8802  -18.1149  -45.4982 C.2       8 UNK         0.5000 
     31 O           0.3382  -18.6845  -46.4425 O.2       8 UNK        -0.5000 
     32 CA          2.3822  -17.7973  -45.5788 C.3       8 UNK         0.1400 
     33 CB          2.6181  -16.3835  -46.1258 C.3       8 UNK        -0.1800 
     34 N           3.0385  -17.9490  -44.2815 N.am      8 UNK        -0.5000 
     35 C           3.3172  -19.1311  -43.7155 C.2       7 UNK         0.5000 
     36 O           3.0768  -20.2132  -44.2503 O.2       7 UNK        -0.5000 
     37 CA          3.9272  -19.0985  -42.3014 C.3       7 UNK         0.1400 
     38 CB          5.4451  -18.8757  -42.3718 C.3       7 UNK        -0.1800 
     39 N           3.3242  -18.0717  -41.4494 N.am      7 UNK        -0.5000 
     40 C           2.0540  -18.0995  -41.0231 C.2       6 UNK         0.5000 
     41 O           1.2760  -19.0213  -41.2670 O.2       6 UNK        -0.5000 
     42 CA          1.5506  -16.8740  -40.2341 C.3       6 UNK         0.1400 
     43 CB          1.8196  -17.0539  -38.7331 C.3       6 UNK        -0.1800 
     44 N           2.0956  -15.5827  -40.6698 N.am      6 UNK        -0.5000 
     45 C           2.0696  -15.1049  -41.9213 C.2       5 UNK         0.5000 
     46 O           1.6800  -15.7544  -42.8919 O.2       5 UNK        -0.5000 
     47 CA          2.5044  -13.6432  -42.0948 C.3       5 UNK         0.1400 
     48 CB          2.7685  -13.2776  -43.5672 C.3       5 UNK        -0.1800 
     49 N           1.4181  -12.8124  -41.5937 N.am      5 UNK        -0.5000 
     50 C           1.4463  -12.0605  -40.4869 C.2       4 UNK         0.5000 
     51 O           2.4465  -11.9217  -39.7819 O.2       4 UNK        -0.5000 
     52 CA          0.1346  -11.3511  -40.0864 C.3       4 UNK         0.1400 
     53 CB          0.1463   -9.8928  -40.5696 C.3       4 UNK        -0.1800 
     54 N          -1.0667  -12.0103  -40.6049 N.am      4 UNK        -0.5000 
     55 C          -1.5149  -13.2107  -40.2114 C.2       3 UNK         0.5000 
     56 O          -1.0125  -13.8576  -39.2919 O.2       3 UNK        -0.5000 
     57 CA         -2.7084  -13.8055  -40.9899 C.3       3 UNK         0.1400 
     58 CB         -4.0173  -13.5733  -40.2200 C.3       3 UNK        -0.1800 
     59 N          -2.8737  -13.3169  -42.3671 N.am      3 UNK        -0.5000 
     60 C          -1.9537  -13.4012  -43.3368 C.2       2 UNK         0.5000 
     61 O          -0.8014  -13.7970  -43.1518 O.2       2 UNK        -0.5000 
     62 CA         -2.3729  -12.9465  -44.7401 C.3       2 UNK         0.1400 
     63 CB         -2.3600  -11.4126  -44.8536 C.3       2 UNK        -0.1800 
     64 N          -1.4205  -13.5155  -45.6845 N.am      2 UNK        -0.5000 
     65 C          -1.6494  -13.8269  -46.9636 C.2       1 UNK         0.5000 
     66 O          -2.7259  -13.6294  -47.5300 O.2       1 UNK        -0.5000 
     67 C          -0.1640  -22.0977  -47.6734 C.2       11 UNK         0.5000 
     68 O          -0.4791  -23.0248  -48.4196 O.2       11 UNK        -0.5000 
     69 N          -0.9050  -20.9892  -47.5220 N.am      12 UNK        -0.5000 
     70 CA         -2.1982  -20.7525  -48.1672 C.3       12 UNK         0.1400 
     71 CB         -2.6848  -19.3289  -47.8575 C.3       12 UNK        -0.1800 
     72 C          -3.2642  -21.7817  -47.7522 C.2       12 UNK         0.5000 
     73 O          -3.9732  -22.3000  -48.6128 O.2       12 UNK        -0.5000 
     74 N          -3.3372  -22.0908  -46.4499 N.am      13 UNK        -0.5000 
     75 CA         -4.2351  -23.1032  -45.8909 C.3       13 UNK         0.1400 
     76 CB         -4.1857  -23.0514  -44.3568 C.3       13 UNK        -0.1800 
     77 C          -3.9356  -24.5245  -46.4048 C.2       13 UNK         0.5000 
     78 O          -4.8724  -25.2801  -46.6621 O.2       13 UNK        -0.5000 
     79 N          -2.6468  -24.8499  -46.5781 N.am      14 UNK        -0.5000 
     80 CA         -2.1789  -26.1016  -47.1748 C.3       14 UNK         0.1400 
     81 CB         -0.6743  -26.2671  -46.9121 C.3       14 UNK        -0.1800 
     82 C          -2.4901  -26.1937  -48.6814 C.2       14 UNK         0.5000 
     83 O          -2.8716  -27.2652  -49.1541 O.2       14 UNK        -0.5000 
     84 N          -2.3447  -25.0723  -49.4029 N.am      15 UNK        -0.5000 
     85 CA         -2.6957  -24.9392  -50.8205 C.3       15 UNK         0.1400 
     86 CB         -2.0487  -23.6680  -51.3843 C.3       15 UNK        -0.1800 
     87 C          -4.2187  -24.9730  -51.0790 C.2       15 UNK         0.5000 
     88 O          -4.6357  -25.3750  -52.1666 O.2       15 UNK        -0.5000 
     89 N          -5.0095  -24.6046  -50.0600 N.am      16 UNK        -0.5000 
     90 CA         -6.4481  -24.8206  -49.8876 C.3       16 UNK         0.1400 
     91 CB         -6.7240  -26.3159  -49.6191 C.3       16 UNK        -0.1800 
     92 C          -7.3054  -24.2479  -51.0318 C.2       16 UNK         0.5000 
     93 O          -7.6622  -23.0708  -50.9934 O.2       16 UNK        -0.5000 
     94 N          -7.6256  -25.0847  -52.0282 N.am      17 UNK        -0.5000 
     95 CA         -8.4044  -24.7296  -53.2165 C.3       17 UNK         0.1400 
     96 CB         -8.7166  -26.0099  -54.0061 C.3       17 UNK        -0.1800 
     97 C          -7.7134  -23.6913  -54.1229 C.2       17 UNK         0.5000 
     98 O          -8.4010  -22.9912  -54.8671 O.2       17 UNK        -0.5000 
     99 N          -6.3813  -23.5983  -54.0323 N.am      18 UNK        -0.5000 
    100 CA        -5.5544  -22.6216  -54.7331 C.3       18 UNK         0.1400 
    101 CB        -4.7142  -23.3472  -55.7990 C.3       18 UNK        -0.1800 
    102 C         -4.7059  -21.8466  -53.7104 C.2       18 UNK         0.5000 
    103 O         -3.4934  -21.7330  -53.8774 O.2       18 UNK        -0.5000 
    104 N         -5.3627  -21.3336  -52.6578 N.am      19 UNK        -0.5000 
    105 CA        -4.7586  -20.5869  -51.5455 C.3       19 UNK         0.1400 
    106 CB        -5.8514  -20.2286  -50.5262 C.3       19 UNK        -0.1800 
    107 C         -3.9779  -19.3205  -51.9509 C.2       19 UNK         0.5000 
    108 O         -3.0611  -18.9219  -51.2336 O.2       19 UNK        -0.5000 
    109 N         -4.3494  -18.7224  -53.0866 N.am      20 UNK        -0.5000 
    110 CA        -3.6165  -17.6565  -53.7572 C.3       20 UNK         0.1400 
    111 CB        -4.5264  -16.4257  -53.8877 C.3       20 UNK        -0.1800 
    112 C         -3.1960  -18.1700  -55.1412 C.2       20 UNK         0.5000 
    113 O         -3.9074  -18.9881  -55.7311 O.2       20 UNK        -0.5000 
    114 N         -2.0498  -17.6806  -55.6311 N.am      21 UNK        -0.5000 
    115 CA        -1.3997  -17.9719  -56.9189 C.3       21 UNK         0.1400 
    116 CB        -2.3093  -17.5989  -58.1057 C.3       21 UNK        -0.1800 
    117 C         -0.8443  -19.4041  -57.0762 C.2       21 UNK         0.5000 
    118 O          0.1912  -19.5662  -57.7226 O.2       21 UNK        -0.5000 
    119 N         -1.5070  -20.4030  -56.4794 N.am      22 UNK        -0.5000 
    120 CA        -1.1328  -21.8300  -56.4762 C.3       22 UNK         0.1400 
    121 C         -1.2046  -22.5251  -57.8719 C.2       22 UNK         0.5000 
    122 N         -1.9233  -21.9775  -58.8448 N.am      22 UNK        -0.7600 
    123 O         -0.6314  -23.5922  -58.0746 O.2       22 UNK        -0.5000 
    124 C124        0.1997  -22.1080  -55.7250 C.3       23 UNK        -0.0398 
    125 S125        0.1043  -21.6807  -53.9530 S.3       23 UNK        -0.2404 
    126 C126        1.0294  -20.1175  -53.9049 C.3       23 UNK        -0.0205 
    127 H127        3.1501  -11.7675  -47.9316 H         1 UNK         0.0600 
    128 H128        3.1319  -13.0308  -46.6992 H         1 UNK         0.0600 
    129 H129        2.5075  -11.4226  -46.3219 H         1 UNK         0.0600 
    130 H130        1.4884  -14.4764  -46.9287 H         1 UNK         0.3000 
    131 H131       -0.4148  -15.4918  -47.3312 H         1 UNK         0.0600 
    132 H132       -0.7368  -13.5901  -49.7037 H         1 UNK         0.0800 
    133 H133       -1.6681  -15.0408  -49.4633 H         1 UNK         0.0800 
    134 H134       -1.1060  -17.2614  -50.3028 H         1 UNK         0.0800 
    135 H135       -0.1733  -17.4381  -48.8319 H         1 UNK         0.0800 
    136 H136       -0.2902  -18.2220  -52.4288 H         1 UNK         0.1150 
    137 H137        2.8978  -21.0786  -52.1944 H         1 UNK         0.1150 
    138 H138        1.9957  -18.5811  -48.8254 H         1 UNK         0.1150 
    139 H139        4.4823  -20.8728  -50.3078 H         1 UNK         0.0800 
    140 H140        4.0932  -19.9361  -48.8903 H         1 UNK         0.0800 
    141 H141        2.0219  -20.3963  -47.4933 H         1 UNK         0.0800 
    142 H142        3.0951  -21.4104  -46.5784 H         1 UNK         0.0800 
    143 H143        1.3719  -23.2869  -46.7728 H         1 UNK         0.0600 
    144 H144        1.3343  -21.0664  -45.0289 H         1 UNK         0.3000 
    145 H145       -1.2462  -22.1916  -42.8311 H         1 UNK         0.0600 
    146 H146        0.5950  -21.8451  -41.2130 H         1 UNK         0.0600 
    147 H147        1.7865  -21.8847  -42.5096 H         1 UNK         0.0600 
    148 H148        0.8597  -23.3282  -42.1180 H         1 UNK         0.0600 
    149 H149        0.3692  -19.8492  -42.8000 H         1 UNK         0.3000 
    150 H150       -1.7646  -17.8158  -44.8756 H         1 UNK         0.0600 
    151 H151       -2.6596  -17.6120  -42.6008 H         1 UNK         0.0600 
    152 H152       -1.4258  -16.3819  -42.8332 H         1 UNK         0.0600 
    153 H153       -1.0661  -17.8264  -41.8936 H         1 UNK         0.0600 
    154 H154        0.7495  -17.2515  -43.6658 H         1 UNK         0.3000 
    155 H155        2.8388  -18.5017  -46.2764 H         1 UNK         0.0600 
    156 H156        2.2218  -16.2968  -47.1382 H         1 UNK         0.0600 
    157 H157        3.6822  -16.1515  -46.1741 H         1 UNK         0.0600 
    158 H158        2.1372  -15.6270  -45.5063 H         1 UNK         0.0600 
    159 H159        3.1588  -17.1052  -43.7370 H         1 UNK         0.3000 
    160 H160        3.7468  -20.0719  -41.8401 H         1 UNK         0.0600 
    161 H161        5.6917  -17.9042  -42.8019 H         1 UNK         0.0600 
    162 H162        5.9228  -19.6386  -42.9881 H         1 UNK         0.0600 
    163 H163        5.8976  -18.9295  -41.3815 H         1 UNK         0.0600 
    164 H164        3.8965  -17.2755  -41.2101 H         1 UNK         0.3000 
    165 H165        0.4699  -16.8215  -40.3757 H         1 UNK         0.0600 
    166 H166        1.3584  -16.2549  -38.1520 H         1 UNK         0.0600 
    167 H167        1.4060  -17.9963  -38.3714 H         1 UNK         0.0600 
    168 H168        2.8879  -17.0573  -38.5133 H         1 UNK         0.0600 
    169 H169        2.4120  -14.9662  -39.9351 H         1 UNK         0.3000 
    170 H170        3.4245  -13.4875  -41.5282 H         1 UNK         0.0600 
    171 H171        1.8738  -13.3950  -44.1801 H         1 UNK         0.0600 
    172 H172        3.1001  -12.2435  -43.6603 H         1 UNK         0.0600 
    173 H173        3.5478  -13.9099  -43.9941 H         1 UNK         0.0600 
    174 H174        0.5316  -12.9478  -42.0729 H         1 UNK         0.3000 
    175 H175        0.0797  -11.3513  -38.9958 H         1 UNK         0.0600 
    176 H176        0.1834   -9.8301  -41.6580 H         1 UNK         0.0600 
    177 H177       -0.7411   -9.3575  -40.2314 H         1 UNK         0.0600 
    178 H178        1.0142   -9.3589  -40.1802 H         1 UNK         0.0600 
    179 H179       -1.5444  -11.5505  -41.3656 H         1 UNK         0.3000 
    180 H180       -2.5382  -14.8824  -41.0496 H         1 UNK         0.0600 
    181 H181       -4.8523  -14.0889  -40.6947 H         1 UNK         0.0600 
    182 H182       -4.2653  -12.5128  -40.1612 H         1 UNK         0.0600 
    183 H183       -3.9442  -13.9505  -39.1990 H         1 UNK         0.0600 
    184 H184       -3.7876  -12.9547  -42.5987 H         1 UNK         0.3000 
    185 H185       -3.3739  -13.3305  -44.9470 H         1 UNK         0.0600 
    186 H186       -3.0652  -10.9592  -44.1562 H         1 UNK         0.0600 
    187 H187       -1.3721  -11.0030  -44.6386 H         1 UNK         0.0600 
    188 H188       -2.6428  -11.0896  -45.8557 H         1 UNK         0.0600 
    189 H189       -0.5312  -13.7533  -45.2625 H         1 UNK         0.3000 
    190 H190       -0.5520  -20.2406  -46.9312 H         1 UNK         0.3000 
    191 H191       -2.0502  -20.8351  -49.2459 H         1 UNK         0.0600 
    192 H192       -1.9713  -18.5847  -48.1997 H         1 UNK         0.0600 
    193 H193       -2.8425  -19.1722  -46.7916 H         1 UNK         0.0600 
    194 H194       -3.6285  -19.1210  -48.3605 H         1 UNK         0.0600 
    195 H195       -2.7599  -21.5760  -45.7909 H         1 UNK         0.3000 
    196 H196       -5.2500  -22.8487  -46.2033 H         1 UNK         0.0600 
    197 H197       -4.4552  -22.0621  -43.9864 H         1 UNK         0.0600 
    198 H198       -3.1935  -23.2922  -43.9763 H         1 UNK         0.0600 
    199 H199       -4.8858  -23.7646  -43.9203 H         1 UNK         0.0600 
    200 H200       -1.9342  -24.1939  -46.2737 H         1 UNK         0.3000 
    201 H201       -2.6983  -26.9243  -46.6789 H         1 UNK         0.0600 
    202 H202       -0.4590  -26.2668  -45.8434 H         1 UNK         0.0600 
    203 H203       -0.0927  -25.4665  -47.3692 H         1 UNK         0.0600 
    204 H204       -0.3090  -27.2111  -47.3181 H         1 UNK         0.0600 
    205 H205       -1.9542  -24.2502  -48.9518 H         1 UNK         0.3000 
    206 H206       -2.2649  -25.7906  -51.3512 H         1 UNK         0.0600 
    207 H207       -2.3952  -22.7745  -50.8686 H         1 UNK         0.0600 
    208 H208       -2.2727  -23.5537  -52.4446 H         1 UNK         0.0600 
    209 H209       -0.9633  -23.7024  -51.2876 H         1 UNK         0.0600 
    210 H210       -4.5525  -24.1503  -49.2766 H         1 UNK         0.3000 
    211 H211       -6.7300  -24.2706  -48.9884 H         1 UNK         0.0600 
    212 H212       -6.3696  -26.9557  -50.4278 H         1 UNK         0.0600 
    213 H213       -7.7907  -26.5027  -49.4882 H         1 UNK         0.0600 
    214 H214       -6.2264  -26.6424  -48.7058 H         1 UNK         0.0600 
    215 H215       -7.2524  -26.0224  -51.9978 H         1 UNK         0.3000 
    216 H216       -9.3476  -24.2941  -52.8805 H         1 UNK         0.0600 
    217 H217       -9.3222  -25.7889  -54.8861 H         1 UNK         0.0600 
    218 H218       -9.2760  -26.7220  -53.3991 H         1 UNK         0.0600 
    219 H219       -7.8057  -26.5019  -54.3494 H         1 UNK         0.0600 
    220 H220       -5.8952  -24.2069  -53.3804 H         1 UNK         0.3000 
    221 H221       -6.1759  -21.8818  -55.2414 H         1 UNK         0.0600 
    222 H222       -3.9880  -24.0254  -55.3487 H         1 UNK         0.0600 
    223 H223       -5.3461  -23.9301  -56.4691 H         1 UNK         0.0600 
    224 H224       -4.1706  -22.6308  -56.4149 H         1 UNK         0.0600 
    225 H225       -6.3533  -21.5182  -52.5780 H         1 UNK         0.3000 
    226 H226       -4.0462  -21.2508  -51.0583 H         1 UNK         0.0600 
    227 H227       -5.4637  -19.5850  -49.7367 H         1 UNK         0.0600 
    228 H228       -6.6852  -19.7051  -50.9948 H         1 UNK         0.0600 
    229 H229       -6.2401  -21.1215  -50.0386 H         1 UNK         0.0600 
    230 H230       -5.0612  -19.1687  -53.6478 H         1 UNK         0.3000 
    231 H231       -2.7218  -17.3820  -53.1942 H         1 UNK         0.0600 
    232 H232       -4.8394  -16.0640  -52.9081 H         1 UNK         0.0600 
    233 H233       -5.4247  -16.6473  -54.4655 H         1 UNK         0.0600 
    234 H234       -4.0073  -15.6066  -54.3868 H         1 UNK         0.0600 
    235 H235       -1.5421  -17.0256  -55.0529 H         1 UNK         0.3000 
    236 H236       -0.5346  -17.3078  -56.9577 H         1 UNK         0.0600 
    237 H237       -3.1904  -18.2383  -58.1642 H         1 UNK         0.0600 
    238 H238       -2.6484  -16.5656  -58.0333 H         1 UNK         0.0600 
    239 H239       -1.7741  -17.6993  -59.0508 H         1 UNK         0.0600 
    240 H240       -2.3725  -20.1732  -56.0013 H         1 UNK         0.3000 
    241 H241       -1.9129  -22.3283  -55.9039 H         1 UNK         0.0600 
    242 H242       -1.9755  -22.4348  -59.7415 H         1 UNK         0.3800 
    243 H243       -2.4102  -21.1086  -58.6948 H         1 UNK         0.3800 
    244 H244        1.0343  -21.5909  -56.1993 H         1 UNK         0.0800 
    245 H245        0.4470  -23.1697  -55.7669 H         1 UNK         0.0800 
    246 H246        0.4726  -19.3483  -54.4401 H         1 UNK         0.0800 
    247 H247        1.9810  -20.2348  -54.4254 H         1 UNK         0.0800 
@<TRIPOS>BOND
     1    1    2 1    
     2    1  127 1    
     3    1  128 1    
     4    1  129 1    
     5    2    3 2    
     6    2    4 am   BACKBONE|DICT|INTERRES
     7    4    5 1    
     8    4  130 1    
     9    5    6 1    
    10    5   65 1    
    11    5  131 1    
    12    6    7 1    
    13    6  132 1    
    14    6  133 1    
    15    7    8 1    
    16    8    9 1    
    17    8  134 1    
    18    8  135 1    
    19    9   10 ar   
    20    9   14 ar   
    21   10   11 ar   
    22   10  136 1    
    23   11   12 ar   
    24   11  126 1    
    25   12   13 ar   
    26   12  137 1    
    27   13   14 ar   
    28   13   15 1    
    29   14  138 1    
    30   15   16 1    
    31   15  139 1    
    32   15  140 1    
    33   16   17 1    
    34   17   18 1    
    35   17  141 1    
    36   17  142 1    
    37   18   19 1    
    38   18   67 1    
    39   18  143 1    
    40   19   20 am   BACKBONE|DICT|INTERRES
    41   19  144 1    
    42   20   21 2    
    43   20   22 1    
    44   22   23 1    
    45   22   24 1    
    46   22  145 1    
    47   23  146 1    
    48   23  147 1    
    49   23  148 1    
    50   24   25 am   BACKBONE|DICT|INTERRES
    51   24  149 1    
    52   25   26 2    
    53   25   27 1    
    54   27   28 1    
    55   27   29 1    
    56   27  150 1    
    57   28  151 1    
    58   28  152 1    
    59   28  153 1    
    60   29   30 am   BACKBONE|DICT|INTERRES
    61   29  154 1    
    62   30   31 2    
    63   30   32 1    
    64   32   33 1    
    65   32   34 1    
    66   32  155 1    
    67   33  156 1    
    68   33  157 1    
    69   33  158 1    
    70   34   35 am   BACKBONE|DICT|INTERRES
    71   34  159 1    
    72   35   36 2    
    73   35   37 1    
    74   37   38 1    
    75   37   39 1    
    76   37  160 1    
    77   38  161 1    
    78   38  162 1    
    79   38  163 1    
    80   39   40 am   BACKBONE|DICT|INTERRES
    81   39  164 1    
    82   40   41 2    
    83   40   42 1    
    84   42   43 1    
    85   42   44 1    
    86   42  165 1    
    87   43  166 1    
    88   43  167 1    
    89   43  168 1    
    90   44   45 am   BACKBONE|DICT|INTERRES
    91   44  169 1    
    92   45   46 2    
    93   45   47 1    
    94   47   48 1    
    95   47   49 1    
    96   47  170 1    
    97   48  171 1    
    98   48  172 1    
    99   48  173 1    
   100   49   50 am   BACKBONE|DICT|INTERRES
   101   49  174 1    
   102   50   51 2    
   103   50   52 1    
   104   52   53 1    
   105   52   54 1    
   106   52  175 1    
   107   53  176 1    
   108   53  177 1    
   109   53  178 1    
   110   54   55 am   BACKBONE|DICT|INTERRES
   111   54  179 1    
   112   55   56 2    
   113   55   57 1    
   114   57   58 1    
   115   57   59 1    
   116   57  180 1    
   117   58  181 1    
   118   58  182 1    
   119   58  183 1    
   120   59   60 am   BACKBONE|DICT|INTERRES
   121   59  184 1    
   122   60   61 2    
   123   60   62 1    
   124   62   63 1    
   125   62   64 1    
   126   62  185 1    
   127   63  186 1    
   128   63  187 1    
   129   63  188 1    
   130   64   65 am   BACKBONE|DICT|INTERRES
   131   64  189 1    
   132   65   66 2    
   133   67   68 2    
   134   67   69 am   BACKBONE|DICT|INTERRES
   135   69   70 1    
   136   69  190 1    
   137   70   71 1    
   138   70   72 1    
   139   70  191 1    
   140   71  192 1    
   141   71  193 1    
   142   71  194 1    
   143   72   73 2    
   144   72   74 am   BACKBONE|DICT|INTERRES
   145   74   75 1    
   146   74  195 1    
   147   75   76 1    
   148   75   77 1    
   149   75  196 1    
   150   76  197 1    
   151   76  198 1    
   152   76  199 1    
   153   77   78 2    
   154   77   79 am   BACKBONE|DICT|INTERRES
   155   79   80 1    
   156   79  200 1    
   157   80   81 1    
   158   80   82 1    
   159   80  201 1    
   160   81  202 1    
   161   81  203 1    
   162   81  204 1    
   163   82   83 2    
   164   82   84 am   BACKBONE|DICT|INTERRES
   165   84   85 1    
   166   84  205 1    
   167   85   86 1    
   168   85   87 1    
   169   85  206 1    
   170   86  207 1    
   171   86  208 1    
   172   86  209 1    
   173   87   88 2    
   174   87   89 am   BACKBONE|DICT|INTERRES
   175   89   90 1    
   176   89  210 1    
   177   90   91 1    
   178   90   92 1    
   179   90  211 1    
   180   91  212 1    
   181   91  213 1    
   182   91  214 1    
   183   92   93 2    
   184   92   94 am   BACKBONE|DICT|INTERRES
   185   94   95 1    
   186   94  215 1    
   187   95   96 1    
   188   95   97 1    
   189   95  216 1    
   190   96  217 1    
   191   96  218 1    
   192   96  219 1    
   193   97   98 2    
   194   97   99 am   BACKBONE|DICT|INTERRES
   195   99  100 1    
   196   99  220 1    
   197  100  101 1    
   198  100  102 1    
   199  100  221 1    
   200  101  222 1    
   201  101  223 1    
   202  101  224 1    
   203  102  103 2    
   204  102  104 am   BACKBONE|DICT|INTERRES
   205  104  105 1    
   206  104  225 1    
   207  105  106 1    
   208  105  107 1    
   209  105  226 1    
   210  106  227 1    
   211  106  228 1    
   212  106  229 1    
   213  107  108 2    
   214  107  109 am   BACKBONE|DICT|INTERRES
   215  109  110 1    
   216  109  230 1    
   217  110  111 1    
   218  110  112 1    
   219  110  231 1    
   220  111  232 1    
   221  111  233 1    
   222  111  234 1    
   223  112  113 2    
   224  112  114 am   BACKBONE|DICT|INTERRES
   225  114  115 1    
   226  114  235 1    
   227  115  116 1    
   228  115  117 1    
   229  115  236 1    
   230  116  237 1    
   231  116  238 1    
   232  116  239 1    
   233  117  118 2    
   234  117  119 am   BACKBONE|DICT|INTERRES
   235  119  120 1    
   236  119  240 1    
   237  120  121 1    
   238  120  124 1    
   239  120  241 1    
   240  121  122 am   BACKBONE|DICT|INTERRES
   241  121  123 2    
   242  122  242 1    
   243  122  243 1    
   244  124  125 1    
   245  124  244 1    
   246  124  245 1    
   247  125  126 1    
   248  126  246 1    
   249  126  247 1    
@<TRIPOS>SUBSTRUCTURE
     1 UNK         1 GROUP             0       ****    0 ROOT    
