@<TRIPOS>MOLECULE
3R540
247   249    1
SMALL
USER_CHARGES


@<TRIPOS>ATOM
      1 CA          5.5287  -14.4904  -48.3273 C.3       0 UNK        -0.1800 
      2 C           4.9589  -15.8353  -47.8808 C.2       0 UNK         0.5000 
      3 O           5.7092  -16.6482  -47.3464 O.2       0 UNK        -0.5000 
      4 N           3.6609  -16.1322  -48.0534 N.am      1 UNK        -0.5000 
      5 CA          2.5717  -15.3429  -48.6605 C.3       1 UNK         0.1400 
      6 C6          2.8375  -14.8442  -50.1120 C.3       23 UNK        -0.0398 
      7 S7          3.4634  -16.1287  -51.2506 S.3       23 UNK        -0.2404 
      8 C8          2.0209  -16.4289  -52.3202 C.3       23 UNK        -0.0205 
      9 C9          0.9664  -17.2618  -51.6108 C.ar      23 UNK        -0.0193 
     10 C10        -0.1327  -16.6510  -51.0022 C.ar      23 UNK        -0.1150 
     11 C11        -1.0899  -17.4186  -50.3330 C.ar      23 UNK        -0.0193 
     12 C12        -0.9430  -18.8079  -50.2749 C.ar      23 UNK        -0.1150 
     13 C13         0.1480  -19.4295  -50.8918 C.ar      23 UNK        -0.0193 
     14 C14         1.0947  -18.6513  -51.5618 C.ar      23 UNK        -0.1150 
     15 C15         0.3065  -20.9411  -50.8490 C.3       23 UNK        -0.0205 
     16 S16         1.7358  -21.4627  -49.8444 S.3       23 UNK        -0.2404 
     17 C17         1.2056  -20.9830  -48.1649 C.3       23 UNK        -0.0398 
     18 CA          0.6649  -22.1636  -47.3238 C.3       11 UNK         0.1400 
     19 N           0.5130  -21.7980  -45.9153 N.am      11 UNK        -0.5000 
     20 C           0.1808  -22.6442  -44.9298 C.2       10 UNK         0.5000 
     21 O           0.0133  -23.8526  -45.0886 O.2       10 UNK        -0.5000 
     22 CA         -0.0677  -22.0266  -43.5434 C.3       10 UNK         0.1400 
     23 CB          1.2595  -21.7176  -42.8359 C.3       10 UNK        -0.1800 
     24 N          -0.8879  -20.8169  -43.6110 N.am      10 UNK        -0.5000 
     25 C          -2.1438  -20.7759  -44.0800 C.2       9 UNK         0.5000 
     26 O          -2.7620  -21.7639  -44.4745 O.2       9 UNK        -0.5000 
     27 CA         -2.8063  -19.3919  -44.1631 C.3       9 UNK         0.1400 
     28 CB         -3.3312  -18.9489  -42.7888 C.3       9 UNK        -0.1800 
     29 N          -1.9005  -18.3744  -44.6924 N.am      9 UNK        -0.5000 
     30 C          -1.4407  -18.3404  -45.9509 C.2       8 UNK         0.5000 
     31 O          -1.7219  -19.1724  -46.8141 O.2       8 UNK        -0.5000 
     32 CA         -0.4712  -17.1897  -46.2784 C.3       8 UNK         0.1400 
     33 CB         -1.2307  -15.8540  -46.3266 C.3       8 UNK        -0.1800 
     34 N           0.6110  -17.0752  -45.3003 N.am      8 UNK        -0.5000 
     35 C           1.4792  -18.0456  -44.9812 C.2       7 UNK         0.5000 
     36 O           1.5388  -19.1325  -45.5522 O.2       7 UNK        -0.5000 
     37 CA          2.3919  -17.7726  -43.7755 C.3       7 UNK         0.1400 
     38 CB          3.6589  -17.0202  -44.2062 C.3       7 UNK        -0.1800 
     39 N           1.7054  -17.0094  -42.7348 N.am      7 UNK        -0.5000 
     40 C           0.6815  -17.4539  -41.9927 C.2       6 UNK         0.5000 
     41 O           0.2079  -18.5846  -42.1087 O.2       6 UNK        -0.5000 
     42 CA          0.0495  -16.4570  -40.9962 C.3       6 UNK         0.1400 
     43 CB         -0.4123  -17.1375  -39.6919 C.3       6 UNK        -0.1800 
     44 N           0.8902  -15.2842  -40.7230 N.am      6 UNK        -0.5000 
     45 C           2.0903  -15.2510  -40.1205 C.2       5 UNK         0.5000 
     46 O           2.6267  -16.2317  -39.6049 O.2       5 UNK        -0.5000 
     47 CA          2.8526  -13.9105  -40.1464 C.3       5 UNK         0.1400 
     48 CB          4.1169  -14.0404  -41.0115 C.3       5 UNK        -0.1800 
     49 N           2.0437  -12.8107  -40.6759 N.am      5 UNK        -0.5000 
     50 C           1.2267  -12.0425  -39.9441 C.2       4 UNK         0.5000 
     51 O           1.1013  -12.1412  -38.7232 O.2       4 UNK        -0.5000 
     52 CA          0.3906  -11.0038  -40.7158 C.3       4 UNK         0.1400 
     53 CB          1.1435   -9.6676  -40.8055 C.3       4 UNK        -0.1800 
     54 N           0.0205  -11.4375  -42.0674 N.am      4 UNK        -0.5000 
     55 C          -0.8049  -12.4573  -42.3456 C.2       3 UNK         0.5000 
     56 O          -1.3029  -13.1876  -41.4897 O.2       3 UNK        -0.5000 
     57 CA         -1.0897  -12.7318  -43.8316 C.3       3 UNK         0.1400 
     58 CB         -2.2318  -11.8414  -44.3424 C.3       3 UNK        -0.1800 
     59 N           0.0929  -12.5385  -44.6723 N.am      3 UNK        -0.5000 
     60 C           1.1270  -13.3855  -44.7158 C.2       2 UNK         0.5000 
     61 O           1.1803  -14.4376  -44.0738 O.2       2 UNK        -0.5000 
     62 CA          2.3101  -12.9830  -45.6058 C.3       2 UNK         0.1400 
     63 CB          3.5532  -12.6899  -44.7525 C.3       2 UNK        -0.1800 
     64 N           2.6261  -14.0489  -46.5521 N.am      2 UNK        -0.5000 
     65 C           2.0616  -14.1931  -47.7583 C.2       1 UNK         0.5000 
     66 O           1.1704  -13.4523  -48.1740 O.2       1 UNK        -0.5000 
     67 C          -0.6476  -22.7299  -47.8988 C.2       11 UNK         0.5000 
     68 O          -0.6384  -23.8335  -48.4435 O.2       11 UNK        -0.5000 
     69 N          -1.7562  -21.9943  -47.7309 N.am      12 UNK        -0.5000 
     70 CA         -3.0838  -22.3889  -48.2066 C.3       12 UNK         0.1400 
     71 CB         -4.0793  -21.2544  -47.9298 C.3       12 UNK        -0.1800 
     72 C          -3.5866  -23.7179  -47.6078 C.2       12 UNK         0.5000 
     73 O          -4.2536  -24.4804  -48.3070 O.2       12 UNK        -0.5000 
     74 N          -3.2412  -23.9808  -46.3414 N.am      13 UNK        -0.5000 
     75 CA         -3.5437  -25.2267  -45.6459 C.3       13 UNK         0.1400 
     76 CB         -3.4279  -25.0060  -44.1288 C.3       13 UNK        -0.1800 
     77 C          -2.6487  -26.3945  -46.1005 C.2       13 UNK         0.5000 
     78 O          -3.1720  -27.4491  -46.4631 O.2       13 UNK        -0.5000 
     79 N          -1.3231  -26.2095  -46.0304 N.am      14 UNK        -0.5000 
     80 CA         -0.3474  -27.2888  -46.1885 C.3       14 UNK         0.1400 
     81 CB          0.9226  -26.9497  -45.3918 C.3       14 UNK        -0.1800 
     82 C           0.0096  -27.5916  -47.6520 C.2       14 UNK         0.5000 
     83 O           0.0954  -28.7647  -48.0186 O.2       14 UNK        -0.5000 
     84 N           0.2471  -26.5441  -48.4497 N.am      15 UNK        -0.5000 
     85 CA          0.7258  -26.6522  -49.8293 C.3       15 UNK         0.1400 
     86 CB          1.8196  -25.5973  -50.0634 C.3       15 UNK        -0.1800 
     87 C          -0.4044  -26.4793  -50.8552 C.2       15 UNK         0.5000 
     88 O          -0.3026  -27.0311  -51.9516 O.2       15 UNK        -0.5000 
     89 N          -1.4444  -25.7156  -50.4884 N.am      16 UNK        -0.5000 
     90 CA         -2.5487  -25.2622  -51.3352 C.3       16 UNK         0.1400 
     91 CB         -3.4220  -26.4423  -51.8179 C.3       16 UNK        -0.1800 
     92 C          -2.0125  -24.3510  -52.4547 C.2       16 UNK         0.5000 
     93 O          -1.5415  -23.2573  -52.1430 O.2       16 UNK        -0.5000 
     94 N          -2.0814  -24.8042  -53.7151 N.am      17 UNK        -0.5000 
     95 CA         -1.5766  -24.1840  -54.9503 C.3       17 UNK         0.1400 
     96 CB         -0.0495  -23.9848  -54.8931 C.3       17 UNK        -0.1800 
     97 C          -2.2927  -22.8810  -55.3572 C.2       17 UNK         0.5000 
     98 O          -2.7295  -22.7592  -56.5025 O.2       17 UNK        -0.5000 
     99 N          -2.4390  -21.9463  -54.4132 N.am      18 UNK        -0.5000 
    100 CA        -3.1462  -20.6728  -54.5369 C.3       18 UNK         0.1400 
    101 CB        -2.6003  -19.7118  -53.4655 C.3       18 UNK        -0.1800 
    102 C         -4.6754  -20.8626  -54.4461 C.2       18 UNK         0.5000 
    103 O         -5.3331  -20.2481  -53.6021 O.2       18 UNK        -0.5000 
    104 N         -5.2178  -21.7353  -55.3045 N.am      19 UNK        -0.5000 
    105 CA        -6.6403  -22.0549  -55.4132 C.3       19 UNK         0.1400 
    106 CB        -6.8285  -23.1645  -56.4580 C.3       19 UNK        -0.1800 
    107 C         -7.4700  -20.8119  -55.7774 C.2       19 UNK         0.5000 
    108 O         -7.0721  -20.0554  -56.6663 O.2       19 UNK        -0.5000 
    109 N         -8.5754  -20.6044  -55.0501 N.am      20 UNK        -0.5000 
    110 CA        -9.5018  -19.4617  -55.0874 C.3       20 UNK         0.1400 
    111 CB       -10.1461  -19.2979  -56.4776 C.3       20 UNK        -0.1800 
    112 C         -8.9052  -18.1276  -54.5872 C.2       20 UNK         0.5000 
    113 O         -9.6278  -17.3485  -53.9646 O.2       20 UNK        -0.5000 
    114 N         -7.6134  -17.8879  -54.8463 N.am      21 UNK        -0.5000 
    115 CA        -6.8501  -16.7297  -54.3841 C.3       21 UNK         0.1400 
    116 CB        -5.4893  -16.7001  -55.0986 C.3       21 UNK        -0.1800 
    117 C         -6.6701  -16.7239  -52.8560 C.2       21 UNK         0.5000 
    118 O         -6.9523  -15.7097  -52.2158 O.2       21 UNK        -0.5000 
    119 N         -6.2306  -17.8635  -52.3106 N.am      22 UNK        -0.5000 
    120 CA        -6.0602  -18.1107  -50.8714 C.3       22 UNK         0.1400 
    121 C         -6.7678  -19.4158  -50.4167 C.2       22 UNK         0.5000 
    122 N         -6.8707  -20.4410  -51.2546 N.am      22 UNK        -0.7600 
    123 O         -7.2416  -19.4958  -49.2871 O.2       22 UNK        -0.5000 
    124 C124       -4.5690  -18.1420  -50.4506 C.3       23 UNK        -0.0398 
    125 S125       -3.6945  -16.5728  -50.7680 S.3       23 UNK        -0.2404 
    126 C126       -2.2657  -16.7347  -49.6564 C.3       23 UNK        -0.0205 
    127 H127        4.8399  -13.6644  -48.1629 H         1 UNK         0.0600 
    128 H128        5.7895  -14.5266  -49.3848 H         1 UNK         0.0600 
    129 H129        6.4380  -14.2654  -47.7695 H         1 UNK         0.0600 
    130 H130        3.3664  -17.0491  -47.7495 H         1 UNK         0.3000 
    131 H131        1.7342  -16.0396  -48.7207 H         1 UNK         0.0600 
    132 H132        1.9219  -14.4262  -50.5326 H         1 UNK         0.0800 
    133 H133        3.5483  -14.0186  -50.1214 H         1 UNK         0.0800 
    134 H134        1.6037  -15.4813  -52.6643 H         1 UNK         0.0800 
    135 H135        2.3534  -16.9544  -53.2165 H         1 UNK         0.0800 
    136 H136       -0.2419  -15.5765  -51.0434 H         1 UNK         0.1150 
    137 H137       -1.6773  -19.4030  -49.7501 H         1 UNK         0.1150 
    138 H138        1.9426  -19.1290  -52.0326 H         1 UNK         0.1150 
    139 H139       -0.6009  -21.4135  -50.4727 H         1 UNK         0.0800 
    140 H140        0.4388  -21.3119  -51.8663 H         1 UNK         0.0800 
    141 H141        0.4849  -20.1657  -48.2057 H         1 UNK         0.0800 
    142 H142        2.0883  -20.5695  -47.6766 H         1 UNK         0.0800 
    143 H143        1.4064  -22.9649  -47.3594 H         1 UNK         0.0600 
    144 H144        0.6656  -20.8184  -45.6900 H         1 UNK         0.3000 
    145 H145       -0.6100  -22.7608  -42.9441 H         1 UNK         0.0600 
    146 H146        1.0902  -21.3248  -41.8332 H         1 UNK         0.0600 
    147 H147        1.8664  -22.6183  -42.7355 H         1 UNK         0.0600 
    148 H148        1.8482  -20.9850  -43.3875 H         1 UNK         0.0600 
    149 H149       -0.4688  -19.9621  -43.2549 H         1 UNK         0.3000 
    150 H150       -3.6576  -19.4710  -44.8426 H         1 UNK         0.0600 
    151 H151       -4.0309  -19.6820  -42.3856 H         1 UNK         0.0600 
    152 H152       -3.8606  -17.9984  -42.8566 H         1 UNK         0.0600 
    153 H153       -2.5251  -18.8331  -42.0638 H         1 UNK         0.0600 
    154 H154       -1.5786  -17.6743  -44.0425 H         1 UNK         0.3000 
    155 H155       -0.0336  -17.3862  -47.2592 H         1 UNK         0.0600 
    156 H156       -1.5586  -15.5487  -45.3340 H         1 UNK         0.0600 
    157 H157       -2.1255  -15.9177  -46.9434 H         1 UNK         0.0600 
    158 H158       -0.6108  -15.0568  -46.7335 H         1 UNK         0.0600 
    159 H159        0.6700  -16.2045  -44.7810 H         1 UNK         0.3000 
    160 H160        2.6903  -18.7333  -43.3524 H         1 UNK         0.0600 
    161 H161        3.4258  -16.0363  -44.6109 H         1 UNK         0.0600 
    162 H162        4.2001  -17.5735  -44.9749 H         1 UNK         0.0600 
    163 H163        4.3393  -16.8824  -43.3656 H         1 UNK         0.0600 
    164 H164        1.9604  -16.0355  -42.6489 H         1 UNK         0.3000 
    165 H165       -0.8413  -16.0704  -41.4933 H         1 UNK         0.0600 
    166 H166        0.4115  -17.6305  -39.1757 H         1 UNK         0.0600 
    167 H167       -0.8559  -16.4154  -39.0065 H         1 UNK         0.0600 
    168 H168       -1.1681  -17.8973  -39.8944 H         1 UNK         0.0600 
    169 H169        0.5227  -14.4118  -41.0801 H         1 UNK         0.3000 
    170 H170        3.1593  -13.6813  -39.1236 H         1 UNK         0.0600 
    171 H171        3.8764  -14.3494  -42.0286 H         1 UNK         0.0600 
    172 H172        4.6618  -13.0977  -41.0638 H         1 UNK         0.0600 
    173 H173        4.7983  -14.7852  -40.5983 H         1 UNK         0.0600 
    174 H174        2.0809  -12.6576  -41.6725 H         1 UNK         0.3000 
    175 H175       -0.5302  -10.8395  -40.1521 H         1 UNK         0.0600 
    176 H176        0.5288   -8.8989  -41.2742 H         1 UNK         0.0600 
    177 H177        1.4143   -9.3043  -39.8132 H         1 UNK         0.0600 
    178 H178        2.0639   -9.7613  -41.3832 H         1 UNK         0.0600 
    179 H179        0.3892  -10.8940  -42.8338 H         1 UNK         0.3000 
    180 H180       -1.4116  -13.7708  -43.9127 H         1 UNK         0.0600 
    181 H181       -1.9690  -10.7836  -44.3046 H         1 UNK         0.0600 
    182 H182       -3.1320  -11.9781  -43.7415 H         1 UNK         0.0600 
    183 H183       -2.4903  -12.0869  -45.3727 H         1 UNK         0.0600 
    184 H184        0.1113  -11.7061  -45.2439 H         1 UNK         0.3000 
    185 H185        2.0560  -12.0723  -46.1527 H         1 UNK         0.0600 
    186 H186        3.9060  -13.5803  -44.2327 H         1 UNK         0.0600 
    187 H187        4.3726  -12.3217  -45.3700 H         1 UNK         0.0600 
    188 H188        3.3457  -11.9273  -44.0007 H         1 UNK         0.0600 
    189 H189        3.3122  -14.7270  -46.2579 H         1 UNK         0.3000 
    190 H190       -1.6912  -21.0924  -47.2672 H         1 UNK         0.3000 
    191 H191       -3.0137  -22.5207  -49.2883 H         1 UNK         0.0600 
    192 H192       -3.7543  -20.3282  -48.4007 H         1 UNK         0.0600 
    193 H193       -5.0676  -21.4931  -48.3249 H         1 UNK         0.0600 
    194 H194       -4.1861  -21.0656  -46.8612 H         1 UNK         0.0600 
    195 H195       -2.7489  -23.2686  -45.8115 H         1 UNK         0.3000 
    196 H196       -4.5794  -25.4979  -45.8617 H         1 UNK         0.0600 
    197 H197       -3.6450  -25.9240  -43.5814 H         1 UNK         0.0600 
    198 H198       -4.1343  -24.2488  -43.7880 H         1 UNK         0.0600 
    199 H199       -2.4278  -24.6791  -43.8416 H         1 UNK         0.0600 
    200 H200       -0.9563  -25.3081  -45.7316 H         1 UNK         0.3000 
    201 H201       -0.7650  -28.2010  -45.7564 H         1 UNK         0.0600 
    202 H202        0.6938  -26.7726  -44.3408 H         1 UNK         0.0600 
    203 H203        1.4183  -26.0595  -45.7809 H         1 UNK         0.0600 
    204 H204        1.6410  -27.7692  -45.4355 H         1 UNK         0.0600 
    205 H205        0.0785  -25.6038  -48.1057 H         1 UNK         0.3000 
    206 H206        1.1744  -27.6338  -49.9962 H         1 UNK         0.0600 
    207 H207        2.2343  -25.6830  -51.0685 H         1 UNK         0.0600 
    208 H208        1.4346  -24.5829  -49.9567 H         1 UNK         0.0600 
    209 H209        2.6431  -25.7191  -49.3599 H         1 UNK         0.0600 
    210 H210       -1.3580  -25.2291  -49.6014 H         1 UNK         0.3000 
    211 H211       -3.1773  -24.6282  -50.7109 H         1 UNK         0.0600 
    212 H212       -2.8745  -27.1455  -52.4454 H         1 UNK         0.0600 
    213 H213       -4.2788  -26.0845  -52.3901 H         1 UNK         0.0600 
    214 H214       -3.8165  -27.0000  -50.9684 H         1 UNK         0.0600 
    215 H215       -2.4992  -25.7150  -53.8443 H         1 UNK         0.3000 
    216 H216       -1.7773  -24.9077  -55.7419 H         1 UNK         0.0600 
    217 H217        0.4606  -24.9216  -54.6681 H         1 UNK         0.0600 
    218 H218        0.2418  -23.2561  -54.1360 H         1 UNK         0.0600 
    219 H219        0.3317  -23.6279  -55.8505 H         1 UNK         0.0600 
    220 H220       -2.0815  -22.1789  -53.4887 H         1 UNK         0.3000 
    221 H221       -2.9331  -20.2405  -55.5165 H         1 UNK         0.0600 
    222 H222       -1.5388  -19.5151  -53.6173 H         1 UNK         0.0600 
    223 H223       -3.1126  -18.7491  -53.4896 H         1 UNK         0.0600 
    224 H224       -2.7173  -20.1268  -52.4644 H         1 UNK         0.0600 
    225 H225       -4.5961  -22.1821  -55.9694 H         1 UNK         0.3000 
    226 H226       -6.9693  -22.4329  -54.4430 H         1 UNK         0.0600 
    227 H227       -6.2765  -24.0635  -56.1829 H         1 UNK         0.0600 
    228 H228       -7.8794  -23.4425  -56.5479 H         1 UNK         0.0600 
    229 H229       -6.4859  -22.8493  -57.4446 H         1 UNK         0.0600 
    230 H230       -8.7856  -21.2792  -54.3277 H         1 UNK         0.3000 
    231 H231      -10.3014  -19.7173  -54.3902 H         1 UNK         0.0600 
    232 H232      -10.9258  -18.5355  -56.4549 H         1 UNK         0.0600 
    233 H233      -10.6097  -20.2267  -56.8098 H         1 UNK         0.0600 
    234 H234       -9.4209  -18.9946  -57.2329 H         1 UNK         0.0600 
    235 H235       -7.1196  -18.5734  -55.4082 H         1 UNK         0.3000 
    236 H236       -7.4007  -15.8284  -54.6616 H         1 UNK         0.0600 
    237 H237       -4.8921  -15.8501  -54.7661 H         1 UNK         0.0600 
    238 H238       -4.9107  -17.6038  -54.9046 H         1 UNK         0.0600 
    239 H239       -5.6137  -16.6089  -56.1777 H         1 UNK         0.0600 
    240 H240       -6.0171  -18.6496  -52.9168 H         1 UNK         0.3000 
    241 H241       -6.5422  -17.3071  -50.3113 H         1 UNK         0.0600 
    242 H242       -7.3390  -21.2785  -50.9491 H         1 UNK         0.3800 
    243 H243       -6.4054  -20.4224  -52.1582 H         1 UNK         0.3800 
    244 H244       -4.4984  -18.3535  -49.3831 H         1 UNK         0.0800 
    245 H245       -4.0417  -18.9471  -50.9619 H         1 UNK         0.0800 
    246 H246       -1.9688  -15.7368  -49.3307 H         1 UNK         0.0800 
    247 H247       -2.5502  -17.2805  -48.7570 H         1 UNK         0.0800 
@<TRIPOS>BOND
     1    1    2 1    
     2    1  127 1    
     3    1  128 1    
     4    1  129 1    
     5    2    3 2    
     6    2    4 am   BACKBONE|DICT|INTERRES
     7    4    5 1    
     8    4  130 1    
     9    5    6 1    
    10    5   65 1    
    11    5  131 1    
    12    6    7 1    
    13    6  132 1    
    14    6  133 1    
    15    7    8 1    
    16    8    9 1    
    17    8  134 1    
    18    8  135 1    
    19    9   10 ar   
    20    9   14 ar   
    21   10   11 ar   
    22   10  136 1    
    23   11   12 ar   
    24   11  126 1    
    25   12   13 ar   
    26   12  137 1    
    27   13   14 ar   
    28   13   15 1    
    29   14  138 1    
    30   15   16 1    
    31   15  139 1    
    32   15  140 1    
    33   16   17 1    
    34   17   18 1    
    35   17  141 1    
    36   17  142 1    
    37   18   19 1    
    38   18   67 1    
    39   18  143 1    
    40   19   20 am   BACKBONE|DICT|INTERRES
    41   19  144 1    
    42   20   21 2    
    43   20   22 1    
    44   22   23 1    
    45   22   24 1    
    46   22  145 1    
    47   23  146 1    
    48   23  147 1    
    49   23  148 1    
    50   24   25 am   BACKBONE|DICT|INTERRES
    51   24  149 1    
    52   25   26 2    
    53   25   27 1    
    54   27   28 1    
    55   27   29 1    
    56   27  150 1    
    57   28  151 1    
    58   28  152 1    
    59   28  153 1    
    60   29   30 am   BACKBONE|DICT|INTERRES
    61   29  154 1    
    62   30   31 2    
    63   30   32 1    
    64   32   33 1    
    65   32   34 1    
    66   32  155 1    
    67   33  156 1    
    68   33  157 1    
    69   33  158 1    
    70   34   35 am   BACKBONE|DICT|INTERRES
    71   34  159 1    
    72   35   36 2    
    73   35   37 1    
    74   37   38 1    
    75   37   39 1    
    76   37  160 1    
    77   38  161 1    
    78   38  162 1    
    79   38  163 1    
    80   39   40 am   BACKBONE|DICT|INTERRES
    81   39  164 1    
    82   40   41 2    
    83   40   42 1    
    84   42   43 1    
    85   42   44 1    
    86   42  165 1    
    87   43  166 1    
    88   43  167 1    
    89   43  168 1    
    90   44   45 am   BACKBONE|DICT|INTERRES
    91   44  169 1    
    92   45   46 2    
    93   45   47 1    
    94   47   48 1    
    95   47   49 1    
    96   47  170 1    
    97   48  171 1    
    98   48  172 1    
    99   48  173 1    
   100   49   50 am   BACKBONE|DICT|INTERRES
   101   49  174 1    
   102   50   51 2    
   103   50   52 1    
   104   52   53 1    
   105   52   54 1    
   106   52  175 1    
   107   53  176 1    
   108   53  177 1    
   109   53  178 1    
   110   54   55 am   BACKBONE|DICT|INTERRES
   111   54  179 1    
   112   55   56 2    
   113   55   57 1    
   114   57   58 1    
   115   57   59 1    
   116   57  180 1    
   117   58  181 1    
   118   58  182 1    
   119   58  183 1    
   120   59   60 am   BACKBONE|DICT|INTERRES
   121   59  184 1    
   122   60   61 2    
   123   60   62 1    
   124   62   63 1    
   125   62   64 1    
   126   62  185 1    
   127   63  186 1    
   128   63  187 1    
   129   63  188 1    
   130   64   65 am   BACKBONE|DICT|INTERRES
   131   64  189 1    
   132   65   66 2    
   133   67   68 2    
   134   67   69 am   BACKBONE|DICT|INTERRES
   135   69   70 1    
   136   69  190 1    
   137   70   71 1    
   138   70   72 1    
   139   70  191 1    
   140   71  192 1    
   141   71  193 1    
   142   71  194 1    
   143   72   73 2    
   144   72   74 am   BACKBONE|DICT|INTERRES
   145   74   75 1    
   146   74  195 1    
   147   75   76 1    
   148   75   77 1    
   149   75  196 1    
   150   76  197 1    
   151   76  198 1    
   152   76  199 1    
   153   77   78 2    
   154   77   79 am   BACKBONE|DICT|INTERRES
   155   79   80 1    
   156   79  200 1    
   157   80   81 1    
   158   80   82 1    
   159   80  201 1    
   160   81  202 1    
   161   81  203 1    
   162   81  204 1    
   163   82   83 2    
   164   82   84 am   BACKBONE|DICT|INTERRES
   165   84   85 1    
   166   84  205 1    
   167   85   86 1    
   168   85   87 1    
   169   85  206 1    
   170   86  207 1    
   171   86  208 1    
   172   86  209 1    
   173   87   88 2    
   174   87   89 am   BACKBONE|DICT|INTERRES
   175   89   90 1    
   176   89  210 1    
   177   90   91 1    
   178   90   92 1    
   179   90  211 1    
   180   91  212 1    
   181   91  213 1    
   182   91  214 1    
   183   92   93 2    
   184   92   94 am   BACKBONE|DICT|INTERRES
   185   94   95 1    
   186   94  215 1    
   187   95   96 1    
   188   95   97 1    
   189   95  216 1    
   190   96  217 1    
   191   96  218 1    
   192   96  219 1    
   193   97   98 2    
   194   97   99 am   BACKBONE|DICT|INTERRES
   195   99  100 1    
   196   99  220 1    
   197  100  101 1    
   198  100  102 1    
   199  100  221 1    
   200  101  222 1    
   201  101  223 1    
   202  101  224 1    
   203  102  103 2    
   204  102  104 am   BACKBONE|DICT|INTERRES
   205  104  105 1    
   206  104  225 1    
   207  105  106 1    
   208  105  107 1    
   209  105  226 1    
   210  106  227 1    
   211  106  228 1    
   212  106  229 1    
   213  107  108 2    
   214  107  109 am   BACKBONE|DICT|INTERRES
   215  109  110 1    
   216  109  230 1    
   217  110  111 1    
   218  110  112 1    
   219  110  231 1    
   220  111  232 1    
   221  111  233 1    
   222  111  234 1    
   223  112  113 2    
   224  112  114 am   BACKBONE|DICT|INTERRES
   225  114  115 1    
   226  114  235 1    
   227  115  116 1    
   228  115  117 1    
   229  115  236 1    
   230  116  237 1    
   231  116  238 1    
   232  116  239 1    
   233  117  118 2    
   234  117  119 am   BACKBONE|DICT|INTERRES
   235  119  120 1    
   236  119  240 1    
   237  120  121 1    
   238  120  124 1    
   239  120  241 1    
   240  121  122 am   BACKBONE|DICT|INTERRES
   241  121  123 2    
   242  122  242 1    
   243  122  243 1    
   244  124  125 1    
   245  124  244 1    
   246  124  245 1    
   247  125  126 1    
   248  126  246 1    
   249  126  247 1    
@<TRIPOS>SUBSTRUCTURE
     1 UNK         1 GROUP             0       ****    0 ROOT    
