@<TRIPOS>MOLECULE
3R540
247   249    1
SMALL
USER_CHARGES


@<TRIPOS>ATOM
      1 CA          5.9388  -17.6375  -45.2206 C.3       0 UNK        -0.1800 
      2 C           6.0207  -17.6790  -46.7455 C.2       0 UNK         0.5000 
      3 O           6.7032  -18.5456  -47.2883 O.2       0 UNK        -0.5000 
      4 N           5.3398  -16.7879  -47.4784 N.am      1 UNK        -0.5000 
      5 CA          4.5562  -15.6475  -46.9892 C.3       1 UNK         0.1400 
      6 C6          3.6292  -15.0735  -48.0903 C.3       23 UNK        -0.0398 
      7 S7          2.4665  -16.3135  -48.7549 S.3       23 UNK        -0.2404 
      8 C8          1.2378  -15.2354  -49.5442 C.3       23 UNK        -0.0205 
      9 C9          0.1831  -16.0341  -50.2961 C.ar      23 UNK        -0.0193 
     10 C10         0.4760  -16.5706  -51.5527 C.ar      23 UNK        -0.1150 
     11 C11        -0.5053  -17.2395  -52.2911 C.ar      23 UNK        -0.0193 
     12 C12        -1.7912  -17.3778  -51.7547 C.ar      23 UNK        -0.1150 
     13 C13        -2.0960  -16.8516  -50.4938 C.ar      23 UNK        -0.0193 
     14 C14        -1.1010  -16.1885  -49.7671 C.ar      23 UNK        -0.1150 
     15 C15        -3.5167  -16.9271  -49.9462 C.3       23 UNK        -0.0205 
     16 S16        -3.9589  -18.5687  -49.2945 S.3       23 UNK        -0.2404 
     17 C17        -2.8202  -18.7628  -47.8821 C.3       23 UNK        -0.0398 
     18 CA         -1.8829  -19.9835  -48.0485 C.3       11 UNK         0.1400 
     19 N          -0.6516  -19.8497  -47.2646 N.am      11 UNK        -0.5000 
     20 C           0.4028  -20.6729  -47.3532 C.2       10 UNK         0.5000 
     21 O           0.4661  -21.6136  -48.1411 O.2       10 UNK        -0.5000 
     22 CA          1.5547  -20.4618  -46.3563 C.3       10 UNK         0.1400 
     23 CB          2.4848  -19.3314  -46.8100 C.3       10 UNK        -0.1800 
     24 N           1.0791  -20.1948  -45.0012 N.am      10 UNK        -0.5000 
     25 C           0.3914  -21.0676  -44.2536 C.2       9 UNK         0.5000 
     26 O           0.1345  -22.2175  -44.6117 O.2       9 UNK        -0.5000 
     27 CA         -0.1348  -20.5549  -42.9001 C.3       9 UNK         0.1400 
     28 CB          0.9734  -20.5792  -41.8371 C.3       9 UNK        -0.1800 
     29 N          -0.7043  -19.2082  -42.9867 N.am      9 UNK        -0.5000 
     30 C          -1.7843  -18.8878  -43.7146 C.2       8 UNK         0.5000 
     31 O          -2.4363  -19.7026  -44.3675 O.2       8 UNK        -0.5000 
     32 CA         -2.1742  -17.3996  -43.7650 C.3       8 UNK         0.1400 
     33 CB         -2.9070  -16.9793  -42.4825 C.3       8 UNK        -0.1800 
     34 N          -1.0235  -16.5243  -43.9941 N.am      8 UNK        -0.5000 
     35 C          -0.2675  -16.5515  -45.1011 C.2       7 UNK         0.5000 
     36 O          -0.4936  -17.2833  -46.0616 O.2       7 UNK        -0.5000 
     37 CA          0.9826  -15.6591  -45.1246 C.3       7 UNK         0.1400 
     38 CB          0.6263  -14.2073  -45.4735 C.3       7 UNK        -0.1800 
     39 N           1.7221  -15.6976  -43.8657 N.am      7 UNK        -0.5000 
     40 C           2.2968  -16.7883  -43.3419 C.2       6 UNK         0.5000 
     41 O           2.3324  -17.8803  -43.9042 O.2       6 UNK        -0.5000 
     42 CA          2.8922  -16.6420  -41.9329 C.3       6 UNK         0.1400 
     43 CB          4.2874  -16.0008  -41.9879 C.3       6 UNK        -0.1800 
     44 N           2.0222  -15.8569  -41.0577 N.am      6 UNK        -0.5000 
     45 C           0.8330  -16.2735  -40.6010 C.2       5 UNK         0.5000 
     46 O           0.3549  -17.3809  -40.8490 O.2       5 UNK        -0.5000 
     47 CA          0.0313  -15.2688  -39.7528 C.3       5 UNK         0.1400 
     48 CB          0.5036  -15.2955  -38.2915 C.3       5 UNK        -0.1800 
     49 N           0.1186  -13.9000  -40.2665 N.am      5 UNK        -0.5000 
     50 C          -0.4315  -13.4938  -41.4192 C.2       4 UNK         0.5000 
     51 O          -1.0863  -14.2279  -42.1586 O.2       4 UNK        -0.5000 
     52 CA         -0.1607  -12.0366  -41.8441 C.3       4 UNK         0.1400 
     53 CB         -1.1427  -11.0810  -41.1499 C.3       4 UNK        -0.1800 
     54 N           1.2147  -11.5798  -41.6067 N.am      4 UNK        -0.5000 
     55 C           2.3128  -12.1852  -42.0777 C.2       3 UNK         0.5000 
     56 O           2.2855  -13.2545  -42.6895 O.2       3 UNK        -0.5000 
     57 CA          3.6679  -11.5091  -41.7883 C.3       3 UNK         0.1400 
     58 CB          4.0628  -11.7154  -40.3172 C.3       3 UNK        -0.1800 
     59 N           4.7323  -12.0562  -42.6336 N.am      3 UNK        -0.5000 
     60 C           4.7979  -11.9335  -43.9662 C.2       2 UNK         0.5000 
     61 O           4.0592  -11.1993  -44.6245 O.2       2 UNK        -0.5000 
     62 CA          5.8184  -12.8158  -44.6997 C.3       2 UNK         0.1400 
     63 CB          6.9197  -13.4126  -43.7948 C.3       2 UNK        -0.1800 
     64 N           5.0759  -13.8856  -45.3611 N.am      2 UNK        -0.5000 
     65 C           5.4900  -14.5437  -46.4486 C.2       1 UNK         0.5000 
     66 O           6.5548  -14.3091  -47.0252 O.2       1 UNK        -0.5000 
     67 C          -2.6206  -21.3031  -47.7371 C.2       11 UNK         0.5000 
     68 O          -3.0806  -21.9768  -48.6591 O.2       11 UNK        -0.5000 
     69 N          -2.6969  -21.6814  -46.4536 N.am      12 UNK        -0.5000 
     70 CA         -3.2711  -22.9518  -46.0043 C.3       12 UNK         0.1400 
     71 CB         -3.3293  -22.9845  -44.4704 C.3       12 UNK        -0.1800 
     72 C          -2.5231  -24.1803  -46.5587 C.2       12 UNK         0.5000 
     73 O          -3.1647  -25.1724  -46.9031 O.2       12 UNK        -0.5000 
     74 N          -1.1921  -24.0805  -46.6604 N.am      13 UNK        -0.5000 
     75 CA         -0.3236  -25.1209  -47.2025 C.3       13 UNK         0.1400 
     76 CB          1.1031  -24.9172  -46.6663 C.3       13 UNK        -0.1800 
     77 C          -0.3334  -25.1683  -48.7425 C.2       13 UNK         0.5000 
     78 O          -0.6097  -26.2225  -49.3158 O.2       13 UNK        -0.5000 
     79 N           0.0056  -24.0433  -49.3850 N.am      14 UNK        -0.5000 
     80 CA          0.3160  -23.9699  -50.8153 C.3       14 UNK         0.1400 
     81 CB          1.3584  -22.8626  -51.0397 C.3       14 UNK        -0.1800 
     82 C          -0.9054  -23.7170  -51.7124 C.2       14 UNK         0.5000 
     83 O          -0.8273  -23.9868  -52.9136 O.2       14 UNK        -0.5000 
     84 N          -1.9910  -23.1784  -51.1451 N.am      15 UNK        -0.5000 
     85 CA         -3.1847  -22.7795  -51.8885 C.3       15 UNK         0.1400 
     86 CB         -3.2983  -21.2450  -51.8578 C.3       15 UNK        -0.1800 
     87 C          -4.4673  -23.4202  -51.3515 C.2       15 UNK         0.5000 
     88 O          -5.5302  -23.1251  -51.8963 O.2       15 UNK        -0.5000 
     89 N          -4.3730  -24.2446  -50.2979 N.am      16 UNK        -0.5000 
     90 CA         -5.4948  -24.8506  -49.5698 C.3       16 UNK         0.1400 
     91 CB         -6.1977  -25.9096  -50.4453 C.3       16 UNK        -0.1800 
     92 C          -6.4676  -23.7905  -49.0045 C.2       16 UNK         0.5000 
     93 O          -7.6831  -23.9782  -49.0527 O.2       16 UNK        -0.5000 
     94 N          -5.9036  -22.6697  -48.5264 N.am      17 UNK        -0.5000 
     95 CA         -6.5917  -21.4504  -48.0863 C.3       17 UNK         0.1400 
     96 CB         -7.4628  -21.7117  -46.8403 C.3       17 UNK        -0.1800 
     97 C          -7.3518  -20.7772  -49.2490 C.2       17 UNK         0.5000 
     98 O          -8.5158  -20.4009  -49.1075 O.2       17 UNK        -0.5000 
     99 N          -6.6536  -20.6720  -50.3883 N.am      18 UNK        -0.5000 
    100 CA        -7.0567  -20.1005  -51.6780 C.3       18 UNK         0.1400 
    101 CB        -7.5524  -18.6480  -51.5295 C.3       18 UNK        -0.1800 
    102 C         -8.0281  -20.9709  -52.5018 C.2       18 UNK         0.5000 
    103 O         -8.3596  -20.5864  -53.6238 O.2       18 UNK        -0.5000 
    104 N         -8.4333  -22.1392  -51.9843 N.am      19 UNK        -0.5000 
    105 CA        -9.3292  -23.0816  -52.6596 C.3       19 UNK         0.1400 
    106 CB        -9.8247  -24.1264  -51.6496 C.3       19 UNK        -0.1800 
    107 C         -8.6948  -23.7729  -53.8834 C.2       19 UNK         0.5000 
    108 O         -9.4154  -24.1014  -54.8265 O.2       19 UNK        -0.5000 
    109 N         -7.3689  -23.9681  -53.8599 N.am      20 UNK        -0.5000 
    110 CA        -6.5893  -24.5589  -54.9527 C.3       20 UNK         0.1400 
    111 CB        -5.5048  -25.4746  -54.3598 C.3       20 UNK        -0.1800 
    112 C         -5.9644  -23.4920  -55.8756 C.2       20 UNK         0.5000 
    113 O         -5.2681  -23.8547  -56.8237 O.2       20 UNK        -0.5000 
    114 N         -6.2108  -22.2048  -55.5839 N.am      21 UNK        -0.5000 
    115 CA        -5.7803  -21.0161  -56.3330 C.3       21 UNK         0.1400 
    116 CB        -6.4022  -21.0017  -57.7455 C.3       21 UNK        -0.1800 
    117 C         -4.2526  -20.7763  -56.3506 C.2       21 UNK         0.5000 
    118 O         -3.7672  -20.0381  -57.2087 O.2       21 UNK        -0.5000 
    119 N         -3.5405  -21.3518  -55.3717 N.am      22 UNK        -0.5000 
    120 CA        -2.0918  -21.2316  -55.1326 C.3       22 UNK         0.1400 
    121 C         -1.2452  -22.0522  -56.1433 C.2       22 UNK         0.5000 
    122 N         -0.6544  -23.1584  -55.7084 N.am      22 UNK        -0.7600 
    123 O         -1.0971  -21.6898  -57.3074 O.2       22 UNK        -0.5000 
    124 C124       -1.6270  -19.7558  -54.9884 C.3       23 UNK        -0.0398 
    125 S125       -0.2295  -19.5546  -53.8329 S.3       23 UNK        -0.2404 
    126 C126       -0.1846  -17.7384  -53.6950 C.3       23 UNK        -0.0205 
    127 H127        6.4380  -16.7532  -44.8254 H         1 UNK         0.0600 
    128 H128        6.4250  -18.5128  -44.7895 H         1 UNK         0.0600 
    129 H129        4.9033  -17.6424  -44.8839 H         1 UNK         0.0600 
    130 H130        5.4121  -16.8452  -48.4835 H         1 UNK         0.3000 
    131 H131        3.9278  -15.9970  -46.1695 H         1 UNK         0.0600 
    132 H132        3.0499  -14.2370  -47.6949 H         1 UNK         0.0800 
    133 H133        4.2153  -14.6763  -48.9214 H         1 UNK         0.0800 
    134 H134        1.7418  -14.5604  -50.2377 H         1 UNK         0.0800 
    135 H135        0.7702  -14.6059  -48.7861 H         1 UNK         0.0800 
    136 H136        1.4667  -16.4408  -51.9656 H         1 UNK         0.1150 
    137 H137       -2.5608  -17.8763  -52.3271 H         1 UNK         0.1150 
    138 H138       -1.3334  -15.7649  -48.7999 H         1 UNK         0.1150 
    139 H139       -3.6674  -16.1818  -49.1637 H         1 UNK         0.0800 
    140 H140       -4.2180  -16.6715  -50.7418 H         1 UNK         0.0800 
    141 H141       -3.3957  -18.8207  -46.9564 H         1 UNK         0.0800 
    142 H142       -2.2321  -17.8513  -47.8006 H         1 UNK         0.0800 
    143 H143       -1.5696  -20.0280  -49.0944 H         1 UNK         0.0600 
    144 H144       -0.6029  -19.0559  -46.6302 H         1 UNK         0.3000 
    145 H145        2.1380  -21.3846  -46.3293 H         1 UNK         0.0600 
    146 H146        3.3732  -19.2793  -46.1815 H         1 UNK         0.0600 
    147 H147        2.8188  -19.4792  -47.8377 H         1 UNK         0.0600 
    148 H148        1.9843  -18.3656  -46.7586 H         1 UNK         0.0600 
    149 H149        1.3049  -19.2824  -44.6129 H         1 UNK         0.3000 
    150 H150       -0.9290  -21.2310  -42.5771 H         1 UNK         0.0600 
    151 H151        1.3986  -21.5787  -41.7388 H         1 UNK         0.0600 
    152 H152        0.5869  -20.2917  -40.8592 H         1 UNK         0.0600 
    153 H153        1.7874  -19.8983  -42.0871 H         1 UNK         0.0600 
    154 H154       -0.2412  -18.4824  -42.4491 H         1 UNK         0.3000 
    155 H155       -2.8616  -17.2681  -44.6033 H         1 UNK         0.0600 
    156 H156       -2.2601  -17.0423  -41.6075 H         1 UNK         0.0600 
    157 H157       -3.7717  -17.6184  -42.2993 H         1 UNK         0.0600 
    158 H158       -3.2706  -15.9543  -42.5557 H         1 UNK         0.0600 
    159 H159       -0.8094  -15.8516  -43.2645 H         1 UNK         0.3000 
    160 H160        1.6356  -16.0449  -45.9064 H         1 UNK         0.0600 
    161 H161       -0.0089  -13.7557  -44.7115 H         1 UNK         0.0600 
    162 H162        0.0904  -14.1538  -46.4217 H         1 UNK         0.0600 
    163 H163        1.5214  -13.5923  -45.5678 H         1 UNK         0.0600 
    164 H164        1.7755  -14.8249  -43.3420 H         1 UNK         0.3000 
    165 H165        2.9940  -17.6418  -41.5055 H         1 UNK         0.0600 
    166 H166        4.7178  -15.9067  -40.9909 H         1 UNK         0.0600 
    167 H167        4.9723  -16.6089  -42.5789 H         1 UNK         0.0600 
    168 H168        4.2609  -15.0083  -42.4360 H         1 UNK         0.0600 
    169 H169        2.3076  -14.9081  -40.8671 H         1 UNK         0.3000 
    170 H170       -1.0165  -15.5760  -39.7768 H         1 UNK         0.0600 
    171 H171        0.4341  -16.3025  -37.8779 H         1 UNK         0.0600 
    172 H172        1.5408  -14.9718  -38.1955 H         1 UNK         0.0600 
    173 H173       -0.1102  -14.6460  -37.6672 H         1 UNK         0.0600 
    174 H174        0.6480  -13.2352  -39.7220 H         1 UNK         0.3000 
    175 H175       -0.3375  -11.9774  -42.9199 H         1 UNK         0.0600 
    176 H176       -0.9853  -11.0547  -40.0710 H         1 UNK         0.0600 
    177 H177       -1.0394  -10.0644  -41.5297 H         1 UNK         0.0600 
    178 H178       -2.1752  -11.3873  -41.3240 H         1 UNK         0.0600 
    179 H179        1.3162  -10.7141  -41.0968 H         1 UNK         0.3000 
    180 H180        3.5746  -10.4404  -41.9912 H         1 UNK         0.0600 
    181 H181        4.1567  -12.7738  -40.0698 H         1 UNK         0.0600 
    182 H182        3.3205  -11.2855  -39.6437 H         1 UNK         0.0600 
    183 H183        5.0151  -11.2339  -40.0942 H         1 UNK         0.0600 
    184 H184        5.3716  -12.6940  -42.1841 H         1 UNK         0.3000 
    185 H185        6.2935  -12.1827  -45.4523 H         1 UNK         0.0600 
    186 H186        7.4391  -12.6315  -43.2380 H         1 UNK         0.0600 
    187 H187        6.5205  -14.1304  -43.0779 H         1 UNK         0.0600 
    188 H188        7.6722  -13.9315  -44.3887 H         1 UNK         0.0600 
    189 H189        4.1656  -14.0793  -44.9659 H         1 UNK         0.3000 
    190 H190       -2.3511  -21.0551  -45.7312 H         1 UNK         0.3000 
    191 H191       -4.2971  -23.0001  -46.3695 H         1 UNK         0.0600 
    192 H192       -2.3365  -22.9300  -44.0252 H         1 UNK         0.0600 
    193 H193       -3.7961  -23.9051  -44.1180 H         1 UNK         0.0600 
    194 H194       -3.9164  -22.1526  -44.0809 H         1 UNK         0.0600 
    195 H195       -0.7419  -23.2403  -46.3160 H         1 UNK         0.3000 
    196 H196       -0.6751  -26.0892  -46.8394 H         1 UNK         0.0600 
    197 H197        1.7794  -25.6808  -47.0521 H         1 UNK         0.0600 
    198 H198        1.1254  -24.9819  -45.5782 H         1 UNK         0.0600 
    199 H199        1.5089  -23.9449  -46.9475 H         1 UNK         0.0600 
    200 H200        0.1871  -23.1960  -48.8461 H         1 UNK         0.3000 
    201 H201        0.7619  -24.9156  -51.1308 H         1 UNK         0.0600 
    202 H202        2.2477  -23.0263  -50.4309 H         1 UNK         0.0600 
    203 H203        0.9591  -21.8779  -50.7929 H         1 UNK         0.0600 
    204 H204        1.6784  -22.8316  -52.0821 H         1 UNK         0.0600 
    205 H205       -1.9789  -22.9443  -50.1586 H         1 UNK         0.3000 
    206 H206       -3.1188  -23.1091  -52.9251 H         1 UNK         0.0600 
    207 H207       -2.3400  -20.7620  -52.0448 H         1 UNK         0.0600 
    208 H208       -3.9976  -20.8868  -52.6117 H         1 UNK         0.0600 
    209 H209       -3.6532  -20.8893  -50.8944 H         1 UNK         0.0600 
    210 H210       -3.4552  -24.4209  -49.9161 H         1 UNK         0.3000 
    211 H211       -5.0707  -25.3667  -48.7088 H         1 UNK         0.0600 
    212 H212       -6.6887  -25.4631  -51.3095 H         1 UNK         0.0600 
    213 H213       -6.9595  -26.4445  -49.8773 H         1 UNK         0.0600 
    214 H214       -5.4874  -26.6505  -50.8119 H         1 UNK         0.0600 
    215 H215       -4.8907  -22.5969  -48.5803 H         1 UNK         0.3000 
    216 H216       -5.8091  -20.7500  -47.7908 H         1 UNK         0.0600 
    217 H217       -7.8623  -20.7775  -46.4445 H         1 UNK         0.0600 
    218 H218       -6.8819  -22.1787  -46.0450 H         1 UNK         0.0600 
    219 H219       -8.3114  -22.3592  -47.0617 H         1 UNK         0.0600 
    220 H220       -5.7281  -21.0745  -50.3866 H         1 UNK         0.3000 
    221 H221       -6.1423  -20.0585  -52.2691 H         1 UNK         0.0600 
    222 H222       -8.5147  -18.5950  -51.0205 H         1 UNK         0.0600 
    223 H223       -6.8393  -18.0436  -50.9685 H         1 UNK         0.0600 
    224 H224       -7.6774  -18.1774  -52.5053 H         1 UNK         0.0600 
    225 H225       -8.0855  -22.4112  -51.0751 H         1 UNK         0.3000 
    226 H226      -10.1962  -22.5199  -53.0136 H         1 UNK         0.0600 
    227 H227      -10.2983  -23.6529  -50.7893 H         1 UNK         0.0600 
    228 H228      -10.5621  -24.7890  -52.1042 H         1 UNK         0.0600 
    229 H229       -9.0093  -24.7492  -51.2823 H         1 UNK         0.0600 
    230 H230       -6.8371  -23.6530  -53.0497 H         1 UNK         0.3000 
    231 H231       -7.2390  -25.1785  -55.5739 H         1 UNK         0.0600 
    232 H232       -5.9326  -26.1995  -53.6673 H         1 UNK         0.0600 
    233 H233       -4.7410  -24.9096  -53.8280 H         1 UNK         0.0600 
    234 H234       -5.0001  -26.0379  -55.1454 H         1 UNK         0.0600 
    235 H235       -6.8149  -22.0199  -54.7943 H         1 UNK         0.3000 
    236 H236       -6.1993  -20.1668  -55.7913 H         1 UNK         0.0600 
    237 H237       -5.9775  -21.7768  -58.3838 H         1 UNK         0.0600 
    238 H238       -7.4806  -21.1543  -57.7029 H         1 UNK         0.0600 
    239 H239       -6.2322  -20.0444  -58.2396 H         1 UNK         0.0600 
    240 H240       -4.0391  -21.9701  -54.7513 H         1 UNK         0.3000 
    241 H241       -1.9355  -21.6976  -54.1644 H         1 UNK         0.0600 
    242 H242       -0.0948  -23.6988  -56.3488 H         1 UNK         0.3800 
    243 H243       -0.7383  -23.4660  -54.7418 H         1 UNK         0.3800 
    244 H244       -2.4464  -19.1514  -54.5969 H         1 UNK         0.0800 
    245 H245       -1.3697  -19.3207  -55.9557 H         1 UNK         0.0800 
    246 H246       -0.8808  -17.2808  -54.3991 H         1 UNK         0.0800 
    247 H247        0.8070  -17.4022  -54.0016 H         1 UNK         0.0800 
@<TRIPOS>BOND
     1    1    2 1    
     2    1  127 1    
     3    1  128 1    
     4    1  129 1    
     5    2    3 2    
     6    2    4 am   BACKBONE|DICT|INTERRES
     7    4    5 1    
     8    4  130 1    
     9    5    6 1    
    10    5   65 1    
    11    5  131 1    
    12    6    7 1    
    13    6  132 1    
    14    6  133 1    
    15    7    8 1    
    16    8    9 1    
    17    8  134 1    
    18    8  135 1    
    19    9   10 ar   
    20    9   14 ar   
    21   10   11 ar   
    22   10  136 1    
    23   11   12 ar   
    24   11  126 1    
    25   12   13 ar   
    26   12  137 1    
    27   13   14 ar   
    28   13   15 1    
    29   14  138 1    
    30   15   16 1    
    31   15  139 1    
    32   15  140 1    
    33   16   17 1    
    34   17   18 1    
    35   17  141 1    
    36   17  142 1    
    37   18   19 1    
    38   18   67 1    
    39   18  143 1    
    40   19   20 am   BACKBONE|DICT|INTERRES
    41   19  144 1    
    42   20   21 2    
    43   20   22 1    
    44   22   23 1    
    45   22   24 1    
    46   22  145 1    
    47   23  146 1    
    48   23  147 1    
    49   23  148 1    
    50   24   25 am   BACKBONE|DICT|INTERRES
    51   24  149 1    
    52   25   26 2    
    53   25   27 1    
    54   27   28 1    
    55   27   29 1    
    56   27  150 1    
    57   28  151 1    
    58   28  152 1    
    59   28  153 1    
    60   29   30 am   BACKBONE|DICT|INTERRES
    61   29  154 1    
    62   30   31 2    
    63   30   32 1    
    64   32   33 1    
    65   32   34 1    
    66   32  155 1    
    67   33  156 1    
    68   33  157 1    
    69   33  158 1    
    70   34   35 am   BACKBONE|DICT|INTERRES
    71   34  159 1    
    72   35   36 2    
    73   35   37 1    
    74   37   38 1    
    75   37   39 1    
    76   37  160 1    
    77   38  161 1    
    78   38  162 1    
    79   38  163 1    
    80   39   40 am   BACKBONE|DICT|INTERRES
    81   39  164 1    
    82   40   41 2    
    83   40   42 1    
    84   42   43 1    
    85   42   44 1    
    86   42  165 1    
    87   43  166 1    
    88   43  167 1    
    89   43  168 1    
    90   44   45 am   BACKBONE|DICT|INTERRES
    91   44  169 1    
    92   45   46 2    
    93   45   47 1    
    94   47   48 1    
    95   47   49 1    
    96   47  170 1    
    97   48  171 1    
    98   48  172 1    
    99   48  173 1    
   100   49   50 am   BACKBONE|DICT|INTERRES
   101   49  174 1    
   102   50   51 2    
   103   50   52 1    
   104   52   53 1    
   105   52   54 1    
   106   52  175 1    
   107   53  176 1    
   108   53  177 1    
   109   53  178 1    
   110   54   55 am   BACKBONE|DICT|INTERRES
   111   54  179 1    
   112   55   56 2    
   113   55   57 1    
   114   57   58 1    
   115   57   59 1    
   116   57  180 1    
   117   58  181 1    
   118   58  182 1    
   119   58  183 1    
   120   59   60 am   BACKBONE|DICT|INTERRES
   121   59  184 1    
   122   60   61 2    
   123   60   62 1    
   124   62   63 1    
   125   62   64 1    
   126   62  185 1    
   127   63  186 1    
   128   63  187 1    
   129   63  188 1    
   130   64   65 am   BACKBONE|DICT|INTERRES
   131   64  189 1    
   132   65   66 2    
   133   67   68 2    
   134   67   69 am   BACKBONE|DICT|INTERRES
   135   69   70 1    
   136   69  190 1    
   137   70   71 1    
   138   70   72 1    
   139   70  191 1    
   140   71  192 1    
   141   71  193 1    
   142   71  194 1    
   143   72   73 2    
   144   72   74 am   BACKBONE|DICT|INTERRES
   145   74   75 1    
   146   74  195 1    
   147   75   76 1    
   148   75   77 1    
   149   75  196 1    
   150   76  197 1    
   151   76  198 1    
   152   76  199 1    
   153   77   78 2    
   154   77   79 am   BACKBONE|DICT|INTERRES
   155   79   80 1    
   156   79  200 1    
   157   80   81 1    
   158   80   82 1    
   159   80  201 1    
   160   81  202 1    
   161   81  203 1    
   162   81  204 1    
   163   82   83 2    
   164   82   84 am   BACKBONE|DICT|INTERRES
   165   84   85 1    
   166   84  205 1    
   167   85   86 1    
   168   85   87 1    
   169   85  206 1    
   170   86  207 1    
   171   86  208 1    
   172   86  209 1    
   173   87   88 2    
   174   87   89 am   BACKBONE|DICT|INTERRES
   175   89   90 1    
   176   89  210 1    
   177   90   91 1    
   178   90   92 1    
   179   90  211 1    
   180   91  212 1    
   181   91  213 1    
   182   91  214 1    
   183   92   93 2    
   184   92   94 am   BACKBONE|DICT|INTERRES
   185   94   95 1    
   186   94  215 1    
   187   95   96 1    
   188   95   97 1    
   189   95  216 1    
   190   96  217 1    
   191   96  218 1    
   192   96  219 1    
   193   97   98 2    
   194   97   99 am   BACKBONE|DICT|INTERRES
   195   99  100 1    
   196   99  220 1    
   197  100  101 1    
   198  100  102 1    
   199  100  221 1    
   200  101  222 1    
   201  101  223 1    
   202  101  224 1    
   203  102  103 2    
   204  102  104 am   BACKBONE|DICT|INTERRES
   205  104  105 1    
   206  104  225 1    
   207  105  106 1    
   208  105  107 1    
   209  105  226 1    
   210  106  227 1    
   211  106  228 1    
   212  106  229 1    
   213  107  108 2    
   214  107  109 am   BACKBONE|DICT|INTERRES
   215  109  110 1    
   216  109  230 1    
   217  110  111 1    
   218  110  112 1    
   219  110  231 1    
   220  111  232 1    
   221  111  233 1    
   222  111  234 1    
   223  112  113 2    
   224  112  114 am   BACKBONE|DICT|INTERRES
   225  114  115 1    
   226  114  235 1    
   227  115  116 1    
   228  115  117 1    
   229  115  236 1    
   230  116  237 1    
   231  116  238 1    
   232  116  239 1    
   233  117  118 2    
   234  117  119 am   BACKBONE|DICT|INTERRES
   235  119  120 1    
   236  119  240 1    
   237  120  121 1    
   238  120  124 1    
   239  120  241 1    
   240  121  122 am   BACKBONE|DICT|INTERRES
   241  121  123 2    
   242  122  242 1    
   243  122  243 1    
   244  124  125 1    
   245  124  244 1    
   246  124  245 1    
   247  125  126 1    
   248  126  246 1    
   249  126  247 1    
@<TRIPOS>SUBSTRUCTURE
     1 UNK         1 GROUP             0       ****    0 ROOT    
