@<TRIPOS>MOLECULE
3R540
247   249    1
SMALL
USER_CHARGES


@<TRIPOS>ATOM
      1 CA          6.9818  -14.5902  -48.4212 C.3       0 UNK        -0.1800 
      2 C           5.7547  -14.1215  -47.6533 C.2       0 UNK         0.5000 
      3 O           5.6592  -14.3485  -46.4471 O.2       0 UNK        -0.5000 
      4 N           4.8215  -13.4485  -48.3371 N.am      1 UNK        -0.5000 
      5 CA          3.5392  -12.9640  -47.8056 C.3       1 UNK         0.1400 
      6 C6          2.4682  -12.8102  -48.9214 C.3       23 UNK        -0.0398 
      7 S7          2.2265  -14.3247  -49.9114 S.3       23 UNK        -0.2404 
      8 C8          0.9031  -15.1599  -48.9810 C.3       23 UNK        -0.0205 
      9 C9          0.6165  -16.5472  -49.5373 C.ar      23 UNK        -0.0193 
     10 C10        -0.6373  -16.8508  -50.0756 C.ar      23 UNK        -0.1150 
     11 C11        -0.9111  -18.1321  -50.5647 C.ar      23 UNK        -0.0193 
     12 C12         0.0895  -19.1070  -50.5380 C.ar      23 UNK        -0.1150 
     13 C13         1.3489  -18.8150  -50.0047 C.ar      23 UNK        -0.0193 
     14 C14         1.6018  -17.5384  -49.4957 C.ar      23 UNK        -0.1150 
     15 C15         2.4401  -19.8750  -49.9815 C.3       23 UNK        -0.0205 
     16 S16         2.5199  -20.7345  -48.3798 S.3       23 UNK        -0.2404 
     17 C17         0.9068  -21.5801  -48.3736 C.3       23 UNK        -0.0398 
     18 CA          0.8131  -22.6744  -47.2899 C.3       11 UNK         0.1400 
     19 N           0.7969  -22.1243  -45.9335 N.am      11 UNK        -0.5000 
     20 C           0.8956  -22.8582  -44.8174 C.2       10 UNK         0.5000 
     21 O           1.0618  -24.0780  -44.8166 O.2       10 UNK        -0.5000 
     22 CA          0.7242  -22.1152  -43.4805 C.3       10 UNK         0.1400 
     23 CB          2.0145  -21.3809  -43.0867 C.3       10 UNK        -0.1800 
     24 N          -0.3959  -21.1732  -43.5056 N.am      10 UNK        -0.5000 
     25 C          -1.6791  -21.5282  -43.6635 C.2       9 UNK         0.5000 
     26 O          -2.0574  -22.6964  -43.7562 O.2       9 UNK        -0.5000 
     27 CA         -2.7092  -20.3897  -43.7818 C.3       9 UNK         0.1400 
     28 CB         -3.0780  -19.8377  -42.3971 C.3       9 UNK        -0.1800 
     29 N          -2.2552  -19.3001  -44.6479 N.am      9 UNK        -0.5000 
     30 C          -2.0072  -19.4326  -45.9595 C.2       8 UNK         0.5000 
     31 O          -2.1713  -20.4784  -46.5838 O.2       8 UNK        -0.5000 
     32 CA         -1.4362  -18.2104  -46.6957 C.3       8 UNK         0.1400 
     33 CB         -2.5609  -17.2314  -47.0629 C.3       8 UNK        -0.1800 
     34 N          -0.3935  -17.5234  -45.9329 N.am      8 UNK        -0.5000 
     35 C           0.7604  -18.0921  -45.5522 C.2       7 UNK         0.5000 
     36 O           1.0683  -19.2525  -45.8165 O.2       7 UNK        -0.5000 
     37 CA          1.6950  -17.2564  -44.6609 C.3       7 UNK         0.1400 
     38 CB          2.4403  -16.1821  -45.4663 C.3       7 UNK        -0.1800 
     39 N           0.9828  -16.6275  -43.5523 N.am      7 UNK        -0.5000 
     40 C           0.3342  -17.2858  -42.5827 C.2       6 UNK         0.5000 
     41 O           0.3098  -18.5120  -42.4789 O.2       6 UNK        -0.5000 
     42 CA         -0.4605  -16.4224  -41.5903 C.3       6 UNK         0.1400 
     43 CB          0.4633  -15.8251  -40.5179 C.3       6 UNK        -0.1800 
     44 N          -1.1868  -15.3482  -42.2678 N.am      6 UNK        -0.5000 
     45 C          -2.2490  -15.5388  -43.0623 C.2       5 UNK         0.5000 
     46 O          -2.7413  -16.6429  -43.2950 O.2       5 UNK        -0.5000 
     47 CA         -2.8405  -14.2854  -43.7324 C.3       5 UNK         0.1400 
     48 CB         -3.7538  -13.5269  -42.7577 C.3       5 UNK        -0.1800 
     49 N          -1.8145  -13.3763  -44.2469 N.am      5 UNK        -0.5000 
     50 C          -0.9997  -13.6714  -45.2681 C.2       4 UNK         0.5000 
     51 O          -1.0137  -14.7420  -45.8710 O.2       4 UNK        -0.5000 
     52 CA          0.0360  -12.6096  -45.6684 C.3       4 UNK         0.1400 
     53 CB         -0.6125  -11.5302  -46.5477 C.3       4 UNK        -0.1800 
     54 N           0.7512  -11.9734  -44.5587 N.am      4 UNK        -0.5000 
     55 C           1.3738  -12.6038  -43.5528 C.2       3 UNK         0.5000 
     56 O           1.2915  -13.8127  -43.3364 O.2       3 UNK        -0.5000 
     57 CA          2.3452  -11.7443  -42.7354 C.3       3 UNK         0.1400 
     58 CB          2.7771  -12.4163  -41.4195 C.3       3 UNK        -0.1800 
     59 N           3.5110  -11.5631  -43.5906 N.am      3 UNK        -0.5000 
     60 C           3.9611  -10.3991  -44.0701 C.2       2 UNK         0.5000 
     61 O           3.5558   -9.2958  -43.7034 O.2       2 UNK        -0.5000 
     62 CA          5.0072  -10.5009  -45.1962 C.3       2 UNK         0.1400 
     63 CB          6.4206  -10.6635  -44.6168 C.3       2 UNK        -0.1800 
     64 N           4.7280  -11.6130  -46.1109 N.am      2 UNK        -0.5000 
     65 C           3.6970  -11.6699  -46.9662 C.2       1 UNK         0.5000 
     66 O           2.8927  -10.7473  -47.1028 O.2       1 UNK        -0.5000 
     67 C          -0.3989  -23.5880  -47.5562 C.2       11 UNK         0.5000 
     68 O          -0.2256  -24.6420  -48.1690 O.2       11 UNK        -0.5000 
     69 N          -1.5939  -23.1906  -47.0957 N.am      12 UNK        -0.5000 
     70 CA         -2.8325  -23.9623  -47.2252 C.3       12 UNK         0.1400 
     71 CB         -4.0349  -23.1075  -46.7996 C.3       12 UNK        -0.1800 
     72 C          -2.7988  -25.2840  -46.4413 C.2       12 UNK         0.5000 
     73 O          -3.2962  -26.2971  -46.9332 O.2       12 UNK        -0.5000 
     74 N          -2.1820  -25.2594  -45.2522 N.am      13 UNK        -0.5000 
     75 CA         -1.9082  -26.4469  -44.4447 C.3       13 UNK         0.1400 
     76 CB         -1.4424  -26.0163  -43.0456 C.3       13 UNK        -0.1800 
     77 C          -0.8764  -27.3833  -45.1041 C.2       13 UNK         0.5000 
     78 O          -0.9873  -28.6010  -44.9564 O.2       13 UNK        -0.5000 
     79 N           0.0981  -26.8034  -45.8190 N.am      14 UNK        -0.5000 
     80 CA          1.1333  -27.5266  -46.5502 C.3       14 UNK         0.1400 
     81 CB          2.3210  -26.5956  -46.8458 C.3       14 UNK        -0.1800 
     82 C           0.6003  -28.1906  -47.8331 C.2       14 UNK         0.5000 
     83 O           0.6951  -29.4139  -47.9492 O.2       14 UNK        -0.5000 
     84 N           0.0719  -27.3939  -48.7764 N.am      15 UNK        -0.5000 
     85 CA         -0.3298  -27.8770  -50.1050 C.3       15 UNK         0.1400 
     86 CB          0.9224  -28.2457  -50.9317 C.3       15 UNK        -0.1800 
     87 C          -1.2121  -26.9173  -50.9286 C.2       15 UNK         0.5000 
     88 O          -1.8346  -27.3837  -51.8851 O.2       15 UNK        -0.5000 
     89 N          -1.2315  -25.6124  -50.6186 N.am      16 UNK        -0.5000 
     90 CA         -1.9308  -24.5991  -51.4199 C.3       16 UNK         0.1400 
     91 CB         -1.4637  -23.1959  -50.9983 C.3       16 UNK        -0.1800 
     92 C          -3.4651  -24.7050  -51.3294 C.2       16 UNK         0.5000 
     93 O          -3.9986  -25.2185  -50.3441 O.2       16 UNK        -0.5000 
     94 N          -4.1485  -24.1832  -52.3536 N.am      17 UNK        -0.5000 
     95 CA         -5.6071  -24.0714  -52.3872 C.3       17 UNK         0.1400 
     96 CB         -6.0748  -23.9407  -53.8452 C.3       17 UNK        -0.1800 
     97 C          -6.0981  -22.8806  -51.5445 C.2       17 UNK         0.5000 
     98 O          -7.0545  -23.0257  -50.7820 O.2       17 UNK        -0.5000 
     99 N          -5.4092  -21.7389  -51.6984 N.am      18 UNK        -0.5000 
    100 CA        -5.6839  -20.4320  -51.0898 C.3       18 UNK         0.1400 
    101 CB        -5.3755  -20.4743  -49.5775 C.3       18 UNK        -0.1800 
    102 C         -7.0904  -19.8784  -51.4236 C.2       18 UNK         0.5000 
    103 O         -7.7167  -20.3260  -52.3874 O.2       18 UNK        -0.5000 
    104 N         -7.5393  -18.8778  -50.6501 N.am      19 UNK        -0.5000 
    105 CA        -8.8099  -18.1376  -50.7291 C.3       19 UNK         0.1400 
    106 CB       -10.0209  -19.0702  -50.5322 C.3       19 UNK        -0.1800 
    107 C         -8.9692  -17.2675  -51.9936 C.2       19 UNK         0.5000 
    108 O         -9.2481  -16.0735  -51.8757 O.2       19 UNK        -0.5000 
    109 N         -8.7747  -17.8742  -53.1665 N.am      20 UNK        -0.5000 
    110 CA        -8.7137  -17.2352  -54.4752 C.3       20 UNK         0.1400 
    111 CB        -9.7639  -17.8882  -55.3967 C.3       20 UNK        -0.1800 
    112 C         -7.2628  -17.3610  -54.9745 C.2       20 UNK         0.5000 
    113 O         -6.3535  -16.8798  -54.2950 O.2       20 UNK        -0.5000 
    114 N         -7.0522  -18.0146  -56.1249 N.am      21 UNK        -0.5000 
    115 CA        -5.7317  -18.3988  -56.6230 C.3       21 UNK         0.1400 
    116 CB        -5.8555  -18.8685  -58.0805 C.3       21 UNK        -0.1800 
    117 C         -5.1306  -19.5063  -55.7383 C.2       21 UNK         0.5000 
    118 O         -5.8260  -20.4743  -55.4228 O.2       21 UNK        -0.5000 
    119 N         -3.8650  -19.3374  -55.3425 N.am      22 UNK        -0.5000 
    120 CA        -3.1785  -20.2248  -54.3891 C.3       22 UNK         0.1400 
    121 C         -2.7918  -21.6202  -54.9543 C.2       22 UNK         0.5000 
    122 N         -2.6793  -21.7980  -56.2639 N.am      22 UNK        -0.7600 
    123 O         -2.6287  -22.5639  -54.1864 O.2       22 UNK        -0.5000 
    124 C124       -1.9696  -19.5299  -53.7129 C.3       23 UNK        -0.0398 
    125 S125       -2.4713  -18.0002  -52.8462 S.3       23 UNK        -0.2404 
    126 C126       -2.2969  -18.4620  -51.0955 C.3       23 UNK        -0.0205 
    127 H127        6.9306  -14.3136  -49.4746 H         1 UNK         0.0600 
    128 H128        7.0707  -15.6747  -48.3583 H         1 UNK         0.0600 
    129 H129        7.8823  -14.1474  -47.9958 H         1 UNK         0.0600 
    130 H130        4.9679  -13.2766  -49.3217 H         1 UNK         0.3000 
    131 H131        3.1653  -13.7194  -47.1120 H         1 UNK         0.0600 
    132 H132        1.5055  -12.5125  -48.5041 H         1 UNK         0.0800 
    133 H133        2.7547  -12.0111  -49.6073 H         1 UNK         0.0800 
    134 H134        1.1936  -15.2556  -47.9370 H         1 UNK         0.0800 
    135 H135        0.0043  -14.5415  -48.9965 H         1 UNK         0.0800 
    136 H136       -1.4086  -16.0940  -50.1027 H         1 UNK         0.1150 
    137 H137       -0.1144  -20.0962  -50.9219 H         1 UNK         0.1150 
    138 H138        2.5710  -17.3118  -49.0740 H         1 UNK         0.1150 
    139 H139        2.2861  -20.6016  -50.7808 H         1 UNK         0.0800 
    140 H140        3.4064  -19.4087  -50.1787 H         1 UNK         0.0800 
    141 H141        0.7669  -22.0115  -49.3649 H         1 UNK         0.0800 
    142 H142        0.1164  -20.8401  -48.2382 H         1 UNK         0.0800 
    143 H143        1.7022  -23.3031  -47.3727 H         1 UNK         0.0600 
    144 H144        0.7225  -21.1121  -45.8553 H         1 UNK         0.3000 
    145 H145        0.5128  -22.8619  -42.7123 H         1 UNK         0.0600 
    146 H146        1.9187  -20.9166  -42.1051 H         1 UNK         0.0600 
    147 H147        2.8576  -22.0712  -43.0404 H         1 UNK         0.0600 
    148 H148        2.2693  -20.5984  -43.8016 H         1 UNK         0.0600 
    149 H149       -0.1671  -20.1890  -43.3995 H         1 UNK         0.3000 
    150 H150       -3.6135  -20.8094  -44.2269 H         1 UNK         0.0600 
    151 H151       -3.4299  -20.6341  -41.7401 H         1 UNK         0.0600 
    152 H152       -3.8762  -19.0987  -42.4682 H         1 UNK         0.0600 
    153 H153       -2.2258  -19.3628  -41.9109 H         1 UNK         0.0600 
    154 H154       -2.1298  -18.3928  -44.2116 H         1 UNK         0.3000 
    155 H155       -0.9804  -18.5677  -47.6208 H         1 UNK         0.0600 
    156 H156       -3.0369  -16.8142  -46.1749 H         1 UNK         0.0600 
    157 H157       -2.1830  -16.4014  -47.6589 H         1 UNK         0.0600 
    158 H158       -3.3337  -17.7274  -47.6514 H         1 UNK         0.0600 
    159 H159       -0.5733  -16.5495  -45.7022 H         1 UNK         0.3000 
    160 H160        2.4375  -17.9365  -44.2386 H         1 UNK         0.0600 
    161 H161        3.2460  -15.7413  -44.8787 H         1 UNK         0.0600 
    162 H162        1.7723  -15.3746  -45.7608 H         1 UNK         0.0600 
    163 H163        2.8862  -16.5986  -46.3706 H         1 UNK         0.0600 
    164 H164        0.9750  -15.6098  -43.5336 H         1 UNK         0.3000 
    165 H165       -1.1879  -17.0670  -41.0921 H         1 UNK         0.0600 
    166 H166       -0.1032  -15.2515  -39.7843 H         1 UNK         0.0600 
    167 H167        0.9912  -16.6122  -39.9781 H         1 UNK         0.0600 
    168 H168        1.2151  -15.1654  -40.9520 H         1 UNK         0.0600 
    169 H169       -0.7959  -14.4201  -42.1951 H         1 UNK         0.3000 
    170 H170       -3.4489  -14.6192  -44.5759 H         1 UNK         0.0600 
    171 H171       -3.1989  -13.1370  -41.9035 H         1 UNK         0.0600 
    172 H172       -4.2453  -12.6878  -43.2504 H         1 UNK         0.0600 
    173 H173       -4.5376  -14.1792  -42.3702 H         1 UNK         0.0600 
    174 H174       -1.7234  -12.4778  -43.7960 H         1 UNK         0.3000 
    175 H175        0.7899  -13.1203  -46.2683 H         1 UNK         0.0600 
    176 H176        0.1326  -10.8405  -46.9441 H         1 UNK         0.0600 
    177 H177       -1.3466  -10.9458  -45.9919 H         1 UNK         0.0600 
    178 H178       -1.1249  -11.9765  -47.4013 H         1 UNK         0.0600 
    179 H179        0.9105  -10.9809  -44.6583 H         1 UNK         0.3000 
    180 H180        1.8599  -10.7936  -42.5051 H         1 UNK         0.0600 
    181 H181        3.2740  -13.3717  -41.5929 H         1 UNK         0.0600 
    182 H182        1.9158  -12.6039  -40.7774 H         1 UNK         0.0600 
    183 H183        3.4658  -11.7798  -40.8640 H         1 UNK         0.0600 
    184 H184        3.8950  -12.4119  -43.9813 H         1 UNK         0.3000 
    185 H185        4.9759   -9.5709  -45.7677 H         1 UNK         0.0600 
    186 H186        7.1717  -10.6670  -45.4069 H         1 UNK         0.0600 
    187 H187        6.6628   -9.8414  -43.9420 H         1 UNK         0.0600 
    188 H188        6.5220  -11.5922  -44.0538 H         1 UNK         0.0600 
    189 H189        5.3291  -12.4286  -46.0503 H         1 UNK         0.3000 
    190 H190       -1.6806  -22.2711  -46.6685 H         1 UNK         0.3000 
    191 H191       -2.9525  -24.2103  -48.2781 H         1 UNK         0.0600 
    192 H192       -4.1102  -22.2048  -47.4040 H         1 UNK         0.0600 
    193 H193       -4.9680  -23.6584  -46.9236 H         1 UNK         0.0600 
    194 H194       -3.9656  -22.8062  -45.7545 H         1 UNK         0.0600 
    195 H195       -1.8625  -24.3688  -44.8839 H         1 UNK         0.3000 
    196 H196       -2.8409  -27.0041  -44.3350 H         1 UNK         0.0600 
    197 H197       -1.2603  -26.8840  -42.4104 H         1 UNK         0.0600 
    198 H198       -2.1957  -25.4026  -42.5513 H         1 UNK         0.0600 
    199 H199       -0.5181  -25.4398  -43.0874 H         1 UNK         0.0600 
    200 H200        0.1410  -25.7923  -45.8482 H         1 UNK         0.3000 
    201 H201        1.5053  -28.3220  -45.9006 H         1 UNK         0.0600 
    202 H202        2.7360  -26.1842  -45.9254 H         1 UNK         0.0600 
    203 H203        2.0417  -25.7603  -47.4861 H         1 UNK         0.0600 
    204 H204        3.1222  -27.1375  -47.3497 H         1 UNK         0.0600 
    205 H205       -0.0196  -26.3991  -48.5844 H         1 UNK         0.3000 
    206 H206       -0.9269  -28.7805  -49.9640 H         1 UNK         0.0600 
    207 H207        1.4827  -29.0639  -50.4804 H         1 UNK         0.0600 
    208 H208        0.6528  -28.5692  -51.9381 H         1 UNK         0.0600 
    209 H209        1.5963  -27.3941  -51.0313 H         1 UNK         0.0600 
    210 H210       -0.7568  -25.2780  -49.7861 H         1 UNK         0.3000 
    211 H211       -1.6444  -24.7469  -52.4637 H         1 UNK         0.0600 
    212 H212       -1.7686  -22.9539  -49.9819 H         1 UNK         0.0600 
    213 H213       -1.8882  -22.4282  -51.6446 H         1 UNK         0.0600 
    214 H214       -0.3801  -23.1085  -51.0667 H         1 UNK         0.0600 
    215 H215       -3.6326  -23.7504  -53.1166 H         1 UNK         0.3000 
    216 H216       -6.0450  -24.9828  -51.9740 H         1 UNK         0.0600 
    217 H217       -7.1606  -23.8523  -53.8997 H         1 UNK         0.0600 
    218 H218       -5.7889  -24.8149  -54.4302 H         1 UNK         0.0600 
    219 H219       -5.6507  -23.0607  -54.3303 H         1 UNK         0.0600 
    220 H220       -4.6586  -21.7564  -52.3702 H         1 UNK         0.3000 
    221 H221       -4.9827  -19.7348  -51.5484 H         1 UNK         0.0600 
    222 H222       -6.0965  -21.0862  -49.0343 H         1 UNK         0.0600 
    223 H223       -4.3836  -20.8890  -49.3966 H         1 UNK         0.0600 
    224 H224       -5.3829  -19.4785  -49.1339 H         1 UNK         0.0600 
    225 H225       -6.9276  -18.5648  -49.9097 H         1 UNK         0.3000 
    226 H226       -8.7966  -17.4497  -49.8822 H         1 UNK         0.0600 
    227 H227       -9.9422  -19.6247  -49.5971 H         1 UNK         0.0600 
    228 H228      -10.9486  -18.4980  -50.4940 H         1 UNK         0.0600 
    229 H229      -10.1195  -19.7931  -51.3423 H         1 UNK         0.0600 
    230 H230       -8.4819  -18.8492  -53.1295 H         1 UNK         0.3000 
    231 H231       -8.9369  -16.1693  -54.3994 H         1 UNK         0.0600 
    232 H232       -9.5963  -18.9599  -55.5136 H         1 UNK         0.0600 
    233 H233       -9.7604  -17.4328  -56.3878 H         1 UNK         0.0600 
    234 H234      -10.7672  -17.7574  -54.9907 H         1 UNK         0.0600 
    235 H235       -7.8455  -18.4137  -56.6044 H         1 UNK         0.3000 
    236 H236       -5.0816  -17.5215  -56.5963 H         1 UNK         0.0600 
    237 H237       -6.2621  -18.0813  -58.7157 H         1 UNK         0.0600 
    238 H238       -4.8805  -19.1419  -58.4857 H         1 UNK         0.0600 
    239 H239       -6.5042  -19.7410  -58.1695 H         1 UNK         0.0600 
    240 H240       -3.3577  -18.5132  -55.6298 H         1 UNK         0.3000 
    241 H241       -3.8953  -20.4322  -53.5955 H         1 UNK         0.0600 
    242 H242       -2.8329  -21.0350  -56.9033 H         1 UNK         0.3800 
    243 H243       -2.4434  -22.7107  -56.6201 H         1 UNK         0.3800 
    244 H244       -1.4788  -20.2026  -53.0080 H         1 UNK         0.0800 
    245 H245       -1.2150  -19.2716  -54.4574 H         1 UNK         0.0800 
    246 H246       -2.5223  -19.5200  -50.9541 H         1 UNK         0.0800 
    247 H247       -3.0439  -17.9171  -50.5161 H         1 UNK         0.0800 
@<TRIPOS>BOND
     1    1    2 1    
     2    1  127 1    
     3    1  128 1    
     4    1  129 1    
     5    2    3 2    
     6    2    4 am   BACKBONE|DICT|INTERRES
     7    4    5 1    
     8    4  130 1    
     9    5    6 1    
    10    5   65 1    
    11    5  131 1    
    12    6    7 1    
    13    6  132 1    
    14    6  133 1    
    15    7    8 1    
    16    8    9 1    
    17    8  134 1    
    18    8  135 1    
    19    9   10 ar   
    20    9   14 ar   
    21   10   11 ar   
    22   10  136 1    
    23   11   12 ar   
    24   11  126 1    
    25   12   13 ar   
    26   12  137 1    
    27   13   14 ar   
    28   13   15 1    
    29   14  138 1    
    30   15   16 1    
    31   15  139 1    
    32   15  140 1    
    33   16   17 1    
    34   17   18 1    
    35   17  141 1    
    36   17  142 1    
    37   18   19 1    
    38   18   67 1    
    39   18  143 1    
    40   19   20 am   BACKBONE|DICT|INTERRES
    41   19  144 1    
    42   20   21 2    
    43   20   22 1    
    44   22   23 1    
    45   22   24 1    
    46   22  145 1    
    47   23  146 1    
    48   23  147 1    
    49   23  148 1    
    50   24   25 am   BACKBONE|DICT|INTERRES
    51   24  149 1    
    52   25   26 2    
    53   25   27 1    
    54   27   28 1    
    55   27   29 1    
    56   27  150 1    
    57   28  151 1    
    58   28  152 1    
    59   28  153 1    
    60   29   30 am   BACKBONE|DICT|INTERRES
    61   29  154 1    
    62   30   31 2    
    63   30   32 1    
    64   32   33 1    
    65   32   34 1    
    66   32  155 1    
    67   33  156 1    
    68   33  157 1    
    69   33  158 1    
    70   34   35 am   BACKBONE|DICT|INTERRES
    71   34  159 1    
    72   35   36 2    
    73   35   37 1    
    74   37   38 1    
    75   37   39 1    
    76   37  160 1    
    77   38  161 1    
    78   38  162 1    
    79   38  163 1    
    80   39   40 am   BACKBONE|DICT|INTERRES
    81   39  164 1    
    82   40   41 2    
    83   40   42 1    
    84   42   43 1    
    85   42   44 1    
    86   42  165 1    
    87   43  166 1    
    88   43  167 1    
    89   43  168 1    
    90   44   45 am   BACKBONE|DICT|INTERRES
    91   44  169 1    
    92   45   46 2    
    93   45   47 1    
    94   47   48 1    
    95   47   49 1    
    96   47  170 1    
    97   48  171 1    
    98   48  172 1    
    99   48  173 1    
   100   49   50 am   BACKBONE|DICT|INTERRES
   101   49  174 1    
   102   50   51 2    
   103   50   52 1    
   104   52   53 1    
   105   52   54 1    
   106   52  175 1    
   107   53  176 1    
   108   53  177 1    
   109   53  178 1    
   110   54   55 am   BACKBONE|DICT|INTERRES
   111   54  179 1    
   112   55   56 2    
   113   55   57 1    
   114   57   58 1    
   115   57   59 1    
   116   57  180 1    
   117   58  181 1    
   118   58  182 1    
   119   58  183 1    
   120   59   60 am   BACKBONE|DICT|INTERRES
   121   59  184 1    
   122   60   61 2    
   123   60   62 1    
   124   62   63 1    
   125   62   64 1    
   126   62  185 1    
   127   63  186 1    
   128   63  187 1    
   129   63  188 1    
   130   64   65 am   BACKBONE|DICT|INTERRES
   131   64  189 1    
   132   65   66 2    
   133   67   68 2    
   134   67   69 am   BACKBONE|DICT|INTERRES
   135   69   70 1    
   136   69  190 1    
   137   70   71 1    
   138   70   72 1    
   139   70  191 1    
   140   71  192 1    
   141   71  193 1    
   142   71  194 1    
   143   72   73 2    
   144   72   74 am   BACKBONE|DICT|INTERRES
   145   74   75 1    
   146   74  195 1    
   147   75   76 1    
   148   75   77 1    
   149   75  196 1    
   150   76  197 1    
   151   76  198 1    
   152   76  199 1    
   153   77   78 2    
   154   77   79 am   BACKBONE|DICT|INTERRES
   155   79   80 1    
   156   79  200 1    
   157   80   81 1    
   158   80   82 1    
   159   80  201 1    
   160   81  202 1    
   161   81  203 1    
   162   81  204 1    
   163   82   83 2    
   164   82   84 am   BACKBONE|DICT|INTERRES
   165   84   85 1    
   166   84  205 1    
   167   85   86 1    
   168   85   87 1    
   169   85  206 1    
   170   86  207 1    
   171   86  208 1    
   172   86  209 1    
   173   87   88 2    
   174   87   89 am   BACKBONE|DICT|INTERRES
   175   89   90 1    
   176   89  210 1    
   177   90   91 1    
   178   90   92 1    
   179   90  211 1    
   180   91  212 1    
   181   91  213 1    
   182   91  214 1    
   183   92   93 2    
   184   92   94 am   BACKBONE|DICT|INTERRES
   185   94   95 1    
   186   94  215 1    
   187   95   96 1    
   188   95   97 1    
   189   95  216 1    
   190   96  217 1    
   191   96  218 1    
   192   96  219 1    
   193   97   98 2    
   194   97   99 am   BACKBONE|DICT|INTERRES
   195   99  100 1    
   196   99  220 1    
   197  100  101 1    
   198  100  102 1    
   199  100  221 1    
   200  101  222 1    
   201  101  223 1    
   202  101  224 1    
   203  102  103 2    
   204  102  104 am   BACKBONE|DICT|INTERRES
   205  104  105 1    
   206  104  225 1    
   207  105  106 1    
   208  105  107 1    
   209  105  226 1    
   210  106  227 1    
   211  106  228 1    
   212  106  229 1    
   213  107  108 2    
   214  107  109 am   BACKBONE|DICT|INTERRES
   215  109  110 1    
   216  109  230 1    
   217  110  111 1    
   218  110  112 1    
   219  110  231 1    
   220  111  232 1    
   221  111  233 1    
   222  111  234 1    
   223  112  113 2    
   224  112  114 am   BACKBONE|DICT|INTERRES
   225  114  115 1    
   226  114  235 1    
   227  115  116 1    
   228  115  117 1    
   229  115  236 1    
   230  116  237 1    
   231  116  238 1    
   232  116  239 1    
   233  117  118 2    
   234  117  119 am   BACKBONE|DICT|INTERRES
   235  119  120 1    
   236  119  240 1    
   237  120  121 1    
   238  120  124 1    
   239  120  241 1    
   240  121  122 am   BACKBONE|DICT|INTERRES
   241  121  123 2    
   242  122  242 1    
   243  122  243 1    
   244  124  125 1    
   245  124  244 1    
   246  124  245 1    
   247  125  126 1    
   248  126  246 1    
   249  126  247 1    
@<TRIPOS>SUBSTRUCTURE
     1 UNK         1 GROUP             0       ****    0 ROOT    
