@<TRIPOS>MOLECULE
3R540
247   249    1
SMALL
USER_CHARGES


@<TRIPOS>ATOM
      1 CA         -0.1163  -10.6761  -50.3567 C.3       0 UNK        -0.1800 
      2 C          -0.2321  -12.1876  -50.4964 C.2       0 UNK         0.5000 
      3 O           0.3700  -12.7660  -51.4009 O.2       0 UNK        -0.5000 
      4 N          -1.0121  -12.8219  -49.6141 N.am      1 UNK        -0.5000 
      5 CA         -1.2096  -14.2730  -49.5619 C.3       1 UNK         0.1400 
      6 C6         -2.4156  -14.6636  -48.6717 C.3       23 UNK        -0.0398 
      7 S7         -3.9898  -13.9280  -49.2211 S.3       23 UNK        -0.2404 
      8 C8         -5.1704  -14.7295  -48.0870 C.3       23 UNK        -0.0205 
      9 C9         -5.3760  -16.2010  -48.4172 C.ar      23 UNK        -0.0193 
     10 C10        -6.0409  -16.5657  -49.5919 C.ar      23 UNK        -0.1150 
     11 C11        -6.2174  -17.9127  -49.9187 C.ar      23 UNK        -0.0193 
     12 C12        -5.7496  -18.8984  -49.0477 C.ar      23 UNK        -0.1150 
     13 C13        -5.0633  -18.5478  -47.8827 C.ar      23 UNK        -0.0193 
     14 C14        -4.8883  -17.1974  -47.5647 C.ar      23 UNK        -0.1150 
     15 C15        -4.4179  -19.6317  -47.0380 C.3       23 UNK        -0.0205 
     16 S16        -5.4400  -20.1516  -45.6240 S.3       23 UNK        -0.2404 
     17 C17        -4.8334  -21.8567  -45.3791 C.3       23 UNK        -0.0398 
     18 CA         -3.2993  -21.9631  -45.1537 C.3       11 UNK         0.1400 
     19 N          -2.8290  -21.5230  -43.8336 N.am      11 UNK        -0.5000 
     20 C          -3.1052  -22.0336  -42.6267 C.2       10 UNK         0.5000 
     21 O          -3.8882  -22.9651  -42.4387 O.2       10 UNK        -0.5000 
     22 CA         -2.3230  -21.4477  -41.4382 C.3       10 UNK         0.1400 
     23 CB         -0.9221  -22.0766  -41.3662 C.3       10 UNK        -0.1800 
     24 N          -2.1952  -19.9924  -41.4982 N.am      10 UNK        -0.5000 
     25 C          -3.2031  -19.1367  -41.2780 C.2       9 UNK         0.5000 
     26 O          -4.3458  -19.4858  -40.9788 O.2       9 UNK        -0.5000 
     27 CA         -2.8801  -17.6375  -41.4119 C.3       9 UNK         0.1400 
     28 CB         -2.2311  -17.1019  -40.1265 C.3       9 UNK        -0.1800 
     29 N          -2.0113  -17.3557  -42.5537 N.am      9 UNK        -0.5000 
     30 C          -2.3969  -17.4483  -43.8334 C.2       8 UNK         0.5000 
     31 O          -3.5468  -17.7062  -44.1811 O.2       8 UNK        -0.5000 
     32 CA         -1.3196  -17.2204  -44.9086 C.3       8 UNK         0.1400 
     33 CB         -1.1877  -15.7237  -45.2140 C.3       8 UNK        -0.1800 
     34 N          -0.0124  -17.7618  -44.5353 N.am      8 UNK        -0.5000 
     35 C           0.2507  -19.0647  -44.3614 C.2       7 UNK         0.5000 
     36 O          -0.5698  -19.9623  -44.5485 O.2       7 UNK        -0.5000 
     37 CA          1.6506  -19.4216  -43.8344 C.3       7 UNK         0.1400 
     38 CB          2.6762  -19.5031  -44.9759 C.3       7 UNK        -0.1800 
     39 N           2.1092  -18.4736  -42.8204 N.am      7 UNK        -0.5000 
     40 C           1.5840  -18.3753  -41.5907 C.2       6 UNK         0.5000 
     41 O           0.6803  -19.0999  -41.1735 O.2       6 UNK        -0.5000 
     42 CA          2.1306  -17.2456  -40.6987 C.3       6 UNK         0.1400 
     43 CB          3.4418  -17.6736  -40.0230 C.3       6 UNK        -0.1800 
     44 N           2.3495  -16.0037  -41.4429 N.am      6 UNK        -0.5000 
     45 C           1.3692  -15.2659  -41.9833 C.2       5 UNK         0.5000 
     46 O           0.1745  -15.5336  -41.8675 O.2       5 UNK        -0.5000 
     47 CA          1.7942  -14.0521  -42.8320 C.3       5 UNK         0.1400 
     48 CB          1.9300  -12.8015  -41.9510 C.3       5 UNK        -0.1800 
     49 N           3.0409  -14.2602  -43.5750 N.am      5 UNK        -0.5000 
     50 C           3.2267  -15.2033  -44.5074 C.2       4 UNK         0.5000 
     51 O           2.3700  -16.0328  -44.8260 O.2       4 UNK        -0.5000 
     52 CA          4.6206  -15.2639  -45.1439 C.3       4 UNK         0.1400 
     53 CB          5.6175  -15.9476  -44.1883 C.3       4 UNK        -0.1800 
     54 N           4.5361  -16.0120  -46.3928 N.am      4 UNK        -0.5000 
     55 C           5.4405  -15.9999  -47.3795 C.2       3 UNK         0.5000 
     56 O           6.4629  -15.3132  -47.3572 O.2       3 UNK        -0.5000 
     57 CA          5.1775  -16.9174  -48.5903 C.3       3 UNK         0.1400 
     58 CB          6.0240  -18.1957  -48.4803 C.3       3 UNK        -0.1800 
     59 N           3.7698  -17.2990  -48.7165 N.am      3 UNK        -0.5000 
     60 C           2.8279  -16.5533  -49.3085 C.2       2 UNK         0.5000 
     61 O           3.0717  -15.4999  -49.9010 O.2       2 UNK        -0.5000 
     62 CA          1.3892  -17.1166  -49.2514 C.3       2 UNK         0.1400 
     63 CB          1.0597  -17.7391  -47.8754 C.3       2 UNK        -0.1800 
     64 N           0.3478  -16.1546  -49.6279 N.am      2 UNK        -0.5000 
     65 C           0.0597  -14.9829  -49.0465 C.2       1 UNK         0.5000 
     66 O           0.6936  -14.4913  -48.1094 O.2       1 UNK        -0.5000 
     67 C          -2.7653  -23.3458  -45.5784 C.2       11 UNK         0.5000 
     68 O          -2.3427  -23.4875  -46.7241 O.2       11 UNK        -0.5000 
     69 N          -2.7285  -24.3217  -44.6622 N.am      12 UNK        -0.5000 
     70 CA         -2.2011  -25.6765  -44.8670 C.3       12 UNK         0.1400 
     71 CB         -2.4760  -26.5044  -43.6024 C.3       12 UNK        -0.1800 
     72 C          -0.7009  -25.7275  -45.2314 C.2       12 UNK         0.5000 
     73 O          -0.2319  -26.7466  -45.7387 O.2       12 UNK        -0.5000 
     74 N           0.0184  -24.6266  -44.9751 N.am      13 UNK        -0.5000 
     75 CA          1.4013  -24.3995  -45.3862 C.3       13 UNK         0.1400 
     76 CB          1.9269  -23.1602  -44.6471 C.3       13 UNK        -0.1800 
     77 C           1.5652  -24.2220  -46.9105 C.2       13 UNK         0.5000 
     78 O           2.6448  -24.5078  -47.4301 O.2       13 UNK        -0.5000 
     79 N           0.5134  -23.7554  -47.5994 N.am      14 UNK        -0.5000 
     80 CA          0.4763  -23.6242  -49.0536 C.3       14 UNK         0.1400 
     81 CB         -0.4088  -22.4261  -49.4341 C.3       14 UNK        -0.1800 
     82 C          -0.0605  -24.9212  -49.6797 C.2       14 UNK         0.5000 
     83 O          -0.9701  -25.5413  -49.1219 O.2       14 UNK        -0.5000 
     84 N           0.4930  -25.2957  -50.8409 N.am      15 UNK        -0.5000 
     85 CA          0.1110  -26.4782  -51.6166 C.3       15 UNK         0.1400 
     86 CB          1.0260  -26.5951  -52.8455 C.3       15 UNK        -0.1800 
     87 C          -1.3691  -26.4221  -52.0336 C.2       15 UNK         0.5000 
     88 O          -1.7613  -25.4993  -52.7495 O.2       15 UNK        -0.5000 
     89 N          -2.1697  -27.3653  -51.5159 N.am      16 UNK        -0.5000 
     90 CA         -3.6301  -27.4609  -51.6629 C.3       16 UNK         0.1400 
     91 CB         -3.9984  -27.8307  -53.1151 C.3       16 UNK        -0.1800 
     92 C          -4.3913  -26.2095  -51.1617 C.2       16 UNK         0.5000 
     93 O          -5.5004  -25.9424  -51.6262 O.2       16 UNK        -0.5000 
     94 N          -3.7658  -25.4536  -50.2447 N.am      17 UNK        -0.5000 
     95 CA         -4.1816  -24.1501  -49.7182 C.3       17 UNK         0.1400 
     96 CB         -5.4938  -24.2622  -48.9149 C.3       17 UNK        -0.1800 
     97 C          -4.2199  -23.0175  -50.7695 C.2       17 UNK         0.5000 
     98 O          -4.7953  -21.9638  -50.4961 O.2       17 UNK        -0.5000 
     99 N          -3.5926  -23.2177  -51.9386 N.am      18 UNK        -0.5000 
    100 CA        -3.5060  -22.2348  -53.0173 C.3       18 UNK         0.1400 
    101 CB        -3.3382  -22.9680  -54.3593 C.3       18 UNK        -0.1800 
    102 C         -2.3624  -21.2447  -52.7351 C.2       18 UNK         0.5000 
    103 O         -1.2936  -21.3283  -53.3421 O.2       18 UNK        -0.5000 
    104 N         -2.6027  -20.3320  -51.7889 N.am      19 UNK        -0.5000 
    105 CA        -1.6727  -19.3321  -51.2602 C.3       19 UNK         0.1400 
    106 CB        -2.2333  -18.8342  -49.9191 C.3       19 UNK        -0.1800 
    107 C         -1.3545  -18.1665  -52.2261 C.2       19 UNK         0.5000 
    108 O         -1.2742  -17.0173  -51.7869 O.2       19 UNK        -0.5000 
    109 N         -1.1593  -18.4772  -53.5140 N.am      20 UNK        -0.5000 
    110 CA        -0.7501  -17.6245  -54.6399 C.3       20 UNK         0.1400 
    111 CB         0.6451  -17.0201  -54.3907 C.3       20 UNK        -0.1800 
    112 C         -1.7535  -16.5275  -55.0521 C.2       20 UNK         0.5000 
    113 O         -1.9946  -16.3487  -56.2462 O.2       20 UNK        -0.5000 
    114 N         -2.3119  -15.8097  -54.0734 N.am      21 UNK        -0.5000 
    115 CA        -3.2242  -14.6794  -54.2566 C.3       21 UNK         0.1400 
    116 CB        -3.1607  -13.8068  -52.9937 C.3       21 UNK        -0.1800 
    117 C         -4.6804  -15.0938  -54.5502 C.2       21 UNK         0.5000 
    118 O         -5.4890  -14.2338  -54.9032 O.2       21 UNK        -0.5000 
    119 N         -4.9975  -16.3802  -54.3636 N.am      22 UNK        -0.5000 
    120 CA        -6.3379  -16.9710  -54.4964 C.3       22 UNK         0.1400 
    121 C         -6.9359  -16.8465  -55.9259 C.2       22 UNK         0.5000 
    122 N         -8.2312  -16.5876  -56.0441 N.am      22 UNK        -0.7600 
    123 O         -6.2468  -17.0308  -56.9269 O.2       22 UNK        -0.5000 
    124 C124       -6.3635  -18.4526  -54.0345 C.3       23 UNK        -0.0398 
    125 S125       -5.5308  -18.7232  -52.4354 S.3       23 UNK        -0.2404 
    126 C126       -6.8415  -18.3055  -51.2463 C.3       23 UNK        -0.0205 
    127 H127       -0.7106  -10.2987  -49.5242 H         1 UNK         0.0600 
    128 H128       -0.4602  -10.1877  -51.2685 H         1 UNK         0.0600 
    129 H129        0.9229  -10.3936  -50.1882 H         1 UNK         0.0600 
    130 H130       -1.4744  -12.2939  -48.8886 H         1 UNK         0.3000 
    131 H131       -1.4111  -14.6173  -50.5782 H         1 UNK         0.0600 
    132 H132       -2.2429  -14.3513  -47.6416 H         1 UNK         0.0800 
    133 H133       -2.5343  -15.7487  -48.6554 H         1 UNK         0.0800 
    134 H134       -6.1292  -14.2142  -48.1570 H         1 UNK         0.0800 
    135 H135       -4.8303  -14.6033  -47.0579 H         1 UNK         0.0800 
    136 H136       -6.3905  -15.7974  -50.2673 H         1 UNK         0.1150 
    137 H137       -5.8654  -19.9399  -49.3111 H         1 UNK         0.1150 
    138 H138       -4.3501  -16.9258  -46.6674 H         1 UNK         0.1150 
    139 H139       -4.2014  -20.4956  -47.6695 H         1 UNK         0.0800 
    140 H140       -3.4567  -19.2710  -46.6697 H         1 UNK         0.0800 
    141 H141       -5.1354  -22.4170  -46.2654 H         1 UNK         0.0800 
    142 H142       -5.3805  -22.3065  -44.5500 H         1 UNK         0.0800 
    143 H143       -2.7981  -21.2816  -45.8382 H         1 UNK         0.0600 
    144 H144       -2.1168  -20.7983  -43.8806 H         1 UNK         0.3000 
    145 H145       -2.8597  -21.7088  -40.5237 H         1 UNK         0.0600 
    146 H146       -0.3836  -21.7361  -40.4816 H         1 UNK         0.0600 
    147 H147       -0.9820  -23.1645  -41.3117 H         1 UNK         0.0600 
    148 H148       -0.3199  -21.8232  -42.2396 H         1 UNK         0.0600 
    149 H149       -1.2686  -19.6208  -41.6772 H         1 UNK         0.3000 
    150 H150       -3.8220  -17.1053  -41.5607 H         1 UNK         0.0600 
    151 H151       -2.8668  -17.2892  -39.2603 H         1 UNK         0.0600 
    152 H152       -2.0713  -16.0251  -40.1859 H         1 UNK         0.0600 
    153 H153       -1.2664  -17.5721  -39.9343 H         1 UNK         0.0600 
    154 H154       -1.0695  -17.0405  -42.3466 H         1 UNK         0.3000 
    155 H155       -1.6439  -17.7273  -45.8196 H         1 UNK         0.0600 
    156 H156       -0.8655  -15.1610  -44.3390 H         1 UNK         0.0600 
    157 H157       -2.1444  -15.3085  -45.5310 H         1 UNK         0.0600 
    158 H158       -0.4660  -15.5456  -46.0088 H         1 UNK         0.0600 
    159 H159        0.7418  -17.0940  -44.4095 H         1 UNK         0.3000 
    160 H160        1.5855  -20.4064  -43.3678 H         1 UNK         0.0600 
    161 H161        2.8374  -18.5356  -45.4490 H         1 UNK         0.0600 
    162 H162        2.3459  -20.1954  -45.7512 H         1 UNK         0.0600 
    163 H163        3.6397  -19.8603  -44.6120 H         1 UNK         0.0600 
    164 H164        2.8039  -17.8007  -43.1080 H         1 UNK         0.3000 
    165 H165        1.3917  -17.0502  -39.9186 H         1 UNK         0.0600 
    166 H166        3.7957  -16.9095  -39.3306 H         1 UNK         0.0600 
    167 H167        3.3033  -18.5912  -39.4496 H         1 UNK         0.0600 
    168 H168        4.2317  -17.8579  -40.7523 H         1 UNK         0.0600 
    169 H169        3.3054  -15.7111  -41.5798 H         1 UNK         0.3000 
    170 H170        1.0036  -13.8683  -43.5617 H         1 UNK         0.0600 
    171 H171        1.0072  -12.6089  -41.4019 H         1 UNK         0.0600 
    172 H172        2.7315  -12.9087  -41.2190 H         1 UNK         0.0600 
    173 H173        2.1391  -11.9162  -42.5518 H         1 UNK         0.0600 
    174 H174        3.7988  -13.6276  -43.3619 H         1 UNK         0.3000 
    175 H175        4.9479  -14.2443  -45.3575 H         1 UNK         0.0600 
    176 H176        5.3235  -16.9755  -43.9714 H         1 UNK         0.0600 
    177 H177        6.6219  -15.9715  -44.6111 H         1 UNK         0.0600 
    178 H178        5.6840  -15.4162  -43.2383 H         1 UNK         0.0600 
    179 H179        3.6821  -16.5434  -46.4973 H         1 UNK         0.3000 
    180 H180        5.4892  -16.3801  -49.4886 H         1 UNK         0.0600 
    181 H181        5.7624  -18.7782  -47.5958 H         1 UNK         0.0600 
    182 H182        7.0862  -17.9564  -48.4128 H         1 UNK         0.0600 
    183 H183        5.8915  -18.8333  -49.3546 H         1 UNK         0.0600 
    184 H184        3.5030  -18.1715  -48.2852 H         1 UNK         0.3000 
    185 H185        1.3401  -17.9099  -49.9985 H         1 UNK         0.0600 
    186 H186        1.6460  -18.6393  -47.6935 H         1 UNK         0.0600 
    187 H187        1.2613  -17.0399  -47.0640 H         1 UNK         0.0600 
    188 H188        0.0137  -18.0305  -47.7994 H         1 UNK         0.0600 
    189 H189       -0.2201  -16.4305  -50.4268 H         1 UNK         0.3000 
    190 H190       -3.1144  -24.1127  -43.7456 H         1 UNK         0.3000 
    191 H191       -2.7491  -26.1227  -45.6994 H         1 UNK         0.0600 
    192 H192       -3.5432  -26.5480  -43.3836 H         1 UNK         0.0600 
    193 H193       -1.9715  -26.0844  -42.7312 H         1 UNK         0.0600 
    194 H194       -2.1278  -27.5312  -43.7216 H         1 UNK         0.0600 
    195 H195       -0.4573  -23.8478  -44.5463 H         1 UNK         0.3000 
    196 H196        1.9972  -25.2634  -45.0844 H         1 UNK         0.0600 
    197 H197        2.9620  -22.9481  -44.9182 H         1 UNK         0.0600 
    198 H198        1.8952  -23.2992  -43.5663 H         1 UNK         0.0600 
    199 H199        1.3339  -22.2784  -44.8904 H         1 UNK         0.0600 
    200 H200       -0.3777  -23.6393  -47.1277 H         1 UNK         0.3000 
    201 H201        1.4823  -23.4345  -49.4341 H         1 UNK         0.0600 
    202 H202       -0.0142  -21.4979  -49.0205 H         1 UNK         0.0600 
    203 H203       -1.4302  -22.5415  -49.0734 H         1 UNK         0.0600 
    204 H204       -0.4559  -22.3074  -50.5170 H         1 UNK         0.0600 
    205 H205        1.2097  -24.7138  -51.2491 H         1 UNK         0.3000 
    206 H206        0.2720  -27.3564  -50.9880 H         1 UNK         0.0600 
    207 H207        2.0711  -26.6956  -52.5523 H         1 UNK         0.0600 
    208 H208        0.7698  -27.4733  -53.4397 H         1 UNK         0.0600 
    209 H209        0.9415  -25.7233  -53.4959 H         1 UNK         0.0600 
    210 H210       -1.7553  -28.0546  -50.9035 H         1 UNK         0.3000 
    211 H211       -3.9492  -28.2832  -51.0210 H         1 UNK         0.0600 
    212 H212       -3.7725  -27.0199  -53.8085 H         1 UNK         0.0600 
    213 H213       -5.0624  -28.0518  -53.2067 H         1 UNK         0.0600 
    214 H214       -3.4561  -28.7162  -53.4464 H         1 UNK         0.0600 
    215 H215       -2.8479  -25.7549  -49.9311 H         1 UNK         0.3000 
    216 H216       -3.4005  -23.8623  -49.0177 H         1 UNK         0.0600 
    217 H217       -5.7333  -23.3198  -48.4221 H         1 UNK         0.0600 
    218 H218       -5.4147  -25.0218  -48.1372 H         1 UNK         0.0600 
    219 H219       -6.3409  -24.5166  -49.5517 H         1 UNK         0.0600 
    220 H220       -3.0931  -24.0879  -52.0913 H         1 UNK         0.3000 
    221 H221       -4.4390  -21.6691  -53.0682 H         1 UNK         0.0600 
    222 H222       -2.4091  -23.5371  -54.4002 H         1 UNK         0.0600 
    223 H223       -4.1614  -23.6606  -54.5351 H         1 UNK         0.0600 
    224 H224       -3.3242  -22.2601  -55.1888 H         1 UNK         0.0600 
    225 H225       -3.5160  -20.3574  -51.3494 H         1 UNK         0.3000 
    226 H226       -0.7232  -19.8307  -51.0585 H         1 UNK         0.0600 
    227 H227       -2.4111  -19.6624  -49.2337 H         1 UNK         0.0600 
    228 H228       -1.5485  -18.1497  -49.4252 H         1 UNK         0.0600 
    229 H229       -3.1725  -18.3000  -50.0625 H         1 UNK         0.0600 
    230 H230       -1.2340  -19.4661  -53.7369 H         1 UNK         0.3000 
    231 H231       -0.6631  -18.2982  -55.4938 H         1 UNK         0.0600 
    232 H232        1.3801  -17.7977  -54.1828 H         1 UNK         0.0600 
    233 H233        0.6458  -16.3249  -53.5504 H         1 UNK         0.0600 
    234 H234        0.9928  -16.4705  -55.2663 H         1 UNK         0.0600 
    235 H235       -2.0450  -16.0420  -53.1194 H         1 UNK         0.3000 
    236 H236       -2.8777  -14.0821  -55.1025 H         1 UNK         0.0600 
    237 H237       -3.8000  -12.9280  -53.0860 H         1 UNK         0.0600 
    238 H238       -3.4887  -14.3616  -52.1146 H         1 UNK         0.0600 
    239 H239       -2.1467  -13.4520  -52.8084 H         1 UNK         0.0600 
    240 H240       -4.2672  -17.0089  -54.0662 H         1 UNK         0.3000 
    241 H241       -6.9818  -16.4043  -53.8214 H         1 UNK         0.0600 
    242 H242       -8.6343  -16.5209  -56.9662 H         1 UNK         0.3800 
    243 H243       -8.8195  -16.4401  -55.2383 H         1 UNK         0.3800 
    244 H244       -7.3897  -18.8181  -53.9675 H         1 UNK         0.0800 
    245 H245       -5.8631  -19.0863  -54.7691 H         1 UNK         0.0800 
    246 H246       -7.4524  -17.4878  -51.6309 H         1 UNK         0.0800 
    247 H247       -7.5052  -19.1614  -51.1159 H         1 UNK         0.0800 
@<TRIPOS>BOND
     1    1    2 1    
     2    1  127 1    
     3    1  128 1    
     4    1  129 1    
     5    2    3 2    
     6    2    4 am   BACKBONE|DICT|INTERRES
     7    4    5 1    
     8    4  130 1    
     9    5    6 1    
    10    5   65 1    
    11    5  131 1    
    12    6    7 1    
    13    6  132 1    
    14    6  133 1    
    15    7    8 1    
    16    8    9 1    
    17    8  134 1    
    18    8  135 1    
    19    9   10 ar   
    20    9   14 ar   
    21   10   11 ar   
    22   10  136 1    
    23   11   12 ar   
    24   11  126 1    
    25   12   13 ar   
    26   12  137 1    
    27   13   14 ar   
    28   13   15 1    
    29   14  138 1    
    30   15   16 1    
    31   15  139 1    
    32   15  140 1    
    33   16   17 1    
    34   17   18 1    
    35   17  141 1    
    36   17  142 1    
    37   18   19 1    
    38   18   67 1    
    39   18  143 1    
    40   19   20 am   BACKBONE|DICT|INTERRES
    41   19  144 1    
    42   20   21 2    
    43   20   22 1    
    44   22   23 1    
    45   22   24 1    
    46   22  145 1    
    47   23  146 1    
    48   23  147 1    
    49   23  148 1    
    50   24   25 am   BACKBONE|DICT|INTERRES
    51   24  149 1    
    52   25   26 2    
    53   25   27 1    
    54   27   28 1    
    55   27   29 1    
    56   27  150 1    
    57   28  151 1    
    58   28  152 1    
    59   28  153 1    
    60   29   30 am   BACKBONE|DICT|INTERRES
    61   29  154 1    
    62   30   31 2    
    63   30   32 1    
    64   32   33 1    
    65   32   34 1    
    66   32  155 1    
    67   33  156 1    
    68   33  157 1    
    69   33  158 1    
    70   34   35 am   BACKBONE|DICT|INTERRES
    71   34  159 1    
    72   35   36 2    
    73   35   37 1    
    74   37   38 1    
    75   37   39 1    
    76   37  160 1    
    77   38  161 1    
    78   38  162 1    
    79   38  163 1    
    80   39   40 am   BACKBONE|DICT|INTERRES
    81   39  164 1    
    82   40   41 2    
    83   40   42 1    
    84   42   43 1    
    85   42   44 1    
    86   42  165 1    
    87   43  166 1    
    88   43  167 1    
    89   43  168 1    
    90   44   45 am   BACKBONE|DICT|INTERRES
    91   44  169 1    
    92   45   46 2    
    93   45   47 1    
    94   47   48 1    
    95   47   49 1    
    96   47  170 1    
    97   48  171 1    
    98   48  172 1    
    99   48  173 1    
   100   49   50 am   BACKBONE|DICT|INTERRES
   101   49  174 1    
   102   50   51 2    
   103   50   52 1    
   104   52   53 1    
   105   52   54 1    
   106   52  175 1    
   107   53  176 1    
   108   53  177 1    
   109   53  178 1    
   110   54   55 am   BACKBONE|DICT|INTERRES
   111   54  179 1    
   112   55   56 2    
   113   55   57 1    
   114   57   58 1    
   115   57   59 1    
   116   57  180 1    
   117   58  181 1    
   118   58  182 1    
   119   58  183 1    
   120   59   60 am   BACKBONE|DICT|INTERRES
   121   59  184 1    
   122   60   61 2    
   123   60   62 1    
   124   62   63 1    
   125   62   64 1    
   126   62  185 1    
   127   63  186 1    
   128   63  187 1    
   129   63  188 1    
   130   64   65 am   BACKBONE|DICT|INTERRES
   131   64  189 1    
   132   65   66 2    
   133   67   68 2    
   134   67   69 am   BACKBONE|DICT|INTERRES
   135   69   70 1    
   136   69  190 1    
   137   70   71 1    
   138   70   72 1    
   139   70  191 1    
   140   71  192 1    
   141   71  193 1    
   142   71  194 1    
   143   72   73 2    
   144   72   74 am   BACKBONE|DICT|INTERRES
   145   74   75 1    
   146   74  195 1    
   147   75   76 1    
   148   75   77 1    
   149   75  196 1    
   150   76  197 1    
   151   76  198 1    
   152   76  199 1    
   153   77   78 2    
   154   77   79 am   BACKBONE|DICT|INTERRES
   155   79   80 1    
   156   79  200 1    
   157   80   81 1    
   158   80   82 1    
   159   80  201 1    
   160   81  202 1    
   161   81  203 1    
   162   81  204 1    
   163   82   83 2    
   164   82   84 am   BACKBONE|DICT|INTERRES
   165   84   85 1    
   166   84  205 1    
   167   85   86 1    
   168   85   87 1    
   169   85  206 1    
   170   86  207 1    
   171   86  208 1    
   172   86  209 1    
   173   87   88 2    
   174   87   89 am   BACKBONE|DICT|INTERRES
   175   89   90 1    
   176   89  210 1    
   177   90   91 1    
   178   90   92 1    
   179   90  211 1    
   180   91  212 1    
   181   91  213 1    
   182   91  214 1    
   183   92   93 2    
   184   92   94 am   BACKBONE|DICT|INTERRES
   185   94   95 1    
   186   94  215 1    
   187   95   96 1    
   188   95   97 1    
   189   95  216 1    
   190   96  217 1    
   191   96  218 1    
   192   96  219 1    
   193   97   98 2    
   194   97   99 am   BACKBONE|DICT|INTERRES
   195   99  100 1    
   196   99  220 1    
   197  100  101 1    
   198  100  102 1    
   199  100  221 1    
   200  101  222 1    
   201  101  223 1    
   202  101  224 1    
   203  102  103 2    
   204  102  104 am   BACKBONE|DICT|INTERRES
   205  104  105 1    
   206  104  225 1    
   207  105  106 1    
   208  105  107 1    
   209  105  226 1    
   210  106  227 1    
   211  106  228 1    
   212  106  229 1    
   213  107  108 2    
   214  107  109 am   BACKBONE|DICT|INTERRES
   215  109  110 1    
   216  109  230 1    
   217  110  111 1    
   218  110  112 1    
   219  110  231 1    
   220  111  232 1    
   221  111  233 1    
   222  111  234 1    
   223  112  113 2    
   224  112  114 am   BACKBONE|DICT|INTERRES
   225  114  115 1    
   226  114  235 1    
   227  115  116 1    
   228  115  117 1    
   229  115  236 1    
   230  116  237 1    
   231  116  238 1    
   232  116  239 1    
   233  117  118 2    
   234  117  119 am   BACKBONE|DICT|INTERRES
   235  119  120 1    
   236  119  240 1    
   237  120  121 1    
   238  120  124 1    
   239  120  241 1    
   240  121  122 am   BACKBONE|DICT|INTERRES
   241  121  123 2    
   242  122  242 1    
   243  122  243 1    
   244  124  125 1    
   245  124  244 1    
   246  124  245 1    
   247  125  126 1    
   248  126  246 1    
   249  126  247 1    
@<TRIPOS>SUBSTRUCTURE
     1 UNK         1 GROUP             0       ****    0 ROOT    
