@<TRIPOS>MOLECULE
3R540
247   249    1
SMALL
USER_CHARGES


@<TRIPOS>ATOM
      1 CA          1.7582  -15.6549  -41.0594 C.3       0 UNK        -0.1800 
      2 C           0.4400  -15.2290  -41.6901 C.2       0 UNK         0.5000 
      3 O          -0.4052  -14.6432  -41.0128 O.2       0 UNK        -0.5000 
      4 N           0.2642  -15.5132  -42.9843 N.am      1 UNK        -0.5000 
      5 CA         -0.9033  -15.1347  -43.7808 C.3       1 UNK         0.1400 
      6 C6         -1.2118  -16.1744  -44.8854 C.3       23 UNK        -0.0398 
      7 S7         -1.6842  -17.7974  -44.1983 S.3       23 UNK        -0.2404 
      8 C8         -2.9139  -18.3654  -45.4160 C.3       23 UNK        -0.0205 
      9 C9         -2.2800  -18.6530  -46.7686 C.ar      23 UNK        -0.0193 
     10 C10        -2.4797  -17.7877  -47.8493 C.ar      23 UNK        -0.1150 
     11 C11        -1.8945  -18.0584  -49.0904 C.ar      23 UNK        -0.0193 
     12 C12        -1.0923  -19.1928  -49.2410 C.ar      23 UNK        -0.1150 
     13 C13        -0.8950  -20.0698  -48.1718 C.ar      23 UNK        -0.0193 
     14 C14        -1.4979  -19.7975  -46.9411 C.ar      23 UNK        -0.1150 
     15 C15        -0.0526  -21.3208  -48.3484 C.3       23 UNK        -0.0205 
     16 S16         1.3600  -21.3734  -47.1958 S.3       23 UNK        -0.2404 
     17 C17         1.8443  -23.1269  -47.3458 C.3       23 UNK        -0.0398 
     18 CA          1.2880  -24.0776  -46.2529 C.3       11 UNK         0.1400 
     19 N           1.8218  -23.8111  -44.9117 N.am      11 UNK        -0.5000 
     20 C           2.0533  -24.7786  -44.0097 C.2       10 UNK         0.5000 
     21 O           1.8863  -25.9772  -44.2380 O.2       10 UNK        -0.5000 
     22 CA          2.5262  -24.3472  -42.6085 C.3       10 UNK         0.1400 
     23 CB          4.0339  -24.0524  -42.6128 C.3       10 UNK        -0.1800 
     24 N           1.8108  -23.1853  -42.0854 N.am      10 UNK        -0.5000 
     25 C           0.4938  -23.1260  -41.8420 C.2       9 UNK         0.5000 
     26 O          -0.2747  -24.0756  -41.9941 O.2       9 UNK        -0.5000 
     27 CA         -0.0659  -21.7660  -41.3731 C.3       9 UNK         0.1400 
     28 CB         -0.2056  -21.7475  -39.8437 C.3       9 UNK        -0.1800 
     29 N           0.7152  -20.5972  -41.7924 N.am      9 UNK        -0.5000 
     30 C           1.0461  -20.2795  -43.0517 C.2       8 UNK         0.5000 
     31 O           0.7631  -20.9765  -44.0296 O.2       8 UNK        -0.5000 
     32 CA          1.8659  -18.9923  -43.2240 C.3       8 UNK         0.1400 
     33 CB          3.1904  -19.0520  -42.4354 C.3       8 UNK        -0.1800 
     34 N           2.1502  -18.7616  -44.6366 N.am      8 UNK        -0.5000 
     35 C           2.4546  -17.5752  -45.1707 C.2       7 UNK         0.5000 
     36 O           2.4530  -16.5206  -44.5303 O.2       7 UNK        -0.5000 
     37 CA          2.7756  -17.5615  -46.6753 C.3       7 UNK         0.1400 
     38 CB          1.4849  -17.5465  -47.4965 C.3       7 UNK        -0.1800 
     39 N           3.5597  -16.3880  -47.0467 N.am      7 UNK        -0.5000 
     40 C           4.8841  -16.2640  -46.9042 C.2       6 UNK         0.5000 
     41 O           5.6199  -17.1673  -46.5045 O.2       6 UNK        -0.5000 
     42 CA          5.4878  -14.8972  -47.2836 C.3       6 UNK         0.1400 
     43 CB          5.9794  -14.9115  -48.7391 C.3       6 UNK        -0.1800 
     44 N           4.5365  -13.7963  -47.1158 N.am      6 UNK        -0.5000 
     45 C           4.1786  -13.2695  -45.9393 C.2       5 UNK         0.5000 
     46 O           4.6724  -13.6120  -44.8647 O.2       5 UNK        -0.5000 
     47 CA          3.0797  -12.1899  -45.9489 C.3       5 UNK         0.1400 
     48 CB          3.6717  -10.7848  -46.1632 C.3       5 UNK        -0.1800 
     49 N           1.9623  -12.4478  -46.8665 N.am      5 UNK        -0.5000 
     50 C           1.9242  -12.4383  -48.2071 C.2       4 UNK         0.5000 
     51 O           2.9154  -12.2716  -48.9180 O.2       4 UNK        -0.5000 
     52 CA          0.5501  -12.6585  -48.8680 C.3       4 UNK         0.1400 
     53 CB          0.3409  -14.1420  -49.2056 C.3       4 UNK        -0.1800 
     54 N          -0.5439  -12.2182  -48.0001 N.am      4 UNK        -0.5000 
     55 C          -1.3037  -11.1335  -48.2010 C.2       3 UNK         0.5000 
     56 O          -1.2131  -10.4035  -49.1889 O.2       3 UNK        -0.5000 
     57 CA         -2.3389  -10.7974  -47.1061 C.3       3 UNK         0.1400 
     58 CB         -3.6852  -11.4691  -47.4170 C.3       3 UNK        -0.1800 
     59 N          -1.9097  -11.1902  -45.7614 N.am      3 UNK        -0.5000 
     60 C          -0.8699  -10.6560  -45.1059 C.2       2 UNK         0.5000 
     61 O          -0.2179   -9.7014  -45.5295 O.2       2 UNK        -0.5000 
     62 CA         -0.4646  -11.3003  -43.7634 C.3       2 UNK         0.1400 
     63 CB         -0.9945  -10.4612  -42.5906 C.3       2 UNK        -0.1800 
     64 N          -0.8618  -12.6998  -43.5547 N.am      2 UNK        -0.5000 
     65 C          -0.6202  -13.7403  -44.3644 C.2       1 UNK         0.5000 
     66 O          -0.1480  -13.6336  -45.4972 O.2       1 UNK        -0.5000 
     67 C          -0.2525  -24.1411  -46.2418 C.2       11 UNK         0.5000 
     68 O          -0.8281  -24.8255  -47.0868 O.2       11 UNK        -0.5000 
     69 N          -0.8974  -23.4590  -45.2809 N.am      12 UNK        -0.5000 
     70 CA         -2.3560  -23.4078  -45.1229 C.3       12 UNK         0.1400 
     71 CB         -2.7272  -22.3376  -44.0856 C.3       12 UNK        -0.1800 
     72 C          -3.0051  -24.7572  -44.7544 C.2       12 UNK         0.5000 
     73 O          -4.2210  -24.8992  -44.8857 O.2       12 UNK        -0.5000 
     74 N          -2.1902  -25.7264  -44.3175 N.am      13 UNK        -0.5000 
     75 CA         -2.5731  -27.1248  -44.1271 C.3       13 UNK         0.1400 
     76 CB         -1.4505  -27.8368  -43.3568 C.3       13 UNK        -0.1800 
     77 C          -2.8718  -27.8603  -45.4528 C.2       13 UNK         0.5000 
     78 O          -3.5562  -28.8843  -45.4287 O.2       13 UNK        -0.5000 
     79 N          -2.3591  -27.3365  -46.5741 N.am      14 UNK        -0.5000 
     80 CA         -2.5947  -27.8219  -47.9301 C.3       14 UNK         0.1400 
     81 CB         -1.2349  -27.9253  -48.6448 C.3       14 UNK        -0.1800 
     82 C          -3.5397  -26.8664  -48.6834 C.2       14 UNK         0.5000 
     83 O          -3.9202  -25.8132  -48.1665 O.2       14 UNK        -0.5000 
     84 N          -3.8775  -27.2373  -49.9256 N.am      15 UNK        -0.5000 
     85 CA         -4.7367  -26.4748  -50.8406 C.3       15 UNK         0.1400 
     86 CB         -5.1255  -27.3828  -52.0183 C.3       15 UNK        -0.1800 
     87 C          -4.1206  -25.1542  -51.3549 C.2       15 UNK         0.5000 
     88 O          -4.8116  -24.3874  -52.0245 O.2       15 UNK        -0.5000 
     89 N          -2.8465  -24.8952  -51.0307 N.am      16 UNK        -0.5000 
     90 CA         -2.0788  -23.7057  -51.4064 C.3       16 UNK         0.1400 
     91 CB         -0.6312  -23.8918  -50.9254 C.3       16 UNK        -0.1800 
     92 C          -2.6561  -22.3662  -50.8981 C.2       16 UNK         0.5000 
     93 O          -2.2897  -21.3242  -51.4364 O.2       16 UNK        -0.5000 
     94 N          -3.5434  -22.4128  -49.8942 N.am      17 UNK        -0.5000 
     95 CA         -4.2742  -21.2581  -49.3662 C.3       17 UNK         0.1400 
     96 CB         -4.6574  -21.5360  -47.9042 C.3       17 UNK        -0.1800 
     97 C          -5.5114  -20.8567  -50.1977 C.2       17 UNK         0.5000 
     98 O          -6.1569  -19.8633  -49.8579 O.2       17 UNK        -0.5000 
     99 N          -5.8519  -21.6188  -51.2485 N.am      18 UNK        -0.5000 
    100 CA        -6.9171  -21.2772  -52.1939 C.3       18 UNK         0.1400 
    101 CB        -7.1670  -22.4695  -53.1292 C.3       18 UNK        -0.1800 
    102 C         -6.5601  -20.0272  -53.0188 C.2       18 UNK         0.5000 
    103 O         -5.3956  -19.8456  -53.3773 O.2       18 UNK        -0.5000 
    104 N         -7.5694  -19.2137  -53.3576 N.am      19 UNK        -0.5000 
    105 CA        -7.4167  -17.9566  -54.1017 C.3       19 UNK         0.1400 
    106 CB        -8.7892  -17.2829  -54.2465 C.3       19 UNK        -0.1800 
    107 C         -6.7458  -18.1172  -55.4806 C.2       19 UNK         0.5000 
    108 O         -5.9886  -17.2395  -55.8957 O.2       19 UNK        -0.5000 
    109 N         -6.9944  -19.2584  -56.1373 N.am      20 UNK        -0.5000 
    110 CA        -6.3718  -19.6486  -57.4030 C.3       20 UNK         0.1400 
    111 CB        -7.1159  -20.8692  -57.9660 C.3       20 UNK        -0.1800 
    112 C         -4.8627  -19.9462  -57.2838 C.2       20 UNK         0.5000 
    113 O         -4.1456  -19.8061  -58.2754 O.2       20 UNK        -0.5000 
    114 N         -4.4082  -20.3477  -56.0888 N.am      21 UNK        -0.5000 
    115 CA        -3.0007  -20.5831  -55.7757 C.3       21 UNK         0.1400 
    116 CB        -2.8859  -21.7267  -54.7562 C.3       21 UNK        -0.1800 
    117 C         -2.3231  -19.3000  -55.2631 C.2       21 UNK         0.5000 
    118 O         -1.1831  -19.0326  -55.6461 O.2       21 UNK        -0.5000 
    119 N         -3.0317  -18.5207  -54.4328 N.am      22 UNK        -0.5000 
    120 CA        -2.5713  -17.2159  -53.9260 C.3       22 UNK         0.1400 
    121 C         -2.4545  -16.1227  -55.0256 C.2       22 UNK         0.5000 
    122 N         -3.3547  -16.0719  -55.9999 N.am      22 UNK        -0.7600 
    123 O         -1.5339  -15.3108  -54.9940 O.2       22 UNK        -0.5000 
    124 C124       -3.4323  -16.6889  -52.7501 C.3       23 UNK        -0.0398 
    125 S125       -3.4737  -17.8238  -51.3261 S.3       23 UNK        -0.2404 
    126 C126       -2.1466  -17.1488  -50.2813 C.3       23 UNK        -0.0205 
    127 H127        2.4719  -15.9991  -41.8082 H         1 UNK         0.0600 
    128 H128        1.5904  -16.4641  -40.3488 H         1 UNK         0.0600 
    129 H129        2.2080  -14.8173  -40.5262 H         1 UNK         0.0600 
    130 H130        1.0322  -15.9261  -43.5110 H         1 UNK         0.3000 
    131 H131       -1.7856  -15.0613  -43.1411 H         1 UNK         0.0600 
    132 H132       -2.0198  -15.8124  -45.5232 H         1 UNK         0.0800 
    133 H133       -0.3500  -16.3183  -45.5353 H         1 UNK         0.0800 
    134 H134       -3.3858  -19.2750  -45.0421 H         1 UNK         0.0800 
    135 H135       -3.7101  -17.6251  -45.5068 H         1 UNK         0.0800 
    136 H136       -3.0990  -16.9102  -47.7296 H         1 UNK         0.1150 
    137 H137       -0.6485  -19.4069  -50.2031 H         1 UNK         0.1150 
    138 H138       -1.3367  -20.4692  -46.1108 H         1 UNK         0.1150 
    139 H139       -0.7022  -22.1817  -48.1970 H         1 UNK         0.0800 
    140 H140        0.3250  -21.3909  -49.3691 H         1 UNK         0.0800 
    141 H141        2.9341  -23.1679  -47.3313 H         1 UNK         0.0800 
    142 H142        1.5592  -23.4906  -48.3345 H         1 UNK         0.0800 
    143 H143        1.6161  -25.0755  -46.5525 H         1 UNK         0.0600 
    144 H144        1.9203  -22.8389  -44.6464 H         1 UNK         0.3000 
    145 H145        2.3440  -25.1810  -41.9272 H         1 UNK         0.0600 
    146 H146        4.3968  -23.8374  -41.6076 H         1 UNK         0.0600 
    147 H147        4.5982  -24.9089  -42.9841 H         1 UNK         0.0600 
    148 H148        4.2767  -23.1990  -43.2474 H         1 UNK         0.0600 
    149 H149        2.3569  -22.3518  -41.9284 H         1 UNK         0.3000 
    150 H150       -1.0608  -21.6516  -41.8011 H         1 UNK         0.0600 
    151 H151        0.7650  -21.8144  -39.3505 H         1 UNK         0.0600 
    152 H152       -0.8092  -22.5870  -39.4956 H         1 UNK         0.0600 
    153 H153       -0.6951  -20.8353  -39.5020 H         1 UNK         0.0600 
    154 H154        0.9980  -19.9742  -41.0502 H         1 UNK         0.3000 
    155 H155        1.2527  -18.1739  -42.8444 H         1 UNK         0.0600 
    156 H156        3.8111  -19.8875  -42.7612 H         1 UNK         0.0600 
    157 H157        3.0179  -19.1655  -41.3649 H         1 UNK         0.0600 
    158 H158        3.7714  -18.1387  -42.5644 H         1 UNK         0.0600 
    159 H159        2.0440  -19.5803  -45.2247 H         1 UNK         0.3000 
    160 H160        3.3356  -18.4673  -46.9182 H         1 UNK         0.0600 
    161 H161        0.9489  -16.6068  -47.3896 H         1 UNK         0.0600 
    162 H162        0.8171  -18.3343  -47.1604 H         1 UNK         0.0600 
    163 H163        1.6812  -17.7080  -48.5564 H         1 UNK         0.0600 
    164 H164        3.0389  -15.5707  -47.3237 H         1 UNK         0.3000 
    165 H165        6.3475  -14.7202  -46.6338 H         1 UNK         0.0600 
    166 H166        6.7064  -15.7090  -48.8984 H         1 UNK         0.0600 
    167 H167        5.1583  -15.0695  -49.4396 H         1 UNK         0.0600 
    168 H168        6.4662  -13.9715  -48.9997 H         1 UNK         0.0600 
    169 H169        4.1032  -13.4150  -47.9522 H         1 UNK         0.3000 
    170 H170        2.6352  -12.2031  -44.9526 H         1 UNK         0.0600 
    171 H171        2.8988  -10.0189  -46.0941 H         1 UNK         0.0600 
    172 H172        4.1548  -10.6886  -47.1358 H         1 UNK         0.0600 
    173 H173        4.4219  -10.5598  -45.4043 H         1 UNK         0.0600 
    174 H174        1.1064  -12.7257  -46.3924 H         1 UNK         0.3000 
    175 H175        0.5510  -12.0958  -49.8037 H         1 UNK         0.0600 
    176 H176       -0.5409  -14.2776  -49.8317 H         1 UNK         0.0600 
    177 H177        1.1927  -14.5542  -49.7484 H         1 UNK         0.0600 
    178 H178        0.1979  -14.7343  -48.3035 H         1 UNK         0.0600 
    179 H179       -0.6688  -12.7413  -47.1395 H         1 UNK         0.3000 
    180 H180       -2.4866   -9.7154  -47.1113 H         1 UNK         0.0600 
    181 H181       -3.6048  -12.5569  -47.4044 H         1 UNK         0.0600 
    182 H182       -4.0477  -11.1783  -48.4039 H         1 UNK         0.0600 
    183 H183       -4.4476  -11.1792  -46.6938 H         1 UNK         0.0600 
    184 H184       -2.3940  -11.9666  -45.3363 H         1 UNK         0.3000 
    185 H185        0.6260  -11.2766  -43.7256 H         1 UNK         0.0600 
    186 H186       -0.6915   -9.4173  -42.6844 H         1 UNK         0.0600 
    187 H187       -2.0839  -10.4839  -42.5423 H         1 UNK         0.0600 
    188 H188       -0.6078  -10.8241  -41.6380 H         1 UNK         0.0600 
    189 H189       -1.2228  -12.9110  -42.6338 H         1 UNK         0.3000 
    190 H190       -0.3508  -22.8897  -44.6473 H         1 UNK         0.3000 
    191 H191       -2.7644  -23.1147  -46.0888 H         1 UNK         0.0600 
    192 H192       -2.1481  -21.4231  -44.2092 H         1 UNK         0.0600 
    193 H193       -3.7812  -22.0709  -44.1708 H         1 UNK         0.0600 
    194 H194       -2.5711  -22.7032  -43.0713 H         1 UNK         0.0600 
    195 H195       -1.2143  -25.5007  -44.1864 H         1 UNK         0.3000 
    196 H196       -3.4805  -27.1526  -43.5204 H         1 UNK         0.0600 
    197 H197       -1.7083  -28.8787  -43.1624 H         1 UNK         0.0600 
    198 H198       -1.2705  -27.3609  -42.3924 H         1 UNK         0.0600 
    199 H199       -0.5128  -27.8277  -43.9144 H         1 UNK         0.0600 
    200 H200       -1.8740  -26.4464  -46.5214 H         1 UNK         0.3000 
    201 H201       -3.0573  -28.8105  -47.9099 H         1 UNK         0.0600 
    202 H202       -1.3369  -28.3666  -49.6366 H         1 UNK         0.0600 
    203 H203       -0.7656  -26.9484  -48.7666 H         1 UNK         0.0600 
    204 H204       -0.5450  -28.5567  -48.0844 H         1 UNK         0.0600 
    205 H205       -3.5187  -28.1105  -50.2847 H         1 UNK         0.3000 
    206 H206       -5.6483  -26.2088  -50.3017 H         1 UNK         0.0600 
    207 H207       -5.6353  -28.2822  -51.6726 H         1 UNK         0.0600 
    208 H208       -5.8046  -26.8711  -52.7019 H         1 UNK         0.0600 
    209 H209       -4.2515  -27.6905  -52.5937 H         1 UNK         0.0600 
    210 H210       -2.3650  -25.5742  -50.4612 H         1 UNK         0.3000 
    211 H211       -2.0718  -23.6541  -52.4968 H         1 UNK         0.0600 
    212 H212       -0.5809  -24.0088  -49.8424 H         1 UNK         0.0600 
    213 H213       -0.0134  -23.0349  -51.1969 H         1 UNK         0.0600 
    214 H214       -0.1756  -24.7727  -51.3778 H         1 UNK         0.0600 
    215 H215       -3.7793  -23.3155  -49.5063 H         1 UNK         0.3000 
    216 H216       -3.6144  -20.3904  -49.3738 H         1 UNK         0.0600 
    217 H217       -5.2811  -20.7400  -47.4955 H         1 UNK         0.0600 
    218 H218       -3.7672  -21.5809  -47.2819 H         1 UNK         0.0600 
    219 H219       -5.2023  -22.4744  -47.7958 H         1 UNK         0.0600 
    220 H220       -5.2850  -22.4265  -51.4799 H         1 UNK         0.3000 
    221 H221       -7.8287  -21.0801  -51.6262 H         1 UNK         0.0600 
    222 H222       -6.2824  -22.7060  -53.7226 H         1 UNK         0.0600 
    223 H223       -7.4400  -23.3622  -52.5662 H         1 UNK         0.0600 
    224 H224       -7.9821  -22.2612  -53.8232 H         1 UNK         0.0600 
    225 H225       -8.5032  -19.4368  -53.0443 H         1 UNK         0.3000 
    226 H226       -6.7784  -17.3019  -53.5053 H         1 UNK         0.0600 
    227 H227       -8.7045  -16.3337  -54.7776 H         1 UNK         0.0600 
    228 H228       -9.4885  -17.9088  -54.8022 H         1 UNK         0.0600 
    229 H229       -9.2292  -17.0695  -53.2722 H         1 UNK         0.0600 
    230 H230       -7.6253  -19.9242  -55.7165 H         1 UNK         0.3000 
    231 H231       -6.4888  -18.8216  -58.1066 H         1 UNK         0.0600 
    232 H232       -7.0509  -21.7253  -57.2931 H         1 UNK         0.0600 
    233 H233       -6.6969  -21.1738  -58.9260 H         1 UNK         0.0600 
    234 H234       -8.1709  -20.6482  -58.1291 H         1 UNK         0.0600 
    235 H235       -5.0443  -20.3664  -55.3003 H         1 UNK         0.3000 
    236 H236       -2.4728  -20.8974  -56.6787 H         1 UNK         0.0600 
    237 H237       -1.8456  -21.8997  -54.4780 H         1 UNK         0.0600 
    238 H238       -3.4373  -21.5102  -53.8420 H         1 UNK         0.0600 
    239 H239       -3.2752  -22.6593  -55.1645 H         1 UNK         0.0600 
    240 H240       -3.9303  -18.8522  -54.0940 H         1 UNK         0.3000 
    241 H241       -1.5622  -17.3694  -53.5382 H         1 UNK         0.0600 
    242 H242       -4.1739  -16.6737  -55.9926 H         1 UNK         0.3800 
    243 H243       -3.2700  -15.3642  -56.7116 H         1 UNK         0.3800 
    244 H244       -4.4594  -16.5287  -53.0809 H         1 UNK         0.0800 
    245 H245       -3.0701  -15.7170  -52.4097 H         1 UNK         0.0800 
    246 H246       -1.2320  -17.0480  -50.8676 H         1 UNK         0.0800 
    247 H247       -2.4176  -16.1464  -49.9466 H         1 UNK         0.0800 
@<TRIPOS>BOND
     1    1    2 1    
     2    1  127 1    
     3    1  128 1    
     4    1  129 1    
     5    2    3 2    
     6    2    4 am   BACKBONE|DICT|INTERRES
     7    4    5 1    
     8    4  130 1    
     9    5    6 1    
    10    5   65 1    
    11    5  131 1    
    12    6    7 1    
    13    6  132 1    
    14    6  133 1    
    15    7    8 1    
    16    8    9 1    
    17    8  134 1    
    18    8  135 1    
    19    9   10 ar   
    20    9   14 ar   
    21   10   11 ar   
    22   10  136 1    
    23   11   12 ar   
    24   11  126 1    
    25   12   13 ar   
    26   12  137 1    
    27   13   14 ar   
    28   13   15 1    
    29   14  138 1    
    30   15   16 1    
    31   15  139 1    
    32   15  140 1    
    33   16   17 1    
    34   17   18 1    
    35   17  141 1    
    36   17  142 1    
    37   18   19 1    
    38   18   67 1    
    39   18  143 1    
    40   19   20 am   BACKBONE|DICT|INTERRES
    41   19  144 1    
    42   20   21 2    
    43   20   22 1    
    44   22   23 1    
    45   22   24 1    
    46   22  145 1    
    47   23  146 1    
    48   23  147 1    
    49   23  148 1    
    50   24   25 am   BACKBONE|DICT|INTERRES
    51   24  149 1    
    52   25   26 2    
    53   25   27 1    
    54   27   28 1    
    55   27   29 1    
    56   27  150 1    
    57   28  151 1    
    58   28  152 1    
    59   28  153 1    
    60   29   30 am   BACKBONE|DICT|INTERRES
    61   29  154 1    
    62   30   31 2    
    63   30   32 1    
    64   32   33 1    
    65   32   34 1    
    66   32  155 1    
    67   33  156 1    
    68   33  157 1    
    69   33  158 1    
    70   34   35 am   BACKBONE|DICT|INTERRES
    71   34  159 1    
    72   35   36 2    
    73   35   37 1    
    74   37   38 1    
    75   37   39 1    
    76   37  160 1    
    77   38  161 1    
    78   38  162 1    
    79   38  163 1    
    80   39   40 am   BACKBONE|DICT|INTERRES
    81   39  164 1    
    82   40   41 2    
    83   40   42 1    
    84   42   43 1    
    85   42   44 1    
    86   42  165 1    
    87   43  166 1    
    88   43  167 1    
    89   43  168 1    
    90   44   45 am   BACKBONE|DICT|INTERRES
    91   44  169 1    
    92   45   46 2    
    93   45   47 1    
    94   47   48 1    
    95   47   49 1    
    96   47  170 1    
    97   48  171 1    
    98   48  172 1    
    99   48  173 1    
   100   49   50 am   BACKBONE|DICT|INTERRES
   101   49  174 1    
   102   50   51 2    
   103   50   52 1    
   104   52   53 1    
   105   52   54 1    
   106   52  175 1    
   107   53  176 1    
   108   53  177 1    
   109   53  178 1    
   110   54   55 am   BACKBONE|DICT|INTERRES
   111   54  179 1    
   112   55   56 2    
   113   55   57 1    
   114   57   58 1    
   115   57   59 1    
   116   57  180 1    
   117   58  181 1    
   118   58  182 1    
   119   58  183 1    
   120   59   60 am   BACKBONE|DICT|INTERRES
   121   59  184 1    
   122   60   61 2    
   123   60   62 1    
   124   62   63 1    
   125   62   64 1    
   126   62  185 1    
   127   63  186 1    
   128   63  187 1    
   129   63  188 1    
   130   64   65 am   BACKBONE|DICT|INTERRES
   131   64  189 1    
   132   65   66 2    
   133   67   68 2    
   134   67   69 am   BACKBONE|DICT|INTERRES
   135   69   70 1    
   136   69  190 1    
   137   70   71 1    
   138   70   72 1    
   139   70  191 1    
   140   71  192 1    
   141   71  193 1    
   142   71  194 1    
   143   72   73 2    
   144   72   74 am   BACKBONE|DICT|INTERRES
   145   74   75 1    
   146   74  195 1    
   147   75   76 1    
   148   75   77 1    
   149   75  196 1    
   150   76  197 1    
   151   76  198 1    
   152   76  199 1    
   153   77   78 2    
   154   77   79 am   BACKBONE|DICT|INTERRES
   155   79   80 1    
   156   79  200 1    
   157   80   81 1    
   158   80   82 1    
   159   80  201 1    
   160   81  202 1    
   161   81  203 1    
   162   81  204 1    
   163   82   83 2    
   164   82   84 am   BACKBONE|DICT|INTERRES
   165   84   85 1    
   166   84  205 1    
   167   85   86 1    
   168   85   87 1    
   169   85  206 1    
   170   86  207 1    
   171   86  208 1    
   172   86  209 1    
   173   87   88 2    
   174   87   89 am   BACKBONE|DICT|INTERRES
   175   89   90 1    
   176   89  210 1    
   177   90   91 1    
   178   90   92 1    
   179   90  211 1    
   180   91  212 1    
   181   91  213 1    
   182   91  214 1    
   183   92   93 2    
   184   92   94 am   BACKBONE|DICT|INTERRES
   185   94   95 1    
   186   94  215 1    
   187   95   96 1    
   188   95   97 1    
   189   95  216 1    
   190   96  217 1    
   191   96  218 1    
   192   96  219 1    
   193   97   98 2    
   194   97   99 am   BACKBONE|DICT|INTERRES
   195   99  100 1    
   196   99  220 1    
   197  100  101 1    
   198  100  102 1    
   199  100  221 1    
   200  101  222 1    
   201  101  223 1    
   202  101  224 1    
   203  102  103 2    
   204  102  104 am   BACKBONE|DICT|INTERRES
   205  104  105 1    
   206  104  225 1    
   207  105  106 1    
   208  105  107 1    
   209  105  226 1    
   210  106  227 1    
   211  106  228 1    
   212  106  229 1    
   213  107  108 2    
   214  107  109 am   BACKBONE|DICT|INTERRES
   215  109  110 1    
   216  109  230 1    
   217  110  111 1    
   218  110  112 1    
   219  110  231 1    
   220  111  232 1    
   221  111  233 1    
   222  111  234 1    
   223  112  113 2    
   224  112  114 am   BACKBONE|DICT|INTERRES
   225  114  115 1    
   226  114  235 1    
   227  115  116 1    
   228  115  117 1    
   229  115  236 1    
   230  116  237 1    
   231  116  238 1    
   232  116  239 1    
   233  117  118 2    
   234  117  119 am   BACKBONE|DICT|INTERRES
   235  119  120 1    
   236  119  240 1    
   237  120  121 1    
   238  120  124 1    
   239  120  241 1    
   240  121  122 am   BACKBONE|DICT|INTERRES
   241  121  123 2    
   242  122  242 1    
   243  122  243 1    
   244  124  125 1    
   245  124  244 1    
   246  124  245 1    
   247  125  126 1    
   248  126  246 1    
   249  126  247 1    
@<TRIPOS>SUBSTRUCTURE
     1 UNK         1 GROUP             0       ****    0 ROOT    
