@<TRIPOS>MOLECULE
3R540
247   249    1
SMALL
USER_CHARGES


@<TRIPOS>ATOM
      1 CA          2.4699  -15.8575  -47.2791 C.3       0 UNK        -0.1800 
      2 C           1.8224  -14.6849  -46.5574 C.2       0 UNK         0.5000 
      3 O           2.3471  -14.2174  -45.5480 O.2       0 UNK        -0.5000 
      4 N           0.6937  -14.1929  -47.0828 N.am      1 UNK        -0.5000 
      5 CA         -0.1461  -13.1419  -46.4859 C.3       1 UNK         0.1400 
      6 C6         -1.4702  -12.9368  -47.2637 C.3       23 UNK        -0.0398 
      7 S7         -2.3855  -14.4965  -47.5166 S.3       23 UNK        -0.2404 
      8 C8         -2.2340  -14.7060  -49.3180 C.3       23 UNK        -0.0205 
      9 C9         -2.5251  -16.1405  -49.7252 C.ar      23 UNK        -0.0193 
     10 C10        -3.8446  -16.5818  -49.8595 C.ar      23 UNK        -0.1150 
     11 C11        -4.1138  -17.9042  -50.2219 C.ar      23 UNK        -0.0193 
     12 C12        -3.0535  -18.7860  -50.4448 C.ar      23 UNK        -0.1150 
     13 C13        -1.7289  -18.3603  -50.3132 C.ar      23 UNK        -0.0193 
     14 C14        -1.4727  -17.0294  -49.9644 C.ar      23 UNK        -0.1150 
     15 C15        -0.5977  -19.3523  -50.5695 C.3       23 UNK        -0.0205 
     16 S16         0.8161  -19.2147  -49.4262 S.3       23 UNK        -0.2404 
     17 C17         0.0272  -19.4563  -47.8007 C.3       23 UNK        -0.0398 
     18 CA          0.0008  -20.9402  -47.3433 C.3       11 UNK         0.1400 
     19 N           0.3711  -21.0850  -45.9319 N.am      11 UNK        -0.5000 
     20 C           0.5753  -22.2471  -45.2968 C.2       10 UNK         0.5000 
     21 O           0.5233  -23.3447  -45.8504 O.2       10 UNK        -0.5000 
     22 CA          0.8256  -22.1740  -43.7774 C.3       10 UNK         0.1400 
     23 CB          2.3029  -21.8857  -43.4726 C.3       10 UNK        -0.1800 
     24 N          -0.0220  -21.1782  -43.1171 N.am      10 UNK        -0.5000 
     25 C          -1.3582  -21.2629  -43.0417 C.2       9 UNK         0.5000 
     26 O          -2.0022  -22.2244  -43.4580 O.2       9 UNK        -0.5000 
     27 CA         -2.1093  -20.0532  -42.4576 C.3       9 UNK         0.1400 
     28 CB         -2.1147  -20.0961  -40.9226 C.3       9 UNK        -0.1800 
     29 N          -1.5664  -18.7746  -42.9154 N.am      9 UNK        -0.5000 
     30 C          -1.5453  -18.3662  -44.1928 C.2       8 UNK         0.5000 
     31 O          -2.0145  -19.0136  -45.1281 O.2       8 UNK        -0.5000 
     32 CA         -0.8321  -17.0313  -44.4736 C.3       8 UNK         0.1400 
     33 CB         -1.7342  -15.8578  -44.0599 C.3       8 UNK        -0.1800 
     34 N           0.4593  -16.9367  -43.7859 N.am      8 UNK        -0.5000 
     35 C           1.4847  -17.7856  -43.9555 C.2       7 UNK         0.5000 
     36 O           1.4785  -18.7054  -44.7700 O.2       7 UNK        -0.5000 
     37 CA          2.6915  -17.6360  -43.0136 C.3       7 UNK         0.1400 
     38 CB          3.6780  -16.5714  -43.5110 C.3       7 UNK        -0.1800 
     39 N           2.2754  -17.3288  -41.6477 N.am      7 UNK        -0.5000 
     40 C           1.6563  -18.1979  -40.8369 C.2       6 UNK         0.5000 
     41 O           1.4309  -19.3708  -41.1360 O.2       6 UNK        -0.5000 
     42 CA          1.1691  -17.6436  -39.4854 C.3       6 UNK         0.1400 
     43 CB          2.3021  -17.6685  -38.4488 C.3       6 UNK        -0.1800 
     44 N           0.6488  -16.2794  -39.6036 N.am      6 UNK        -0.5000 
     45 C          -0.4731  -15.9554  -40.2629 C.2       5 UNK         0.5000 
     46 O          -1.2211  -16.7864  -40.7761 O.2       5 UNK        -0.5000 
     47 CA         -0.7825  -14.4525  -40.4156 C.3       5 UNK         0.1400 
     48 CB         -1.6145  -13.9493  -39.2270 C.3       5 UNK        -0.1800 
     49 N           0.4270  -13.6329  -40.5461 N.am      5 UNK        -0.5000 
     50 C           1.2700  -13.6927  -41.5852 C.2       4 UNK         0.5000 
     51 O           1.0863  -14.4096  -42.5695 O.2       4 UNK        -0.5000 
     52 CA          2.5677  -12.8861  -41.4574 C.3       4 UNK         0.1400 
     53 CB          3.5314  -13.6121  -40.4931 C.3       4 UNK        -0.1800 
     54 N           3.1951  -12.7219  -42.7693 N.am      4 UNK        -0.5000 
     55 C           4.2269  -11.9047  -43.0199 C.2       3 UNK         0.5000 
     56 O           4.7093  -11.1377  -42.1851 O.2       3 UNK        -0.5000 
     57 CA          4.8272  -11.9416  -44.4328 C.3       3 UNK         0.1400 
     58 CB          5.5199  -13.2854  -44.7152 C.3       3 UNK        -0.1800 
     59 N           3.8145  -11.6788  -45.4515 N.am      3 UNK        -0.5000 
     60 C           3.5051  -10.4554  -45.9062 C.2       2 UNK         0.5000 
     61 O           4.0322   -9.4224  -45.4906 O.2       2 UNK        -0.5000 
     62 CA          2.4552  -10.3512  -47.0312 C.3       2 UNK         0.1400 
     63 CB          3.1447  -10.1380  -48.3881 C.3       2 UNK        -0.1800 
     64 N           1.5915  -11.5263  -47.1257 N.am      2 UNK        -0.5000 
     65 C           0.5775  -11.7926  -46.2926 C.2       1 UNK         0.5000 
     66 O           0.2166  -11.0331  -45.3927 O.2       1 UNK        -0.5000 
     67 C          -1.3621  -21.5993  -47.6514 C.2       11 UNK         0.5000 
     68 O          -1.4877  -22.2925  -48.6596 O.2       11 UNK        -0.5000 
     69 N          -2.3408  -21.3962  -46.7581 N.am      12 UNK        -0.5000 
     70 CA         -3.6780  -21.9856  -46.8319 C.3       12 UNK         0.1400 
     71 CB         -4.6130  -21.2273  -45.8785 C.3       12 UNK        -0.1800 
     72 C          -3.7002  -23.4976  -46.5263 C.2       12 UNK         0.5000 
     73 O          -4.5592  -24.2074  -47.0509 O.2       12 UNK        -0.5000 
     74 N          -2.7729  -23.9735  -45.6839 N.am      13 UNK        -0.5000 
     75 CA         -2.5844  -25.3960  -45.3891 C.3       13 UNK         0.1400 
     76 CB         -1.7353  -25.5498  -44.1181 C.3       13 UNK        -0.1800 
     77 C          -1.9490  -26.1595  -46.5675 C.2       13 UNK         0.5000 
     78 O          -2.2562  -27.3357  -46.7685 O.2       13 UNK        -0.5000 
     79 N          -1.0826  -25.4755  -47.3245 N.am      14 UNK        -0.5000 
     80 CA         -0.4786  -25.9530  -48.5655 C.3       14 UNK         0.1400 
     81 CB          0.7749  -25.1051  -48.8474 C.3       14 UNK        -0.1800 
     82 C          -1.4642  -25.8983  -49.7527 C.2       14 UNK         0.5000 
     83 O          -2.5737  -25.3747  -49.6339 O.2       14 UNK        -0.5000 
     84 N          -1.0219  -26.4228  -50.9037 N.am      15 UNK        -0.5000 
     85 CA         -1.7629  -26.4038  -52.1709 C.3       15 UNK         0.1400 
     86 CB         -1.1325  -27.4310  -53.1248 C.3       15 UNK        -0.1800 
     87 C          -1.8179  -25.0139  -52.8419 C.2       15 UNK         0.5000 
     88 O          -2.5662  -24.8388  -53.8056 O.2       15 UNK        -0.5000 
     89 N          -1.0000  -24.0655  -52.3552 N.am      16 UNK        -0.5000 
     90 CA         -0.9021  -22.6606  -52.7774 C.3       16 UNK         0.1400 
     91 CB         -2.2327  -21.9313  -52.4930 C.3       16 UNK        -0.1800 
     92 C          -0.4558  -22.4700  -54.2434 C.2       16 UNK         0.5000 
     93 O          -0.6800  -21.4023  -54.8117 O.2       16 UNK        -0.5000 
     94 N           0.1114  -23.5226  -54.8551 N.am      17 UNK        -0.5000 
     95 CA          0.4017  -23.6566  -56.2904 C.3       17 UNK         0.1400 
     96 CB          1.5623  -22.7255  -56.6987 C.3       17 UNK        -0.1800 
     97 C          -0.8527  -23.4740  -57.1800 C.2       17 UNK         0.5000 
     98 O          -0.7352  -23.0419  -58.3274 O.2       17 UNK        -0.5000 
     99 N          -2.0321  -23.7780  -56.6123 N.am      18 UNK        -0.5000 
    100 CA        -3.3790  -23.5663  -57.1507 C.3       18 UNK         0.1400 
    101 CB        -3.6023  -24.3914  -58.4350 C.3       18 UNK        -0.1800 
    102 C         -3.7791  -22.0821  -57.3248 C.2       18 UNK         0.5000 
    103 O         -4.8155  -21.8126  -57.9347 O.2       18 UNK        -0.5000 
    104 N         -2.9961  -21.1401  -56.7761 N.am      19 UNK        -0.5000 
    105 CA        -3.3235  -19.7161  -56.7449 C.3       19 UNK         0.1400 
    106 CB        -2.0377  -18.8890  -56.5868 C.3       19 UNK        -0.1800 
    107 C         -4.3019  -19.4660  -55.5884 C.2       19 UNK         0.5000 
    108 O         -3.9281  -19.6470  -54.4281 O.2       19 UNK        -0.5000 
    109 N         -5.5556  -19.1359  -55.9263 N.am      20 UNK        -0.5000 
    110 CA        -6.7277  -18.9663  -55.0518 C.3       20 UNK         0.1400 
    111 CB        -6.5179  -17.8318  -54.0300 C.3       20 UNK        -0.1800 
    112 C         -7.2152  -20.2654  -54.3714 C.2       20 UNK         0.5000 
    113 O         -8.4256  -20.4759  -54.2897 O.2       20 UNK        -0.5000 
    114 N         -6.2769  -21.1189  -53.9361 N.am      21 UNK        -0.5000 
    115 CA        -6.4628  -22.4659  -53.3867 C.3       21 UNK         0.1400 
    116 CB        -6.9672  -23.4268  -54.4833 C.3       21 UNK        -0.1800 
    117 C         -7.3301  -22.4903  -52.1105 C.2       21 UNK         0.5000 
    118 O         -8.1783  -23.3696  -51.9493 O.2       21 UNK        -0.5000 
    119 N         -7.0939  -21.5160  -51.2228 N.am      22 UNK        -0.5000 
    120 CA        -7.7751  -21.3753  -49.9243 C.3       22 UNK         0.1400 
    121 C         -7.3301  -22.3955  -48.8320 C.2       22 UNK         0.5000 
    122 N         -6.2960  -23.1946  -49.0605 N.am      22 UNK        -0.7600 
    123 O         -7.9315  -22.4560  -47.7631 O.2       22 UNK        -0.5000 
    124 C124       -7.7249  -19.9096  -49.4143 C.3       23 UNK        -0.0398 
    125 S125       -6.0612  -19.3389  -48.9130 S.3       23 UNK        -0.2404 
    126 C126       -5.5452  -18.3896  -50.3721 C.3       23 UNK        -0.0205 
    127 H127        3.5030  -15.6185  -47.5307 H         1 UNK         0.0600 
    128 H128        2.4695  -16.7389  -46.6390 H         1 UNK         0.0600 
    129 H129        1.9430  -16.1090  -48.1999 H         1 UNK         0.0600 
    130 H130        0.3109  -14.6255  -47.9100 H         1 UNK         0.3000 
    131 H131       -0.3988  -13.4816  -45.4829 H         1 UNK         0.0600 
    132 H132       -2.1254  -12.2565  -46.7165 H         1 UNK         0.0800 
    133 H133       -1.2823  -12.4611  -48.2280 H         1 UNK         0.0800 
    134 H134       -1.2318  -14.4244  -49.6442 H         1 UNK         0.0800 
    135 H135       -2.9241  -14.0270  -49.8210 H         1 UNK         0.0800 
    136 H136       -4.6599  -15.8969  -49.6733 H         1 UNK         0.1150 
    137 H137       -3.2668  -19.8099  -50.7157 H         1 UNK         0.1150 
    138 H138       -0.4523  -16.6874  -49.8674 H         1 UNK         0.1150 
    139 H139       -0.9720  -20.3734  -50.5066 H         1 UNK         0.0800 
    140 H140       -0.2400  -19.2157  -51.5907 H         1 UNK         0.0800 
    141 H141       -0.9615  -18.9945  -47.7751 H         1 UNK         0.0800 
    142 H142        0.6233  -18.8582  -47.1144 H         1 UNK         0.0800 
    143 H143        0.7568  -21.4942  -47.9041 H         1 UNK         0.0600 
    144 H144        0.4987  -20.2235  -45.4082 H         1 UNK         0.3000 
    145 H145        0.5811  -23.1504  -43.3544 H         1 UNK         0.0600 
    146 H146        2.4889  -21.8748  -42.3984 H         1 UNK         0.0600 
    147 H147        2.9457  -22.6520  -43.9073 H         1 UNK         0.0600 
    148 H148        2.6213  -20.9251  -43.8761 H         1 UNK         0.0600 
    149 H149        0.4426  -20.3742  -42.7101 H         1 UNK         0.3000 
    150 H150       -3.1444  -20.1115  -42.8003 H         1 UNK         0.0600 
    151 H151       -2.5485  -21.0289  -40.5603 H         1 UNK         0.0600 
    152 H152       -2.7058  -19.2793  -40.5079 H         1 UNK         0.0600 
    153 H153       -1.1080  -20.0212  -40.5119 H         1 UNK         0.0600 
    154 H154       -1.2068  -18.1501  -42.1997 H         1 UNK         0.3000 
    155 H155       -0.6388  -16.9583  -45.5460 H         1 UNK         0.0600 
    156 H156       -2.1484  -15.9891  -43.0613 H         1 UNK         0.0600 
    157 H157       -2.5774  -15.7618  -44.7441 H         1 UNK         0.0600 
    158 H158       -1.1956  -14.9139  -44.0623 H         1 UNK         0.0600 
    159 H159        0.5844  -16.1484  -43.1572 H         1 UNK         0.3000 
    160 H160        3.2175  -18.5930  -43.0012 H         1 UNK         0.0600 
    161 H161        4.5821  -16.5567  -42.9025 H         1 UNK         0.0600 
    162 H162        3.2426  -15.5748  -43.4814 H         1 UNK         0.0600 
    163 H163        3.9809  -16.7669  -44.5403 H         1 UNK         0.0600 
    164 H164        2.3804  -16.3732  -41.3450 H         1 UNK         0.3000 
    165 H165        0.3635  -18.2895  -39.1293 H         1 UNK         0.0600 
    166 H166        1.9481  -17.3429  -37.4705 H         1 UNK         0.0600 
    167 H167        2.6993  -18.6775  -38.3302 H         1 UNK         0.0600 
    168 H168        3.1307  -17.0212  -38.7390 H         1 UNK         0.0600 
    169 H169        1.1997  -15.5407  -39.1931 H         1 UNK         0.3000 
    170 H170       -1.3753  -14.3269  -41.3238 H         1 UNK         0.0600 
    171 H171       -2.5323  -14.5293  -39.1205 H         1 UNK         0.0600 
    172 H172       -1.0658  -14.0274  -38.2876 H         1 UNK         0.0600 
    173 H173       -1.9043  -12.9071  -39.3618 H         1 UNK         0.0600 
    174 H174        0.6434  -13.0231  -39.7705 H         1 UNK         0.3000 
    175 H175        2.3183  -11.9003  -41.0596 H         1 UNK         0.0600 
    176 H176        3.8470  -14.5763  -40.8933 H         1 UNK         0.0600 
    177 H177        4.4289  -13.0245  -40.3020 H         1 UNK         0.0600 
    178 H178        3.0659  -13.7941  -39.5239 H         1 UNK         0.0600 
    179 H179        2.8057  -13.2997  -43.5091 H         1 UNK         0.3000 
    180 H180        5.5992  -11.1704  -44.4835 H         1 UNK         0.0600 
    181 H181        4.8207  -14.1201  -44.7039 H         1 UNK         0.0600 
    182 H182        6.2864  -13.4925  -43.9675 H         1 UNK         0.0600 
    183 H183        6.0097  -13.2765  -45.6889 H         1 UNK         0.0600 
    184 H184        3.2843  -12.4816  -45.7736 H         1 UNK         0.3000 
    185 H185        1.8357   -9.4759  -46.8239 H         1 UNK         0.0600 
    186 H186        3.7763   -9.2487  -48.3705 H         1 UNK         0.0600 
    187 H187        3.7779  -10.9849  -48.6554 H         1 UNK         0.0600 
    188 H188        2.4137   -9.9993  -49.1849 H         1 UNK         0.0600 
    189 H189        1.8254  -12.2097  -47.8310 H         1 UNK         0.3000 
    190 H190       -2.1688  -20.7539  -45.9896 H         1 UNK         0.3000 
    191 H191       -4.0485  -21.8471  -47.8497 H         1 UNK         0.0600 
    192 H192       -4.2961  -21.3269  -44.8400 H         1 UNK         0.0600 
    193 H193       -5.6333  -21.6059  -45.9519 H         1 UNK         0.0600 
    194 H194       -4.6430  -20.1644  -46.1196 H         1 UNK         0.0600 
    195 H195       -2.1636  -23.3190  -45.2066 H         1 UNK         0.3000 
    196 H196       -3.5634  -25.8390  -45.1950 H         1 UNK         0.0600 
    197 H197       -1.6165  -26.6014  -43.8543 H         1 UNK         0.0600 
    198 H198       -2.2028  -25.0520  -43.2684 H         1 UNK         0.0600 
    199 H199       -0.7378  -25.1297  -44.2455 H         1 UNK         0.0600 
    200 H200       -0.8807  -24.5168  -47.0688 H         1 UNK         0.3000 
    201 H201       -0.1729  -26.9919  -48.4268 H         1 UNK         0.0600 
    202 H202        1.3223  -25.4741  -49.7151 H         1 UNK         0.0600 
    203 H203        1.4630  -25.1295  -48.0019 H         1 UNK         0.0600 
    204 H204        0.5216  -24.0616  -49.0365 H         1 UNK         0.0600 
    205 H205       -0.1057  -26.8475  -50.9286 H         1 UNK         0.3000 
    206 H206       -2.7932  -26.7078  -51.9741 H         1 UNK         0.0600 
    207 H207       -1.1528  -28.4326  -52.6949 H         1 UNK         0.0600 
    208 H208       -1.6766  -27.4755  -54.0694 H         1 UNK         0.0600 
    209 H209       -0.0952  -27.1846  -53.3550 H         1 UNK         0.0600 
    210 H210       -0.4160  -24.3230  -51.5733 H         1 UNK         0.3000 
    211 H211       -0.1288  -22.2040  -52.1583 H         1 UNK         0.0600 
    212 H212       -3.0333  -22.2784  -53.1462 H         1 UNK         0.0600 
    213 H213       -2.1345  -20.8577  -52.6557 H         1 UNK         0.0600 
    214 H214       -2.5525  -22.0798  -51.4614 H         1 UNK         0.0600 
    215 H215        0.2520  -24.3556  -54.3019 H         1 UNK         0.3000 
    216 H216        0.7325  -24.6849  -56.4424 H         1 UNK         0.0600 
    217 H217        1.2775  -21.6744  -56.6436 H         1 UNK         0.0600 
    218 H218        1.8819  -22.9237  -57.7224 H         1 UNK         0.0600 
    219 H219        2.4301  -22.8721  -56.0557 H         1 UNK         0.0600 
    220 H220       -2.0177  -24.1234  -55.6574 H         1 UNK         0.3000 
    221 H221       -4.0551  -23.9622  -56.3917 H         1 UNK         0.0600 
    222 H222       -3.0227  -24.0045  -59.2733 H         1 UNK         0.0600 
    223 H223       -3.3252  -25.4351  -58.2869 H         1 UNK         0.0600 
    224 H224       -4.6515  -24.3760  -58.7322 H         1 UNK         0.0600 
    225 H225       -2.1845  -21.4177  -56.2344 H         1 UNK         0.3000 
    226 H226       -3.7896  -19.4299  -57.6902 H         1 UNK         0.0600 
    227 H227       -1.3213  -19.1179  -57.3758 H         1 UNK         0.0600 
    228 H228       -2.2560  -17.8220  -56.6419 H         1 UNK         0.0600 
    229 H229       -1.5496  -19.0706  -55.6290 H         1 UNK         0.0600 
    230 H230       -5.7637  -19.0769  -56.9138 H         1 UNK         0.3000 
    231 H231       -7.5375  -18.6531  -55.7128 H         1 UNK         0.0600 
    232 H232       -6.3417  -16.8814  -54.5336 H         1 UNK         0.0600 
    233 H233       -5.6695  -18.0185  -53.3734 H         1 UNK         0.0600 
    234 H234       -7.3983  -17.7059  -53.3985 H         1 UNK         0.0600 
    235 H235       -5.3143  -20.8000  -54.0216 H         1 UNK         0.3000 
    236 H236       -5.4730  -22.8105  -53.0845 H         1 UNK         0.0600 
    237 H237       -6.9763  -24.4574  -54.1268 H         1 UNK         0.0600 
    238 H238       -7.9806  -23.1806  -54.8018 H         1 UNK         0.0600 
    239 H239       -6.3236  -23.3941  -55.3623 H         1 UNK         0.0600 
    240 H240       -6.3739  -20.8404  -51.4250 H         1 UNK         0.3000 
    241 H241       -8.8289  -21.5986  -50.1017 H         1 UNK         0.0600 
    242 H242       -5.8027  -23.1536  -49.9354 H         1 UNK         0.3800 
    243 H243       -5.9480  -23.7977  -48.3216 H         1 UNK         0.3800 
    244 H244       -8.3855  -19.7968  -48.5530 H         1 UNK         0.0800 
    245 H245       -8.1272  -19.2380  -50.1739 H         1 UNK         0.0800 
    246 H246       -6.2239  -17.5483  -50.5216 H         1 UNK         0.0800 
    247 H247       -5.6214  -19.0163  -51.2602 H         1 UNK         0.0800 
@<TRIPOS>BOND
     1    1    2 1    
     2    1  127 1    
     3    1  128 1    
     4    1  129 1    
     5    2    3 2    
     6    2    4 am   BACKBONE|DICT|INTERRES
     7    4    5 1    
     8    4  130 1    
     9    5    6 1    
    10    5   65 1    
    11    5  131 1    
    12    6    7 1    
    13    6  132 1    
    14    6  133 1    
    15    7    8 1    
    16    8    9 1    
    17    8  134 1    
    18    8  135 1    
    19    9   10 ar   
    20    9   14 ar   
    21   10   11 ar   
    22   10  136 1    
    23   11   12 ar   
    24   11  126 1    
    25   12   13 ar   
    26   12  137 1    
    27   13   14 ar   
    28   13   15 1    
    29   14  138 1    
    30   15   16 1    
    31   15  139 1    
    32   15  140 1    
    33   16   17 1    
    34   17   18 1    
    35   17  141 1    
    36   17  142 1    
    37   18   19 1    
    38   18   67 1    
    39   18  143 1    
    40   19   20 am   BACKBONE|DICT|INTERRES
    41   19  144 1    
    42   20   21 2    
    43   20   22 1    
    44   22   23 1    
    45   22   24 1    
    46   22  145 1    
    47   23  146 1    
    48   23  147 1    
    49   23  148 1    
    50   24   25 am   BACKBONE|DICT|INTERRES
    51   24  149 1    
    52   25   26 2    
    53   25   27 1    
    54   27   28 1    
    55   27   29 1    
    56   27  150 1    
    57   28  151 1    
    58   28  152 1    
    59   28  153 1    
    60   29   30 am   BACKBONE|DICT|INTERRES
    61   29  154 1    
    62   30   31 2    
    63   30   32 1    
    64   32   33 1    
    65   32   34 1    
    66   32  155 1    
    67   33  156 1    
    68   33  157 1    
    69   33  158 1    
    70   34   35 am   BACKBONE|DICT|INTERRES
    71   34  159 1    
    72   35   36 2    
    73   35   37 1    
    74   37   38 1    
    75   37   39 1    
    76   37  160 1    
    77   38  161 1    
    78   38  162 1    
    79   38  163 1    
    80   39   40 am   BACKBONE|DICT|INTERRES
    81   39  164 1    
    82   40   41 2    
    83   40   42 1    
    84   42   43 1    
    85   42   44 1    
    86   42  165 1    
    87   43  166 1    
    88   43  167 1    
    89   43  168 1    
    90   44   45 am   BACKBONE|DICT|INTERRES
    91   44  169 1    
    92   45   46 2    
    93   45   47 1    
    94   47   48 1    
    95   47   49 1    
    96   47  170 1    
    97   48  171 1    
    98   48  172 1    
    99   48  173 1    
   100   49   50 am   BACKBONE|DICT|INTERRES
   101   49  174 1    
   102   50   51 2    
   103   50   52 1    
   104   52   53 1    
   105   52   54 1    
   106   52  175 1    
   107   53  176 1    
   108   53  177 1    
   109   53  178 1    
   110   54   55 am   BACKBONE|DICT|INTERRES
   111   54  179 1    
   112   55   56 2    
   113   55   57 1    
   114   57   58 1    
   115   57   59 1    
   116   57  180 1    
   117   58  181 1    
   118   58  182 1    
   119   58  183 1    
   120   59   60 am   BACKBONE|DICT|INTERRES
   121   59  184 1    
   122   60   61 2    
   123   60   62 1    
   124   62   63 1    
   125   62   64 1    
   126   62  185 1    
   127   63  186 1    
   128   63  187 1    
   129   63  188 1    
   130   64   65 am   BACKBONE|DICT|INTERRES
   131   64  189 1    
   132   65   66 2    
   133   67   68 2    
   134   67   69 am   BACKBONE|DICT|INTERRES
   135   69   70 1    
   136   69  190 1    
   137   70   71 1    
   138   70   72 1    
   139   70  191 1    
   140   71  192 1    
   141   71  193 1    
   142   71  194 1    
   143   72   73 2    
   144   72   74 am   BACKBONE|DICT|INTERRES
   145   74   75 1    
   146   74  195 1    
   147   75   76 1    
   148   75   77 1    
   149   75  196 1    
   150   76  197 1    
   151   76  198 1    
   152   76  199 1    
   153   77   78 2    
   154   77   79 am   BACKBONE|DICT|INTERRES
   155   79   80 1    
   156   79  200 1    
   157   80   81 1    
   158   80   82 1    
   159   80  201 1    
   160   81  202 1    
   161   81  203 1    
   162   81  204 1    
   163   82   83 2    
   164   82   84 am   BACKBONE|DICT|INTERRES
   165   84   85 1    
   166   84  205 1    
   167   85   86 1    
   168   85   87 1    
   169   85  206 1    
   170   86  207 1    
   171   86  208 1    
   172   86  209 1    
   173   87   88 2    
   174   87   89 am   BACKBONE|DICT|INTERRES
   175   89   90 1    
   176   89  210 1    
   177   90   91 1    
   178   90   92 1    
   179   90  211 1    
   180   91  212 1    
   181   91  213 1    
   182   91  214 1    
   183   92   93 2    
   184   92   94 am   BACKBONE|DICT|INTERRES
   185   94   95 1    
   186   94  215 1    
   187   95   96 1    
   188   95   97 1    
   189   95  216 1    
   190   96  217 1    
   191   96  218 1    
   192   96  219 1    
   193   97   98 2    
   194   97   99 am   BACKBONE|DICT|INTERRES
   195   99  100 1    
   196   99  220 1    
   197  100  101 1    
   198  100  102 1    
   199  100  221 1    
   200  101  222 1    
   201  101  223 1    
   202  101  224 1    
   203  102  103 2    
   204  102  104 am   BACKBONE|DICT|INTERRES
   205  104  105 1    
   206  104  225 1    
   207  105  106 1    
   208  105  107 1    
   209  105  226 1    
   210  106  227 1    
   211  106  228 1    
   212  106  229 1    
   213  107  108 2    
   214  107  109 am   BACKBONE|DICT|INTERRES
   215  109  110 1    
   216  109  230 1    
   217  110  111 1    
   218  110  112 1    
   219  110  231 1    
   220  111  232 1    
   221  111  233 1    
   222  111  234 1    
   223  112  113 2    
   224  112  114 am   BACKBONE|DICT|INTERRES
   225  114  115 1    
   226  114  235 1    
   227  115  116 1    
   228  115  117 1    
   229  115  236 1    
   230  116  237 1    
   231  116  238 1    
   232  116  239 1    
   233  117  118 2    
   234  117  119 am   BACKBONE|DICT|INTERRES
   235  119  120 1    
   236  119  240 1    
   237  120  121 1    
   238  120  124 1    
   239  120  241 1    
   240  121  122 am   BACKBONE|DICT|INTERRES
   241  121  123 2    
   242  122  242 1    
   243  122  243 1    
   244  124  125 1    
   245  124  244 1    
   246  124  245 1    
   247  125  126 1    
   248  126  246 1    
   249  126  247 1    
@<TRIPOS>SUBSTRUCTURE
     1 UNK         1 GROUP             0       ****    0 ROOT    
