@<TRIPOS>MOLECULE
3R540
247   249    1
SMALL
USER_CHARGES


@<TRIPOS>ATOM
      1 CA         -1.3957  -12.8951  -47.8633 C.3       0 UNK        -0.1800 
      2 C          -0.5593  -12.0378  -48.8000 C.2       0 UNK         0.5000 
      3 O          -0.5163  -10.8175  -48.6393 O.2       0 UNK        -0.5000 
      4 N           0.1286  -12.6666  -49.7610 N.am      1 UNK        -0.5000 
      5 CA          1.0245  -12.0262  -50.7340 C.3       1 UNK         0.1400 
      6 C6          1.2189  -12.8981  -52.0004 C.3       23 UNK        -0.0398 
      7 S7         -0.3386  -13.1439  -52.9184 S.3       23 UNK        -0.2404 
      8 C8         -0.5184  -14.9553  -52.8900 C.3       23 UNK        -0.0205 
      9 C9         -0.8844  -15.4847  -51.5107 C.ar      23 UNK        -0.0193 
     10 C10        -2.1646  -15.2622  -50.9966 C.ar      23 UNK        -0.1150 
     11 C11        -2.5358  -15.7713  -49.7448 C.ar      23 UNK        -0.0193 
     12 C12        -1.5946  -16.4944  -49.0068 C.ar      23 UNK        -0.1150 
     13 C13        -0.3120  -16.7326  -49.5099 C.ar      23 UNK        -0.0193 
     14 C14         0.0388  -16.2208  -50.7624 C.ar      23 UNK        -0.1150 
     15 C15         0.6924  -17.5428  -48.7014 C.3       23 UNK        -0.0205 
     16 S16         0.5775  -19.3277  -49.0531 S.3       23 UNK        -0.2404 
     17 C17        -1.0662  -19.7363  -48.3766 C.3       23 UNK        -0.0398 
     18 CA         -1.1689  -21.2001  -47.8874 C.3       11 UNK         0.1400 
     19 N          -0.4214  -21.4528  -46.6550 N.am      11 UNK        -0.5000 
     20 C          -0.2312  -22.6709  -46.1303 C.2       10 UNK         0.5000 
     21 O          -0.5623  -23.7127  -46.6938 O.2       10 UNK        -0.5000 
     22 CA          0.3715  -22.7425  -44.7159 C.3       10 UNK         0.1400 
     23 CB          1.9041  -22.6680  -44.7650 C.3       10 UNK        -0.1800 
     24 N          -0.1581  -21.7093  -43.8225 N.am      10 UNK        -0.5000 
     25 C          -1.4470  -21.6092  -43.4632 C.2       9 UNK         0.5000 
     26 O          -2.3157  -22.4091  -43.8126 O.2       9 UNK        -0.5000 
     27 CA         -1.8429  -20.3933  -42.6046 C.3       9 UNK         0.1400 
     28 CB         -1.4981  -20.6301  -41.1270 C.3       9 UNK        -0.1800 
     29 N          -1.2251  -19.1485  -43.0646 N.am      9 UNK        -0.5000 
     30 C          -1.4642  -18.5792  -44.2554 C.2       8 UNK         0.5000 
     31 O          -2.2731  -19.0136  -45.0736 O.2       8 UNK        -0.5000 
     32 CA         -0.6078  -17.3579  -44.6293 C.3       8 UNK         0.1400 
     33 CB         -1.1297  -16.0807  -43.9562 C.3       8 UNK        -0.1800 
     34 N           0.8026  -17.5505  -44.2996 N.am      8 UNK        -0.5000 
     35 C           1.5864  -18.5121  -44.8048 C.2       7 UNK         0.5000 
     36 O           1.2172  -19.3106  -45.6629 O.2       7 UNK        -0.5000 
     37 CA          2.9982  -18.6393  -44.2091 C.3       7 UNK         0.1400 
     38 CB          3.9702  -17.6396  -44.8525 C.3       7 UNK        -0.1800 
     39 N           2.9952  -18.4627  -42.7568 N.am      7 UNK        -0.5000 
     40 C           2.4823  -19.3471  -41.8905 C.2       6 UNK         0.5000 
     41 O           1.9847  -20.4212  -42.2267 O.2       6 UNK        -0.5000 
     42 CA          2.5017  -18.9500  -40.4028 C.3       6 UNK         0.1400 
     43 CB          3.8662  -19.2707  -39.7748 C.3       6 UNK        -0.1800 
     44 N           2.1910  -17.5350  -40.1920 N.am      6 UNK        -0.5000 
     45 C           0.9859  -16.9884  -40.4055 C.2       5 UNK         0.5000 
     46 O           0.0025  -17.6277  -40.7799 O.2       5 UNK        -0.5000 
     47 CA          0.8771  -15.4607  -40.2199 C.3       5 UNK         0.1400 
     48 CB          0.6511  -15.1112  -38.7414 C.3       5 UNK        -0.1800 
     49 N           2.0322  -14.7081  -40.7286 N.am      5 UNK        -0.5000 
     50 C           2.4775  -14.7679  -41.9904 C.2       4 UNK         0.5000 
     51 O           1.9975  -15.5232  -42.8368 O.2       4 UNK        -0.5000 
     52 CA          3.6810  -13.8803  -42.3633 C.3       4 UNK         0.1400 
     53 CB          4.9746  -14.4533  -41.7626 C.3       4 UNK        -0.1800 
     54 N           3.8330  -13.8171  -43.8183 N.am      4 UNK        -0.5000 
     55 C           3.0298  -13.1241  -44.6338 C.2       3 UNK         0.5000 
     56 O           2.2219  -12.2742  -44.2496 O.2       3 UNK        -0.5000 
     57 CA          3.0989  -13.5014  -46.1232 C.3       3 UNK         0.1400 
     58 CB          2.0120  -14.5362  -46.4657 C.3       3 UNK        -0.1800 
     59 N           2.9068  -12.3397  -46.9812 N.am      3 UNK        -0.5000 
     60 C           3.8254  -11.4022  -47.2439 C.2       2 UNK         0.5000 
     61 O           4.9603  -11.4076  -46.7636 O.2       2 UNK        -0.5000 
     62 CA          3.3935  -10.2816  -48.2183 C.3       2 UNK         0.1400 
     63 CB          4.5785   -9.6662  -48.9917 C.3       2 UNK        -0.1800 
     64 N           2.3222  -10.7023  -49.1336 N.am      2 UNK        -0.5000 
     65 C           2.3702  -11.6678  -50.0647 C.2       1 UNK         0.5000 
     66 O           3.3907  -12.2962  -50.3509 O.2       1 UNK        -0.5000 
     67 C          -2.6441  -21.6244  -47.7330 C.2       11 UNK         0.5000 
     68 O          -3.1180  -22.4520  -48.5092 O.2       11 UNK        -0.5000 
     69 N          -3.3329  -21.0648  -46.7279 N.am      12 UNK        -0.5000 
     70 CA         -4.7676  -21.2364  -46.4858 C.3       12 UNK         0.1400 
     71 CB         -5.1937  -20.3543  -45.3031 C.3       12 UNK        -0.1800 
     72 C          -5.2254  -22.6885  -46.2599 C.2       12 UNK         0.5000 
     73 O          -6.3497  -23.0198  -46.6373 O.2       12 UNK        -0.5000 
     74 N          -4.3665  -23.5147  -45.6524 N.am      13 UNK        -0.5000 
     75 CA         -4.6294  -24.9223  -45.3771 C.3       13 UNK         0.1400 
     76 CB         -4.3888  -25.1987  -43.8805 C.3       13 UNK        -0.1800 
     77 C          -3.7770  -25.8196  -46.2892 C.2       13 UNK         0.5000 
     78 O          -4.2907  -26.3336  -47.2856 O.2       13 UNK        -0.5000 
     79 N          -2.5095  -26.0222  -45.9010 N.am      14 UNK        -0.5000 
     80 CA         -1.6020  -27.0555  -46.4078 C.3       14 UNK         0.1400 
     81 CB         -0.2781  -27.0008  -45.6290 C.3       14 UNK        -0.1800 
     82 C          -1.3450  -27.0357  -47.9248 C.2       14 UNK         0.5000 
     83 O          -1.2504  -28.1071  -48.5262 O.2       14 UNK        -0.5000 
     84 N          -1.2733  -25.8446  -48.5330 N.am      15 UNK        -0.5000 
     85 CA         -1.0940  -25.6459  -49.9760 C.3       15 UNK         0.1400 
     86 CB         -0.5026  -24.2498  -50.2310 C.3       15 UNK        -0.1800 
     87 C          -2.3958  -25.8861  -50.7739 C.2       15 UNK         0.5000 
     88 O          -2.8037  -25.0328  -51.5635 O.2       15 UNK        -0.5000 
     89 N          -3.0293  -27.0442  -50.5388 N.am      16 UNK        -0.5000 
     90 CA         -4.2503  -27.5543  -51.1703 C.3       16 UNK         0.1400 
     91 CB         -3.9300  -28.0710  -52.5872 C.3       16 UNK        -0.1800 
     92 C          -5.4248  -26.5529  -51.1382 C.2       16 UNK         0.5000 
     93 O          -6.1136  -26.3776  -52.1448 O.2       16 UNK        -0.5000 
     94 N          -5.6120  -25.9085  -49.9763 N.am      17 UNK        -0.5000 
     95 CA         -6.5911  -24.8539  -49.7042 C.3       17 UNK         0.1400 
     96 CB         -8.0300  -25.4101  -49.7504 C.3       17 UNK        -0.1800 
     97 C          -6.3837  -23.6118  -50.5982 C.2       17 UNK         0.5000 
     98 O          -7.2903  -23.2122  -51.3314 O.2       17 UNK        -0.5000 
     99 N          -5.1807  -23.0284  -50.5065 N.am      18 UNK        -0.5000 
    100 CA        -4.7276  -21.8048  -51.1741 C.3       18 UNK         0.1400 
    101 CB        -5.5461  -20.5852  -50.7008 C.3       18 UNK        -0.1800 
    102 C         -4.6319  -21.9137  -52.7074 C.2       18 UNK         0.5000 
    103 O         -4.8654  -20.9228  -53.4067 O.2       18 UNK        -0.5000 
    104 N         -4.2436  -23.0944  -53.2079 N.am      19 UNK        -0.5000 
    105 CA        -3.9742  -23.3412  -54.6231 C.3       19 UNK         0.1400 
    106 CB        -3.7581  -24.8435  -54.8534 C.3       19 UNK        -0.1800 
    107 C         -2.7549  -22.5255  -55.0894 C.2       19 UNK         0.5000 
    108 O         -1.6769  -22.6539  -54.5053 O.2       19 UNK        -0.5000 
    109 N         -2.9710  -21.6736  -56.1016 N.am      20 UNK        -0.5000 
    110 CA        -2.0298  -20.6797  -56.6377 C.3       20 UNK         0.1400 
    111 CB        -0.7960  -21.3612  -57.2668 C.3       20 UNK        -0.1800 
    112 C         -1.6522  -19.5677  -55.6293 C.2       20 UNK         0.5000 
    113 O         -0.6329  -18.8994  -55.8117 O.2       20 UNK        -0.5000 
    114 N         -2.4893  -19.3733  -54.6029 N.am      21 UNK        -0.5000 
    115 CA        -2.3833  -18.3244  -53.5955 C.3       21 UNK         0.1400 
    116 CB        -2.0431  -18.9673  -52.2352 C.3       21 UNK        -0.1800 
    117 C         -3.6971  -17.5209  -53.6212 C.2       21 UNK         0.5000 
    118 O         -4.0753  -17.0320  -54.6877 O.2       21 UNK        -0.5000 
    119 N         -4.3767  -17.4012  -52.4744 N.am      22 UNK        -0.5000 
    120 CA        -5.6919  -16.7513  -52.3368 C.3       22 UNK         0.1400 
    121 C         -6.8818  -17.4982  -53.0166 C.2       22 UNK         0.5000 
    122 N         -6.7522  -18.7423  -53.4601 N.am      22 UNK        -0.7600 
    123 O         -7.9578  -16.9228  -53.1562 O.2       22 UNK        -0.5000 
    124 C124       -6.0146  -16.4347  -50.8508 C.3       23 UNK        -0.0398 
    125 S125       -5.2042  -14.9109  -50.2565 S.3       23 UNK        -0.2404 
    126 C126       -3.9141  -15.5353  -49.1235 C.3       23 UNK        -0.0205 
    127 H127       -1.1094  -13.9445  -47.9174 H         1 UNK         0.0600 
    128 H128       -2.4508  -12.8065  -48.1199 H         1 UNK         0.0600 
    129 H129       -1.2646  -12.5664  -46.8323 H         1 UNK         0.0600 
    130 H130        0.0347  -13.6682  -49.8575 H         1 UNK         0.3000 
    131 H131        0.5708  -11.0856  -51.0545 H         1 UNK         0.0600 
    132 H132        1.9231  -12.4209  -52.6843 H         1 UNK         0.0800 
    133 H133        1.6570  -13.8634  -51.7416 H         1 UNK         0.0800 
    134 H134       -1.3042  -15.2299  -53.5946 H         1 UNK         0.0800 
    135 H135        0.3966  -15.4209  -53.2596 H         1 UNK         0.0800 
    136 H136       -2.8627  -14.6866  -51.5863 H         1 UNK         0.1150 
    137 H137       -1.8653  -16.8725  -48.0316 H         1 UNK         0.1150 
    138 H138        1.0269  -16.4085  -51.1587 H         1 UNK         0.1150 
    139 H139        1.7051  -17.2081  -48.9300 H         1 UNK         0.0800 
    140 H140        0.5559  -17.3676  -47.6351 H         1 UNK         0.0800 
    141 H141       -1.7930  -19.5365  -49.1662 H         1 UNK         0.0800 
    142 H142       -1.3012  -19.0557  -47.5589 H         1 UNK         0.0800 
    143 H143       -0.7304  -21.8307  -48.6597 H         1 UNK         0.0600 
    144 H144       -0.0421  -20.6428  -46.1716 H         1 UNK         0.3000 
    145 H145        0.0978  -23.7112  -44.2927 H         1 UNK         0.0600 
    146 H146        2.3368  -22.7745  -43.7702 H         1 UNK         0.0600 
    147 H147        2.3117  -23.4676  -45.3847 H         1 UNK         0.0600 
    148 H148        2.2503  -21.7231  -45.1822 H         1 UNK         0.0600 
    149 H149        0.5097  -21.0406  -43.4528 H         1 UNK         0.3000 
    150 H150       -2.9252  -20.2737  -42.6810 H         1 UNK         0.0600 
    151 H151       -1.9644  -21.5448  -40.7589 H         1 UNK         0.0600 
    152 H152       -1.8543  -19.8096  -40.5038 H         1 UNK         0.0600 
    153 H153       -0.4231  -20.7236  -40.9723 H         1 UNK         0.0600 
    154 H154       -0.5733  -18.7010  -42.4287 H         1 UNK         0.3000 
    155 H155       -0.6835  -17.2202  -45.7083 H         1 UNK         0.0600 
    156 H156       -1.0692  -16.1442  -42.8698 H         1 UNK         0.0600 
    157 H157       -0.5569  -15.2082  -44.2716 H         1 UNK         0.0600 
    158 H158       -2.1726  -15.8994  -44.2187 H         1 UNK         0.0600 
    159 H159        1.2064  -16.8961  -43.6308 H         1 UNK         0.3000 
    160 H160        3.3598  -19.6455  -44.4304 H         1 UNK         0.0600 
    161 H161        3.7180  -16.6114  -44.5999 H         1 UNK         0.0600 
    162 H162        3.9573  -17.7254  -45.9400 H         1 UNK         0.0600 
    163 H163        4.9934  -17.8215  -44.5237 H         1 UNK         0.0600 
    164 H164        3.3203  -17.5746  -42.4059 H         1 UNK         0.3000 
    165 H165        1.7432  -19.5459  -39.8905 H         1 UNK         0.0600 
    166 H166        3.8647  -19.0667  -38.7039 H         1 UNK         0.0600 
    167 H167        4.1164  -20.3247  -39.9033 H         1 UNK         0.0600 
    168 H168        4.6676  -18.6853  -40.2274 H         1 UNK         0.0600 
    169 H169        2.9462  -16.9372  -39.8905 H         1 UNK         0.3000 
    170 H170        0.0019  -15.1292  -40.7823 H         1 UNK         0.0600 
    171 H171        1.5131  -15.3761  -38.1279 H         1 UNK         0.0600 
    172 H172        0.4612  -14.0455  -38.6122 H         1 UNK         0.0600 
    173 H173       -0.2128  -15.6441  -38.3416 H         1 UNK         0.0600 
    174 H174        2.4814  -14.0792  -40.0785 H         1 UNK         0.3000 
    175 H175        3.5141  -12.8749  -41.9717 H         1 UNK         0.0600 
    176 H176        5.8363  -13.8406  -42.0285 H         1 UNK         0.0600 
    177 H177        5.1667  -15.4693  -42.1105 H         1 UNK         0.0600 
    178 H178        4.9256  -14.4829  -40.6735 H         1 UNK         0.0600 
    179 H179        4.4538  -14.5014  -44.2230 H         1 UNK         0.3000 
    180 H180        4.0768  -13.9374  -46.3388 H         1 UNK         0.0600 
    181 H181        1.0110  -14.1448  -46.2808 H         1 UNK         0.0600 
    182 H182        2.1198  -15.4371  -45.8629 H         1 UNK         0.0600 
    183 H183        2.0665  -14.8372  -47.5122 H         1 UNK         0.0600 
    184 H184        1.9910  -12.2287  -47.3872 H         1 UNK         0.3000 
    185 H185        2.9654   -9.4945  -47.5961 H         1 UNK         0.0600 
    186 H186        5.2960   -9.2107  -48.3083 H         1 UNK         0.0600 
    187 H187        5.1159  -10.4138  -49.5755 H         1 UNK         0.0600 
    188 H188        4.2417   -8.8854  -49.6735 H         1 UNK         0.0600 
    189 H189        1.4057  -10.3079  -48.9416 H         1 UNK         0.3000 
    190 H190       -2.8600  -20.4024  -46.1157 H         1 UNK         0.3000 
    191 H191       -5.2878  -20.8742  -47.3727 H         1 UNK         0.0600 
    192 H192       -4.9909  -19.3019  -45.5019 H         1 UNK         0.0600 
    193 H193       -6.2630  -20.4466  -45.1086 H         1 UNK         0.0600 
    194 H194       -4.6677  -20.6318  -44.3893 H         1 UNK         0.0600 
    195 H195       -3.4780  -23.1424  -45.3327 H         1 UNK         0.3000 
    196 H196       -5.6732  -25.1683  -45.5828 H         1 UNK         0.0600 
    197 H197       -4.5178  -26.2574  -43.6516 H         1 UNK         0.0600 
    198 H198       -5.1005  -24.6465  -43.2665 H         1 UNK         0.0600 
    199 H199       -3.3881  -24.9091  -43.5589 H         1 UNK         0.0600 
    200 H200       -2.1736  -25.4999  -45.1060 H         1 UNK         0.3000 
    201 H201       -2.0740  -28.0145  -46.1847 H         1 UNK         0.0600 
    202 H202       -0.4426  -27.1264  -44.5588 H         1 UNK         0.0600 
    203 H203        0.2429  -26.0555  -45.7802 H         1 UNK         0.0600 
    204 H204        0.3948  -27.7977  -45.9481 H         1 UNK         0.0600 
    205 H205       -1.3249  -25.0096  -47.9552 H         1 UNK         0.3000 
    206 H206       -0.3633  -26.3750  -50.3320 H         1 UNK         0.0600 
    207 H207        0.3573  -24.0526  -49.5905 H         1 UNK         0.0600 
    208 H208       -0.1710  -24.1531  -51.2655 H         1 UNK         0.0600 
    209 H209       -1.2437  -23.4718  -50.0595 H         1 UNK         0.0600 
    210 H210       -2.6029  -27.6546  -49.8479 H         1 UNK         0.3000 
    211 H211       -4.5700  -28.4097  -50.5736 H         1 UNK         0.0600 
    212 H212       -3.5854  -27.2694  -53.2388 H         1 UNK         0.0600 
    213 H213       -4.8078  -28.5210  -53.0522 H         1 UNK         0.0600 
    214 H214       -3.1526  -28.8344  -52.5598 H         1 UNK         0.0600 
    215 H215       -4.9893  -26.1261  -49.2036 H         1 UNK         0.3000 
    216 H216       -6.4029  -24.5346  -48.6807 H         1 UNK         0.0600 
    217 H217       -8.7481  -24.6501  -49.4405 H         1 UNK         0.0600 
    218 H218       -8.1453  -26.2589  -49.0765 H         1 UNK         0.0600 
    219 H219       -8.3121  -25.7355  -50.7520 H         1 UNK         0.0600 
    220 H220       -4.4965  -23.4273  -49.8740 H         1 UNK         0.3000 
    221 H221       -3.7005  -21.6504  -50.8457 H         1 UNK         0.0600 
    222 H222       -6.5705  -20.6143  -51.0730 H         1 UNK         0.0600 
    223 H223       -5.5863  -20.5334  -49.6147 H         1 UNK         0.0600 
    224 H224       -5.0998  -19.6556  -51.0471 H         1 UNK         0.0600 
    225 H225       -3.9668  -23.8302  -52.5631 H         1 UNK         0.3000 
    226 H226       -4.8553  -23.0346  -55.1907 H         1 UNK         0.0600 
    227 H227       -4.6221  -25.4201  -54.5221 H         1 UNK         0.0600 
    228 H228       -3.6074  -25.0580  -55.9119 H         1 UNK         0.0600 
    229 H229       -2.8821  -25.2091  -54.3165 H         1 UNK         0.0600 
    230 H230       -3.8997  -21.6379  -56.4993 H         1 UNK         0.3000 
    231 H231       -2.5631  -20.1732  -57.4433 H         1 UNK         0.0600 
    232 H232       -0.1532  -21.8157  -56.5127 H         1 UNK         0.0600 
    233 H233       -0.1900  -20.6409  -57.8175 H         1 UNK         0.0600 
    234 H234       -1.0906  -22.1393  -57.9709 H         1 UNK         0.0600 
    235 H235       -3.3180  -19.9530  -54.5375 H         1 UNK         0.3000 
    236 H236       -1.5848  -17.6260  -53.8499 H         1 UNK         0.0600 
    237 H237       -1.0834  -19.4827  -52.2802 H         1 UNK         0.0600 
    238 H238       -1.9631  -18.2211  -51.4469 H         1 UNK         0.0600 
    239 H239       -2.7901  -19.6960  -51.9292 H         1 UNK         0.0600 
    240 H240       -3.9874  -17.8047  -51.6370 H         1 UNK         0.3000 
    241 H241       -5.6293  -15.8009  -52.8707 H         1 UNK         0.0600 
    242 H242       -5.8934  -19.2731  -53.3657 H         1 UNK         0.3800 
    243 H243       -7.5452  -19.1809  -53.8990 H         1 UNK         0.3800 
    244 H244       -7.0837  -16.2665  -50.7078 H         1 UNK         0.0800 
    245 H245       -5.7691  -17.2819  -50.2095 H         1 UNK         0.0800 
    246 H246       -4.2646  -16.4494  -48.6424 H         1 UNK         0.0800 
    247 H247       -3.7973  -14.8050  -48.3229 H         1 UNK         0.0800 
@<TRIPOS>BOND
     1    1    2 1    
     2    1  127 1    
     3    1  128 1    
     4    1  129 1    
     5    2    3 2    
     6    2    4 am   BACKBONE|DICT|INTERRES
     7    4    5 1    
     8    4  130 1    
     9    5    6 1    
    10    5   65 1    
    11    5  131 1    
    12    6    7 1    
    13    6  132 1    
    14    6  133 1    
    15    7    8 1    
    16    8    9 1    
    17    8  134 1    
    18    8  135 1    
    19    9   10 ar   
    20    9   14 ar   
    21   10   11 ar   
    22   10  136 1    
    23   11   12 ar   
    24   11  126 1    
    25   12   13 ar   
    26   12  137 1    
    27   13   14 ar   
    28   13   15 1    
    29   14  138 1    
    30   15   16 1    
    31   15  139 1    
    32   15  140 1    
    33   16   17 1    
    34   17   18 1    
    35   17  141 1    
    36   17  142 1    
    37   18   19 1    
    38   18   67 1    
    39   18  143 1    
    40   19   20 am   BACKBONE|DICT|INTERRES
    41   19  144 1    
    42   20   21 2    
    43   20   22 1    
    44   22   23 1    
    45   22   24 1    
    46   22  145 1    
    47   23  146 1    
    48   23  147 1    
    49   23  148 1    
    50   24   25 am   BACKBONE|DICT|INTERRES
    51   24  149 1    
    52   25   26 2    
    53   25   27 1    
    54   27   28 1    
    55   27   29 1    
    56   27  150 1    
    57   28  151 1    
    58   28  152 1    
    59   28  153 1    
    60   29   30 am   BACKBONE|DICT|INTERRES
    61   29  154 1    
    62   30   31 2    
    63   30   32 1    
    64   32   33 1    
    65   32   34 1    
    66   32  155 1    
    67   33  156 1    
    68   33  157 1    
    69   33  158 1    
    70   34   35 am   BACKBONE|DICT|INTERRES
    71   34  159 1    
    72   35   36 2    
    73   35   37 1    
    74   37   38 1    
    75   37   39 1    
    76   37  160 1    
    77   38  161 1    
    78   38  162 1    
    79   38  163 1    
    80   39   40 am   BACKBONE|DICT|INTERRES
    81   39  164 1    
    82   40   41 2    
    83   40   42 1    
    84   42   43 1    
    85   42   44 1    
    86   42  165 1    
    87   43  166 1    
    88   43  167 1    
    89   43  168 1    
    90   44   45 am   BACKBONE|DICT|INTERRES
    91   44  169 1    
    92   45   46 2    
    93   45   47 1    
    94   47   48 1    
    95   47   49 1    
    96   47  170 1    
    97   48  171 1    
    98   48  172 1    
    99   48  173 1    
   100   49   50 am   BACKBONE|DICT|INTERRES
   101   49  174 1    
   102   50   51 2    
   103   50   52 1    
   104   52   53 1    
   105   52   54 1    
   106   52  175 1    
   107   53  176 1    
   108   53  177 1    
   109   53  178 1    
   110   54   55 am   BACKBONE|DICT|INTERRES
   111   54  179 1    
   112   55   56 2    
   113   55   57 1    
   114   57   58 1    
   115   57   59 1    
   116   57  180 1    
   117   58  181 1    
   118   58  182 1    
   119   58  183 1    
   120   59   60 am   BACKBONE|DICT|INTERRES
   121   59  184 1    
   122   60   61 2    
   123   60   62 1    
   124   62   63 1    
   125   62   64 1    
   126   62  185 1    
   127   63  186 1    
   128   63  187 1    
   129   63  188 1    
   130   64   65 am   BACKBONE|DICT|INTERRES
   131   64  189 1    
   132   65   66 2    
   133   67   68 2    
   134   67   69 am   BACKBONE|DICT|INTERRES
   135   69   70 1    
   136   69  190 1    
   137   70   71 1    
   138   70   72 1    
   139   70  191 1    
   140   71  192 1    
   141   71  193 1    
   142   71  194 1    
   143   72   73 2    
   144   72   74 am   BACKBONE|DICT|INTERRES
   145   74   75 1    
   146   74  195 1    
   147   75   76 1    
   148   75   77 1    
   149   75  196 1    
   150   76  197 1    
   151   76  198 1    
   152   76  199 1    
   153   77   78 2    
   154   77   79 am   BACKBONE|DICT|INTERRES
   155   79   80 1    
   156   79  200 1    
   157   80   81 1    
   158   80   82 1    
   159   80  201 1    
   160   81  202 1    
   161   81  203 1    
   162   81  204 1    
   163   82   83 2    
   164   82   84 am   BACKBONE|DICT|INTERRES
   165   84   85 1    
   166   84  205 1    
   167   85   86 1    
   168   85   87 1    
   169   85  206 1    
   170   86  207 1    
   171   86  208 1    
   172   86  209 1    
   173   87   88 2    
   174   87   89 am   BACKBONE|DICT|INTERRES
   175   89   90 1    
   176   89  210 1    
   177   90   91 1    
   178   90   92 1    
   179   90  211 1    
   180   91  212 1    
   181   91  213 1    
   182   91  214 1    
   183   92   93 2    
   184   92   94 am   BACKBONE|DICT|INTERRES
   185   94   95 1    
   186   94  215 1    
   187   95   96 1    
   188   95   97 1    
   189   95  216 1    
   190   96  217 1    
   191   96  218 1    
   192   96  219 1    
   193   97   98 2    
   194   97   99 am   BACKBONE|DICT|INTERRES
   195   99  100 1    
   196   99  220 1    
   197  100  101 1    
   198  100  102 1    
   199  100  221 1    
   200  101  222 1    
   201  101  223 1    
   202  101  224 1    
   203  102  103 2    
   204  102  104 am   BACKBONE|DICT|INTERRES
   205  104  105 1    
   206  104  225 1    
   207  105  106 1    
   208  105  107 1    
   209  105  226 1    
   210  106  227 1    
   211  106  228 1    
   212  106  229 1    
   213  107  108 2    
   214  107  109 am   BACKBONE|DICT|INTERRES
   215  109  110 1    
   216  109  230 1    
   217  110  111 1    
   218  110  112 1    
   219  110  231 1    
   220  111  232 1    
   221  111  233 1    
   222  111  234 1    
   223  112  113 2    
   224  112  114 am   BACKBONE|DICT|INTERRES
   225  114  115 1    
   226  114  235 1    
   227  115  116 1    
   228  115  117 1    
   229  115  236 1    
   230  116  237 1    
   231  116  238 1    
   232  116  239 1    
   233  117  118 2    
   234  117  119 am   BACKBONE|DICT|INTERRES
   235  119  120 1    
   236  119  240 1    
   237  120  121 1    
   238  120  124 1    
   239  120  241 1    
   240  121  122 am   BACKBONE|DICT|INTERRES
   241  121  123 2    
   242  122  242 1    
   243  122  243 1    
   244  124  125 1    
   245  124  244 1    
   246  124  245 1    
   247  125  126 1    
   248  126  246 1    
   249  126  247 1    
@<TRIPOS>SUBSTRUCTURE
     1 UNK         1 GROUP             0       ****    0 ROOT    
