@<TRIPOS>MOLECULE
3R540
247   249    1
SMALL
USER_CHARGES


@<TRIPOS>ATOM
      1 CA          2.2122  -13.0439  -49.6052 C.3       0 UNK        -0.1800 
      2 C           2.3837  -14.5225  -49.9228 C.2       0 UNK         0.5000 
      3 O           2.2738  -14.9186  -51.0831 O.2       0 UNK        -0.5000 
      4 N           2.6491  -15.3369  -48.8990 N.am      1 UNK        -0.5000 
      5 CA          2.8653  -16.7791  -48.9824 C.3       1 UNK         0.1400 
      6 C6          1.5547  -17.5736  -49.2644 C.3       23 UNK        -0.0398 
      7 S7          0.3884  -17.6782  -47.8581 S.3       23 UNK        -0.2404 
      8 C8         -0.7160  -16.2681  -48.1635 C.3       23 UNK        -0.0205 
      9 C9         -1.9960  -16.7058  -48.8528 C.ar      23 UNK        -0.0193 
     10 C10        -2.0789  -16.7335  -50.2464 C.ar      23 UNK        -0.1150 
     11 C11        -3.2679  -17.1114  -50.8756 C.ar      23 UNK        -0.0193 
     12 C12        -4.3719  -17.4730  -50.0984 C.ar      23 UNK        -0.1150 
     13 C13        -4.3016  -17.4684  -48.7016 C.ar      23 UNK        -0.0193 
     14 C14        -3.1076  -17.0689  -48.0883 C.ar      23 UNK        -0.1150 
     15 C15        -5.5493  -17.8609  -47.9081 C.3       23 UNK        -0.0205 
     16 S16        -5.2934  -18.2468  -46.1396 S.3       23 UNK        -0.2404 
     17 C17        -4.4712  -19.8781  -46.2051 C.3       23 UNK        -0.0398 
     18 CA         -3.1121  -19.9281  -45.4485 C.3       11 UNK         0.1400 
     19 N          -3.1735  -19.4073  -44.0747 N.am      11 UNK        -0.5000 
     20 C          -3.8812  -19.9050  -43.0484 C.2       10 UNK         0.5000 
     21 O          -4.6599  -20.8535  -43.1524 O.2       10 UNK        -0.5000 
     22 CA         -3.6616  -19.2702  -41.6589 C.3       10 UNK         0.1400 
     23 CB         -2.8860  -20.2353  -40.7478 C.3       10 UNK        -0.1800 
     24 N          -2.9385  -17.9997  -41.7097 N.am      10 UNK        -0.5000 
     25 C          -3.4819  -16.8246  -42.0520 C.2       9 UNK         0.5000 
     26 O          -4.6814  -16.6649  -42.2793 O.2       9 UNK        -0.5000 
     27 CA         -2.5158  -15.6321  -42.1885 C.3       9 UNK         0.1400 
     28 CB         -2.3689  -14.9015  -40.8453 C.3       9 UNK        -0.1800 
     29 N          -1.1888  -16.0137  -42.6799 N.am      9 UNK        -0.5000 
     30 C          -0.9418  -16.5454  -43.8858 C.2       8 UNK         0.5000 
     31 O          -1.8122  -16.7631  -44.7257 O.2       8 UNK        -0.5000 
     32 CA          0.5102  -16.9568  -44.1798 C.3       8 UNK         0.1400 
     33 CB          1.3656  -15.7293  -44.5251 C.3       8 UNK        -0.1800 
     34 N           1.1140  -17.6927  -43.0712 N.am      8 UNK        -0.5000 
     35 C           0.6997  -18.8926  -42.6407 C.2       7 UNK         0.5000 
     36 O          -0.2151  -19.5308  -43.1613 O.2       7 UNK        -0.5000 
     37 CA          1.3944  -19.4551  -41.3896 C.3       7 UNK         0.1400 
     38 CB          2.6904  -20.1932  -41.7567 C.3       7 UNK        -0.1800 
     39 N           1.6863  -18.4071  -40.4131 N.am      7 UNK        -0.5000 
     40 C           0.7547  -17.7589  -39.6998 C.2       6 UNK         0.5000 
     41 O          -0.4487  -18.0143  -39.7499 O.2       6 UNK        -0.5000 
     42 CA          1.2548  -16.5996  -38.8190 C.3       6 UNK         0.1400 
     43 CB          1.8152  -17.1278  -37.4900 C.3       6 UNK        -0.1800 
     44 N           2.2743  -15.7900  -39.4905 N.am      6 UNK        -0.5000 
     45 C           2.0399  -15.0267  -40.5672 C.2       5 UNK         0.5000 
     46 O           0.9308  -14.9007  -41.0837 O.2       5 UNK        -0.5000 
     47 CA          3.2508  -14.3149  -41.1977 C.3       5 UNK         0.1400 
     48 CB          3.4688  -12.9431  -40.5422 C.3       5 UNK        -0.1800 
     49 N           4.4934  -15.0889  -41.1286 N.am      5 UNK        -0.5000 
     50 C           4.6898  -16.2745  -41.7190 C.2       4 UNK         0.5000 
     51 O           3.8198  -16.8871  -42.3430 O.2       4 UNK        -0.5000 
     52 CA          6.0779  -16.8987  -41.5436 C.3       4 UNK         0.1400 
     53 CB          6.1555  -17.6830  -40.2216 C.3       4 UNK        -0.1800 
     54 N           6.3425  -17.7954  -42.6638 N.am      4 UNK        -0.5000 
     55 C           7.5564  -18.1164  -43.1280 C.2       3 UNK         0.5000 
     56 O           8.6013  -17.6636  -42.6579 O.2       3 UNK        -0.5000 
     57 CA          7.6366  -19.1205  -44.2952 C.3       3 UNK         0.1400 
     58 CB          8.2206  -20.4564  -43.8062 C.3       3 UNK        -0.1800 
     59 N           6.3340  -19.3854  -44.9100 N.am      3 UNK        -0.5000 
     60 C           5.8606  -18.7765  -46.0047 C.2       2 UNK         0.5000 
     61 O           6.4963  -17.9370  -46.6465 O.2       2 UNK        -0.5000 
     62 CA          4.4617  -19.2416  -46.4667 C.3       2 UNK         0.1400 
     63 CB          3.4346  -19.2263  -45.3121 C.3       2 UNK        -0.1800 
     64 N           3.9191  -18.5264  -47.6261 N.am      2 UNK        -0.5000 
     65 C           3.5984  -17.2270  -47.7005 C.2       1 UNK         0.5000 
     66 O           3.8200  -16.4029  -46.8079 O.2       1 UNK        -0.5000 
     67 C          -2.4741  -21.3403  -45.4896 C.2       11 UNK         0.5000 
     68 O          -2.7940  -22.1387  -46.3716 O.2       11 UNK        -0.5000 
     69 N          -1.5955  -21.6357  -44.5189 N.am      12 UNK        -0.5000 
     70 CA         -1.0563  -22.9688  -44.2384 C.3       12 UNK         0.1400 
     71 CB         -0.4141  -22.9610  -42.8427 C.3       12 UNK        -0.1800 
     72 C          -0.0535  -23.4696  -45.2917 C.2       12 UNK         0.5000 
     73 O           0.1163  -24.6803  -45.4406 O.2       12 UNK        -0.5000 
     74 N           0.5767  -22.5334  -46.0065 N.am      13 UNK        -0.5000 
     75 CA          1.4867  -22.7889  -47.1188 C.3       13 UNK         0.1400 
     76 CB          2.9409  -22.7862  -46.6174 C.3       13 UNK        -0.1800 
     77 C           1.1964  -21.7998  -48.2604 C.2       13 UNK         0.5000 
     78 O           2.1165  -21.2649  -48.8820 O.2       13 UNK        -0.5000 
     79 N          -0.1014  -21.5807  -48.5065 N.am      14 UNK        -0.5000 
     80 CA         -0.6296  -20.8815  -49.6737 C.3       14 UNK         0.1400 
     81 CB         -2.0469  -20.3966  -49.3429 C.3       14 UNK        -0.1800 
     82 C          -0.6555  -21.8141  -50.8974 C.2       14 UNK         0.5000 
     83 O          -0.6161  -23.0389  -50.7449 O.2       14 UNK        -0.5000 
     84 N          -0.7754  -21.2288  -52.0947 N.am      15 UNK        -0.5000 
     85 CA         -0.8905  -21.9425  -53.3689 C.3       15 UNK         0.1400 
     86 CB         -0.4359  -21.0128  -54.5071 C.3       15 UNK        -0.1800 
     87 C          -2.3175  -22.4935  -53.5746 C.2       15 UNK         0.5000 
     88 O          -3.0404  -22.0283  -54.4535 O.2       15 UNK        -0.5000 
     89 N          -2.6870  -23.4559  -52.7183 N.am      16 UNK        -0.5000 
     90 CA         -3.9689  -24.1648  -52.6112 C.3       16 UNK         0.1400 
     91 CB         -4.3921  -24.8119  -53.9448 C.3       16 UNK        -0.1800 
     92 C          -5.1017  -23.3588  -51.9385 C.2       16 UNK         0.5000 
     93 O          -6.2222  -23.8626  -51.8533 O.2       16 UNK        -0.5000 
     94 N          -4.7823  -22.1645  -51.4156 N.am      17 UNK        -0.5000 
     95 CA         -5.5464  -21.3021  -50.4962 C.3       17 UNK         0.1400 
     96 CB         -5.7630  -22.0113  -49.1460 C.3       17 UNK        -0.1800 
     97 C          -6.8810  -20.7233  -51.0122 C.2       17 UNK         0.5000 
     98 O          -7.1782  -19.5654  -50.7217 O.2       17 UNK        -0.5000 
     99 N          -7.6608  -21.5130  -51.7510 N.am      18 UNK        -0.5000 
    100 CA        -8.9660  -21.1486  -52.3051 C.3       18 UNK         0.1400 
    101 CB       -10.0669  -21.4305  -51.2648 C.3       18 UNK        -0.1800 
    102 C         -9.2148  -21.8653  -53.6450 C.2       18 UNK         0.5000 
    103 O        -10.3650  -22.0673  -54.0381 O.2       18 UNK        -0.5000 
    104 N         -8.1283  -22.2463  -54.3195 N.am      19 UNK        -0.5000 
    105 CA        -8.0855  -22.9162  -55.6103 C.3       19 UNK         0.1400 
    106 CB        -8.2525  -24.4334  -55.4092 C.3       19 UNK        -0.1800 
    107 C         -6.7384  -22.5741  -56.2609 C.2       19 UNK         0.5000 
    108 O         -5.8886  -21.9629  -55.6073 O.2       19 UNK        -0.5000 
    109 N         -6.5661  -22.9703  -57.5293 N.am      20 UNK        -0.5000 
    110 CA        -5.3718  -22.7483  -58.3526 C.3       20 UNK         0.1400 
    111 CB        -4.2030  -23.6281  -57.8513 C.3       20 UNK        -0.1800 
    112 C         -5.0328  -21.2452  -58.4625 C.2       20 UNK         0.5000 
    113 O         -5.9163  -20.4559  -58.8059 O.2       20 UNK        -0.5000 
    114 N         -3.7887  -20.8635  -58.1439 N.am      21 UNK        -0.5000 
    115 CA        -3.3154  -19.4770  -58.1291 C.3       21 UNK         0.1400 
    116 CB        -1.7929  -19.4683  -57.9305 C.3       21 UNK        -0.1800 
    117 C         -4.0081  -18.5956  -57.0695 C.2       21 UNK         0.5000 
    118 O         -4.0844  -17.3808  -57.2593 O.2       21 UNK        -0.5000 
    119 N         -4.5194  -19.2159  -55.9992 N.am      22 UNK        -0.5000 
    120 CA        -5.3354  -18.5702  -54.9609 C.3       22 UNK         0.1400 
    121 C         -6.8665  -18.6295  -55.2502 C.2       22 UNK         0.5000 
    122 N         -7.3196  -19.0944  -56.4096 N.am      22 UNK        -0.7600 
    123 O         -7.6680  -18.2235  -54.4139 O.2       22 UNK        -0.5000 
    124 C124       -4.9894  -19.1052  -53.5479 C.3       23 UNK        -0.0398 
    125 S125       -3.2533  -18.7877  -53.0806 S.3       23 UNK        -0.2404 
    126 C126       -3.3626  -17.1071  -52.3927 C.3       23 UNK        -0.0205 
    127 H127        2.3334  -12.8418  -48.5406 H         1 UNK         0.0600 
    128 H128        1.2185  -12.7095  -49.9033 H         1 UNK         0.0600 
    129 H129        2.9499  -12.4546  -50.1497 H         1 UNK         0.0600 
    130 H130        2.7894  -14.9729  -47.9637 H         1 UNK         0.3000 
    131 H131        3.5568  -16.9572  -49.8086 H         1 UNK         0.0600 
    132 H132        1.8143  -18.5941  -49.5448 H         1 UNK         0.0800 
    133 H133        1.0383  -17.1677  -50.1342 H         1 UNK         0.0800 
    134 H134       -0.2104  -15.5021  -48.7512 H         1 UNK         0.0800 
    135 H135       -0.9552  -15.8018  -47.2068 H         1 UNK         0.0800 
    136 H136       -1.2214  -16.4495  -50.8398 H         1 UNK         0.1150 
    137 H137       -5.2938  -17.7556  -50.5853 H         1 UNK         0.1150 
    138 H138       -3.0306  -17.0321  -47.0121 H         1 UNK         0.1150 
    139 H139       -6.2596  -17.0359  -47.9725 H         1 UNK         0.0800 
    140 H140       -6.0329  -18.7160  -48.3817 H         1 UNK         0.0800 
    141 H141       -4.3202  -20.1500  -47.2504 H         1 UNK         0.0800 
    142 H142       -5.1640  -20.6170  -45.7999 H         1 UNK         0.0800 
    143 H143       -2.4171  -19.2757  -45.9791 H         1 UNK         0.0600 
    144 H144       -2.5791  -18.6069  -43.8986 H         1 UNK         0.3000 
    145 H145       -4.6452  -19.0997  -41.2165 H         1 UNK         0.0600 
    146 H146       -2.7798  -19.8280  -39.7422 H         1 UNK         0.0600 
    147 H147       -3.4009  -21.1926  -40.6581 H         1 UNK         0.0600 
    148 H148       -1.8860  -20.4350  -41.1334 H         1 UNK         0.0600 
    149 H149       -1.9510  -18.0307  -41.4888 H         1 UNK         0.3000 
    150 H150       -2.9502  -14.9376  -42.9104 H         1 UNK         0.0600 
    151 H151       -3.3410  -14.5956  -40.4566 H         1 UNK         0.0600 
    152 H152       -1.7632  -14.0013  -40.9508 H         1 UNK         0.0600 
    153 H153       -1.8973  -15.5356  -40.0935 H         1 UNK         0.0600 
    154 H154       -0.4052  -15.8194  -42.0612 H         1 UNK         0.3000 
    155 H155        0.5062  -17.6273  -45.0387 H         1 UNK         0.0600 
    156 H156        1.2969  -14.9565  -43.7606 H         1 UNK         0.0600 
    157 H157        1.0427  -15.2872  -45.4681 H         1 UNK         0.0600 
    158 H158        2.4163  -15.9950  -44.6324 H         1 UNK         0.0600 
    159 H159        1.9226  -17.2685  -42.6276 H         1 UNK         0.3000 
    160 H160        0.7137  -20.1747  -40.9295 H         1 UNK         0.0600 
    161 H161        3.4416  -19.5164  -42.1626 H         1 UNK         0.0600 
    162 H162        2.5045  -20.9655  -42.5039 H         1 UNK         0.0600 
    163 H163        3.1222  -20.6837  -40.8843 H         1 UNK         0.0600 
    164 H164        2.6449  -18.0992  -40.3505 H         1 UNK         0.3000 
    165 H165        0.3999  -15.9567  -38.5981 H         1 UNK         0.0600 
    166 H166        2.1002  -16.3086  -36.8295 H         1 UNK         0.0600 
    167 H167        1.0699  -17.7247  -36.9627 H         1 UNK         0.0600 
    168 H168        2.6927  -17.7575  -37.6422 H         1 UNK         0.0600 
    169 H169        3.2140  -15.8357  -39.1253 H         1 UNK         0.3000 
    170 H170        3.0226  -14.1529  -42.2528 H         1 UNK         0.0600 
    171 H171        2.5645  -12.3355  -40.5986 H         1 UNK         0.0600 
    172 H172        3.7360  -13.0371  -39.4889 H         1 UNK         0.0600 
    173 H173        4.2624  -12.3881  -41.0427 H         1 UNK         0.0600 
    174 H174        5.2563  -14.6634  -40.6217 H         1 UNK         0.3000 
    175 H175        6.8165  -16.0942  -41.5376 H         1 UNK         0.0600 
    176 H176        5.4351  -18.5019  -40.1982 H         1 UNK         0.0600 
    177 H177        7.1481  -18.1082  -40.0724 H         1 UNK         0.0600 
    178 H178        5.9496  -17.0374  -39.3670 H         1 UNK         0.0600 
    179 H179        5.5151  -18.1356  -43.1348 H         1 UNK         0.3000 
    180 H180        8.3223  -18.7045  -45.0365 H         1 UNK         0.0600 
    181 H181        7.5903  -20.9176  -43.0446 H         1 UNK         0.0600 
    182 H182        9.2110  -20.3161  -43.3713 H         1 UNK         0.0600 
    183 H183        8.3271  -21.1645  -44.6283 H         1 UNK         0.0600 
    184 H184        5.7671  -20.0880  -44.4582 H         1 UNK         0.3000 
    185 H185        4.5872  -20.2710  -46.8016 H         1 UNK         0.0600 
    186 H186        3.6828  -19.9629  -44.5493 H         1 UNK         0.0600 
    187 H187        3.3906  -18.2517  -44.8257 H         1 UNK         0.0600 
    188 H188        2.4316  -19.4636  -45.6681 H         1 UNK         0.0600 
    189 H189        3.7102  -19.1164  -48.4197 H         1 UNK         0.3000 
    190 H190       -1.3112  -20.8917  -43.8859 H         1 UNK         0.3000 
    191 H191       -1.8920  -23.6715  -44.2243 H         1 UNK         0.0600 
    192 H192       -1.1365  -22.6773  -42.0775 H         1 UNK         0.0600 
    193 H193        0.4224  -22.2642  -42.7904 H         1 UNK         0.0600 
    194 H194       -0.0349  -23.9495  -42.5804 H         1 UNK         0.0600 
    195 H195        0.3585  -21.5644  -45.8201 H         1 UNK         0.3000 
    196 H196        1.2851  -23.7752  -47.5421 H         1 UNK         0.0600 
    197 H197        3.6529  -22.8522  -47.4407 H         1 UNK         0.0600 
    198 H198        3.1247  -23.6386  -45.9633 H         1 UNK         0.0600 
    199 H199        3.1612  -21.8872  -46.0481 H         1 UNK         0.0600 
    200 H200       -0.7794  -22.0925  -47.9588 H         1 UNK         0.3000 
    201 H201       -0.0031  -20.0191  -49.9025 H         1 UNK         0.0600 
    202 H202       -2.0389  -19.7286  -48.4825 H         1 UNK         0.0600 
    203 H203       -2.7126  -21.2285  -49.1140 H         1 UNK         0.0600 
    204 H204       -2.4791  -19.8441  -50.1767 H         1 UNK         0.0600 
    205 H205       -0.8617  -20.2234  -52.1454 H         1 UNK         0.3000 
    206 H206       -0.2106  -22.7972  -53.3589 H         1 UNK         0.0600 
    207 H207        0.5941  -20.6869  -54.3623 H         1 UNK         0.0600 
    208 H208       -0.4805  -21.5274  -55.4675 H         1 UNK         0.0600 
    209 H209       -1.0611  -20.1230  -54.5792 H         1 UNK         0.0600 
    210 H210       -2.0055  -23.6967  -52.0036 H         1 UNK         0.3000 
    211 H211       -3.7708  -24.9862  -51.9213 H         1 UNK         0.0600 
    212 H212       -4.6725  -24.0674  -54.6859 H         1 UNK         0.0600 
    213 H213       -5.2500  -25.4700  -53.8056 H         1 UNK         0.0600 
    214 H214       -3.5871  -25.4147  -54.3645 H         1 UNK         0.0600 
    215 H215       -3.8480  -21.8397  -51.6171 H         1 UNK         0.3000 
    216 H216       -4.9022  -20.4420  -50.3098 H         1 UNK         0.0600 
    217 H217       -6.2513  -21.3489  -48.4301 H         1 UNK         0.0600 
    218 H218       -4.8179  -22.3262  -48.7039 H         1 UNK         0.0600 
    219 H219       -6.3928  -22.8953  -49.2501 H         1 UNK         0.0600 
    220 H220       -7.3434  -22.4681  -51.9144 H         1 UNK         0.3000 
    221 H221       -8.9718  -20.0806  -52.5332 H         1 UNK         0.0600 
    222 H222      -10.1205  -22.4918  -51.0197 H         1 UNK         0.0600 
    223 H223       -9.8871  -20.8815  -50.3404 H         1 UNK         0.0600 
    224 H224      -11.0468  -21.1256  -51.6337 H         1 UNK         0.0600 
    225 H225       -7.2127  -21.9728  -53.9846 H         1 UNK         0.3000 
    226 H226       -8.8825  -22.5319  -56.2500 H         1 UNK         0.0600 
    227 H227       -9.2090  -24.6665  -54.9413 H         1 UNK         0.0600 
    228 H228       -8.2206  -24.9666  -56.3598 H         1 UNK         0.0600 
    229 H229       -7.4643  -24.8408  -54.7752 H         1 UNK         0.0600 
    230 H230       -7.3328  -23.4332  -57.9963 H         1 UNK         0.3000 
    231 H231       -5.6248  -23.0773  -59.3614 H         1 UNK         0.0600 
    232 H232       -3.8580  -23.3300  -56.8606 H         1 UNK         0.0600 
    233 H233       -3.3512  -23.5785  -58.5307 H         1 UNK         0.0600 
    234 H234       -4.5016  -24.6747  -57.7920 H         1 UNK         0.0600 
    235 H235       -3.1374  -21.5664  -57.8260 H         1 UNK         0.3000 
    236 H236       -3.5327  -19.0411  -59.1064 H         1 UNK         0.0600 
    237 H237       -1.4022  -18.4500  -57.9449 H         1 UNK         0.0600 
    238 H238       -1.5141  -19.9126  -56.9761 H         1 UNK         0.0600 
    239 H239       -1.2866  -20.0217  -58.7215 H         1 UNK         0.0600 
    240 H240       -4.4404  -20.2242  -55.9229 H         1 UNK         0.3000 
    241 H241       -5.1036  -17.5040  -54.9532 H         1 UNK         0.0600 
    242 H242       -8.3117  -19.0998  -56.5816 H         1 UNK         0.3800 
    243 H243       -6.6862  -19.4420  -57.1188 H         1 UNK         0.3800 
    244 H244       -5.6357  -18.6578  -52.7926 H         1 UNK         0.0800 
    245 H245       -5.1631  -20.1812  -53.5076 H         1 UNK         0.0800 
    246 H246       -2.5554  -16.5093  -52.8185 H         1 UNK         0.0800 
    247 H247       -4.2884  -16.6214  -52.7037 H         1 UNK         0.0800 
@<TRIPOS>BOND
     1    1    2 1    
     2    1  127 1    
     3    1  128 1    
     4    1  129 1    
     5    2    3 2    
     6    2    4 am   BACKBONE|DICT|INTERRES
     7    4    5 1    
     8    4  130 1    
     9    5    6 1    
    10    5   65 1    
    11    5  131 1    
    12    6    7 1    
    13    6  132 1    
    14    6  133 1    
    15    7    8 1    
    16    8    9 1    
    17    8  134 1    
    18    8  135 1    
    19    9   10 ar   
    20    9   14 ar   
    21   10   11 ar   
    22   10  136 1    
    23   11   12 ar   
    24   11  126 1    
    25   12   13 ar   
    26   12  137 1    
    27   13   14 ar   
    28   13   15 1    
    29   14  138 1    
    30   15   16 1    
    31   15  139 1    
    32   15  140 1    
    33   16   17 1    
    34   17   18 1    
    35   17  141 1    
    36   17  142 1    
    37   18   19 1    
    38   18   67 1    
    39   18  143 1    
    40   19   20 am   BACKBONE|DICT|INTERRES
    41   19  144 1    
    42   20   21 2    
    43   20   22 1    
    44   22   23 1    
    45   22   24 1    
    46   22  145 1    
    47   23  146 1    
    48   23  147 1    
    49   23  148 1    
    50   24   25 am   BACKBONE|DICT|INTERRES
    51   24  149 1    
    52   25   26 2    
    53   25   27 1    
    54   27   28 1    
    55   27   29 1    
    56   27  150 1    
    57   28  151 1    
    58   28  152 1    
    59   28  153 1    
    60   29   30 am   BACKBONE|DICT|INTERRES
    61   29  154 1    
    62   30   31 2    
    63   30   32 1    
    64   32   33 1    
    65   32   34 1    
    66   32  155 1    
    67   33  156 1    
    68   33  157 1    
    69   33  158 1    
    70   34   35 am   BACKBONE|DICT|INTERRES
    71   34  159 1    
    72   35   36 2    
    73   35   37 1    
    74   37   38 1    
    75   37   39 1    
    76   37  160 1    
    77   38  161 1    
    78   38  162 1    
    79   38  163 1    
    80   39   40 am   BACKBONE|DICT|INTERRES
    81   39  164 1    
    82   40   41 2    
    83   40   42 1    
    84   42   43 1    
    85   42   44 1    
    86   42  165 1    
    87   43  166 1    
    88   43  167 1    
    89   43  168 1    
    90   44   45 am   BACKBONE|DICT|INTERRES
    91   44  169 1    
    92   45   46 2    
    93   45   47 1    
    94   47   48 1    
    95   47   49 1    
    96   47  170 1    
    97   48  171 1    
    98   48  172 1    
    99   48  173 1    
   100   49   50 am   BACKBONE|DICT|INTERRES
   101   49  174 1    
   102   50   51 2    
   103   50   52 1    
   104   52   53 1    
   105   52   54 1    
   106   52  175 1    
   107   53  176 1    
   108   53  177 1    
   109   53  178 1    
   110   54   55 am   BACKBONE|DICT|INTERRES
   111   54  179 1    
   112   55   56 2    
   113   55   57 1    
   114   57   58 1    
   115   57   59 1    
   116   57  180 1    
   117   58  181 1    
   118   58  182 1    
   119   58  183 1    
   120   59   60 am   BACKBONE|DICT|INTERRES
   121   59  184 1    
   122   60   61 2    
   123   60   62 1    
   124   62   63 1    
   125   62   64 1    
   126   62  185 1    
   127   63  186 1    
   128   63  187 1    
   129   63  188 1    
   130   64   65 am   BACKBONE|DICT|INTERRES
   131   64  189 1    
   132   65   66 2    
   133   67   68 2    
   134   67   69 am   BACKBONE|DICT|INTERRES
   135   69   70 1    
   136   69  190 1    
   137   70   71 1    
   138   70   72 1    
   139   70  191 1    
   140   71  192 1    
   141   71  193 1    
   142   71  194 1    
   143   72   73 2    
   144   72   74 am   BACKBONE|DICT|INTERRES
   145   74   75 1    
   146   74  195 1    
   147   75   76 1    
   148   75   77 1    
   149   75  196 1    
   150   76  197 1    
   151   76  198 1    
   152   76  199 1    
   153   77   78 2    
   154   77   79 am   BACKBONE|DICT|INTERRES
   155   79   80 1    
   156   79  200 1    
   157   80   81 1    
   158   80   82 1    
   159   80  201 1    
   160   81  202 1    
   161   81  203 1    
   162   81  204 1    
   163   82   83 2    
   164   82   84 am   BACKBONE|DICT|INTERRES
   165   84   85 1    
   166   84  205 1    
   167   85   86 1    
   168   85   87 1    
   169   85  206 1    
   170   86  207 1    
   171   86  208 1    
   172   86  209 1    
   173   87   88 2    
   174   87   89 am   BACKBONE|DICT|INTERRES
   175   89   90 1    
   176   89  210 1    
   177   90   91 1    
   178   90   92 1    
   179   90  211 1    
   180   91  212 1    
   181   91  213 1    
   182   91  214 1    
   183   92   93 2    
   184   92   94 am   BACKBONE|DICT|INTERRES
   185   94   95 1    
   186   94  215 1    
   187   95   96 1    
   188   95   97 1    
   189   95  216 1    
   190   96  217 1    
   191   96  218 1    
   192   96  219 1    
   193   97   98 2    
   194   97   99 am   BACKBONE|DICT|INTERRES
   195   99  100 1    
   196   99  220 1    
   197  100  101 1    
   198  100  102 1    
   199  100  221 1    
   200  101  222 1    
   201  101  223 1    
   202  101  224 1    
   203  102  103 2    
   204  102  104 am   BACKBONE|DICT|INTERRES
   205  104  105 1    
   206  104  225 1    
   207  105  106 1    
   208  105  107 1    
   209  105  226 1    
   210  106  227 1    
   211  106  228 1    
   212  106  229 1    
   213  107  108 2    
   214  107  109 am   BACKBONE|DICT|INTERRES
   215  109  110 1    
   216  109  230 1    
   217  110  111 1    
   218  110  112 1    
   219  110  231 1    
   220  111  232 1    
   221  111  233 1    
   222  111  234 1    
   223  112  113 2    
   224  112  114 am   BACKBONE|DICT|INTERRES
   225  114  115 1    
   226  114  235 1    
   227  115  116 1    
   228  115  117 1    
   229  115  236 1    
   230  116  237 1    
   231  116  238 1    
   232  116  239 1    
   233  117  118 2    
   234  117  119 am   BACKBONE|DICT|INTERRES
   235  119  120 1    
   236  119  240 1    
   237  120  121 1    
   238  120  124 1    
   239  120  241 1    
   240  121  122 am   BACKBONE|DICT|INTERRES
   241  121  123 2    
   242  122  242 1    
   243  122  243 1    
   244  124  125 1    
   245  124  244 1    
   246  124  245 1    
   247  125  126 1    
   248  126  246 1    
   249  126  247 1    
@<TRIPOS>SUBSTRUCTURE
     1 UNK         1 GROUP             0       ****    0 ROOT    
