@<TRIPOS>MOLECULE
3R540
247   249    1
SMALL
USER_CHARGES


@<TRIPOS>ATOM
      1 CA          5.4058  -18.8714  -45.1096 C.3       0 UNK        -0.1800 
      2 C           4.9920  -17.8121  -46.1201 C.2       0 UNK         0.5000 
      3 O           5.4454  -17.8454  -47.2635 O.2       0 UNK        -0.5000 
      4 N           4.1371  -16.8749  -45.6948 N.am      1 UNK        -0.5000 
      5 CA          3.6231  -15.7464  -46.4739 C.3       1 UNK         0.1400 
      6 C6          2.8692  -16.1714  -47.7608 C.3       23 UNK        -0.0398 
      7 S7          1.6180  -14.9458  -48.2769 S.3       23 UNK        -0.2404 
      8 C8          1.3993  -15.3983  -50.0243 C.3       23 UNK        -0.0205 
      9 C9          0.6807  -16.7302  -50.1577 C.ar      23 UNK        -0.0193 
     10 C10        -0.7156  -16.7732  -50.1773 C.ar      23 UNK        -0.1150 
     11 C11        -1.3896  -17.9939  -50.2821 C.ar      23 UNK        -0.0193 
     12 C12        -0.6464  -19.1773  -50.3351 C.ar      23 UNK        -0.1150 
     13 C13         0.7509  -19.1504  -50.3001 C.ar      23 UNK        -0.0193 
     14 C14         1.4089  -17.9203  -50.2369 C.ar      23 UNK        -0.1150 
     15 C15         1.5444  -20.4512  -50.3217 C.3       23 UNK        -0.0205 
     16 S16         2.6038  -20.6874  -48.8488 S.3       23 UNK        -0.2404 
     17 C17         1.4530  -20.4787  -47.4452 C.3       23 UNK        -0.0398 
     18 CA          0.7924  -21.8005  -46.9770 C.3       11 UNK         0.1400 
     19 N           0.3796  -21.7389  -45.5707 N.am      11 UNK        -0.5000 
     20 C          -0.1615  -22.7529  -44.8775 C.2       10 UNK         0.5000 
     21 O          -0.2868  -23.8952  -45.3145 O.2       10 UNK        -0.5000 
     22 CA         -0.7281  -22.4177  -43.4883 C.3       10 UNK         0.1400 
     23 CB          0.3758  -22.4312  -42.4224 C.3       10 UNK        -0.1800 
     24 N          -1.4155  -21.1257  -43.4897 N.am      10 UNK        -0.5000 
     25 C          -2.5819  -20.9016  -44.1129 C.2       9 UNK         0.5000 
     26 O          -3.2237  -21.7791  -44.6902 O.2       9 UNK        -0.5000 
     27 CA         -3.0964  -19.4497  -44.1282 C.3       9 UNK         0.1400 
     28 CB         -3.9236  -19.1563  -42.8682 C.3       9 UNK        -0.1800 
     29 N          -2.0167  -18.4665  -44.2390 N.am      9 UNK        -0.5000 
     30 C          -1.2447  -18.3072  -45.3239 C.2       8 UNK         0.5000 
     31 O          -1.3867  -18.9543  -46.3598 O.2       8 UNK        -0.5000 
     32 CA         -0.0810  -17.3040  -45.2044 C.3       8 UNK         0.1400 
     33 CB         -0.5535  -15.8847  -45.5437 C.3       8 UNK        -0.1800 
     34 N           0.5395  -17.3114  -43.8755 N.am      8 UNK        -0.5000 
     35 C           1.1725  -18.3690  -43.3473 C.2       7 UNK         0.5000 
     36 O           1.3086  -19.4351  -43.9504 O.2       7 UNK        -0.5000 
     37 CA          1.6881  -18.2348  -41.8974 C.3       7 UNK         0.1400 
     38 CB          2.8789  -19.1705  -41.6005 C.3       7 UNK        -0.1800 
     39 N           2.0034  -16.8626  -41.4829 N.am      7 UNK        -0.5000 
     40 C           2.9530  -16.0669  -41.9916 C.2       6 UNK         0.5000 
     41 O           3.6192  -16.3413  -42.9916 O.2       6 UNK        -0.5000 
     42 CA          3.1817  -14.7432  -41.2432 C.3       6 UNK         0.1400 
     43 CB          4.4112  -13.9764  -41.7576 C.3       6 UNK        -0.1800 
     44 N           2.0051  -13.8806  -41.3355 N.am      6 UNK        -0.5000 
     45 C           0.9944  -13.8643  -40.4558 C.2       5 UNK         0.5000 
     46 O           0.9055  -14.6607  -39.5203 O.2       5 UNK        -0.5000 
     47 CA         -0.0890  -12.7803  -40.6271 C.3       5 UNK         0.1400 
     48 CB          0.1108  -11.6643  -39.5897 C.3       5 UNK        -0.1800 
     49 N          -0.0930  -12.1795  -41.9615 N.am      5 UNK        -0.5000 
     50 C          -0.7241  -12.6972  -43.0231 C.2       4 UNK         0.5000 
     51 O          -1.4159  -13.7139  -42.9750 O.2       4 UNK        -0.5000 
     52 CA         -0.5264  -11.9697  -44.3702 C.3       4 UNK         0.1400 
     53 CB         -1.6400  -10.9351  -44.5906 C.3       4 UNK        -0.1800 
     54 N           0.7798  -11.3111  -44.5110 N.am      4 UNK        -0.5000 
     55 C           1.9529  -11.9546  -44.4797 C.2       3 UNK         0.5000 
     56 O           2.0516  -13.1710  -44.2830 O.2       3 UNK        -0.5000 
     57 CA          3.2283  -11.1123  -44.6534 C.3       3 UNK         0.1400 
     58 CB          3.5158  -10.2660  -43.4006 C.3       3 UNK        -0.1800 
     59 N           4.3006  -12.0683  -44.8660 N.am      3 UNK        -0.5000 
     60 C           5.5207  -11.8948  -45.3784 C.2       2 UNK         0.5000 
     61 O           5.9863  -10.8031  -45.7055 O.2       2 UNK        -0.5000 
     62 CA          6.3462  -13.1884  -45.5718 C.3       2 UNK         0.1400 
     63 CB          7.3488  -13.3689  -44.4219 C.3       2 UNK        -0.1800 
     64 N           5.4891  -14.3802  -45.6515 N.am      2 UNK        -0.5000 
     65 C           4.7022  -14.6630  -46.7009 C.2       1 UNK         0.5000 
     66 O           4.7893  -14.0754  -47.7805 O.2       1 UNK        -0.5000 
     67 C          -0.3901  -22.1922  -47.8871 C.2       11 UNK         0.5000 
     68 O          -0.2629  -23.1194  -48.6868 O.2       11 UNK        -0.5000 
     69 N          -1.5324  -21.5122  -47.7071 N.am      12 UNK        -0.5000 
     70 CA         -2.7831  -21.7583  -48.4243 C.3       12 UNK         0.1400 
     71 CB         -3.8255  -20.7096  -48.0102 C.3       12 UNK        -0.1800 
     72 C          -3.3286  -23.1823  -48.2289 C.2       12 UNK         0.5000 
     73 O          -3.8004  -23.7820  -49.1951 O.2       12 UNK        -0.5000 
     74 N          -3.2344  -23.7027  -46.9995 N.am      13 UNK        -0.5000 
     75 CA         -3.6042  -25.0736  -46.6593 C.3       13 UNK         0.1400 
     76 CB         -3.6869  -25.2183  -45.1320 C.3       13 UNK        -0.1800 
     77 C          -2.6356  -26.1080  -47.2620 C.2       13 UNK         0.5000 
     78 O          -3.0897  -27.0788  -47.8677 O.2       13 UNK        -0.5000 
     79 N          -1.3250  -25.8796  -47.0953 N.am      14 UNK        -0.5000 
     80 CA         -0.2552  -26.7792  -47.5324 C.3       14 UNK         0.1400 
     81 CB          1.0830  -26.3141  -46.9379 C.3       14 UNK        -0.1800 
     82 C          -0.1473  -26.9080  -49.0610 C.2       14 UNK         0.5000 
     83 O           0.0034  -28.0207  -49.5672 O.2       14 UNK        -0.5000 
     84 N          -0.2356  -25.7746  -49.7688 N.am      15 UNK        -0.5000 
     85 CA         -0.1712  -25.7119  -51.2305 C.3       15 UNK         0.1400 
     86 CB          0.2858  -24.3022  -51.6429 C.3       15 UNK        -0.1800 
     87 C          -1.5116  -26.0535  -51.9100 C.2       15 UNK         0.5000 
     88 O          -1.5371  -26.2184  -53.1296 O.2       15 UNK        -0.5000 
     89 N          -2.6002  -26.0924  -51.1245 N.am      16 UNK        -0.5000 
     90 CA         -4.0088  -26.1756  -51.5375 C.3       16 UNK         0.1400 
     91 CB         -4.3039  -27.4786  -52.3070 C.3       16 UNK        -0.1800 
     92 C          -4.4943  -24.9177  -52.2923 C.2       16 UNK         0.5000 
     93 O          -5.5681  -24.9293  -52.8972 O.2       16 UNK        -0.5000 
     94 N          -3.7199  -23.8276  -52.2016 N.am      17 UNK        -0.5000 
     95 CA         -3.9969  -22.5274  -52.8043 C.3       17 UNK         0.1400 
     96 CB         -2.7252  -21.6718  -52.7665 C.3       17 UNK        -0.1800 
     97 C          -5.1921  -21.7967  -52.1627 C.2       17 UNK         0.5000 
     98 O          -5.7112  -20.8582  -52.7642 O.2       17 UNK        -0.5000 
     99 N          -5.6492  -22.2660  -50.9919 N.am      18 UNK        -0.5000 
    100 CA        -6.9187  -21.8800  -50.3726 C.3       18 UNK         0.1400 
    101 CB        -7.0553  -22.5811  -49.0107 C.3       18 UNK        -0.1800 
    102 C         -8.1401  -22.2104  -51.2547 C.2       18 UNK         0.5000 
    103 O         -9.0992  -21.4388  -51.2707 O.2       18 UNK        -0.5000 
    104 N         -8.0768  -23.3370  -51.9808 N.am      19 UNK        -0.5000 
    105 CA        -9.1153  -23.7686  -52.9165 C.3       19 UNK         0.1400 
    106 CB        -9.0517  -25.2950  -53.0805 C.3       19 UNK        -0.1800 
    107 C         -8.9850  -23.0698  -54.2811 C.2       19 UNK         0.5000 
    108 O        -10.0021  -22.7705  -54.9075 O.2       19 UNK        -0.5000 
    109 N         -7.7411  -22.8196  -54.7158 N.am      20 UNK        -0.5000 
    110 CA        -7.4271  -22.1481  -55.9806 C.3       20 UNK         0.1400 
    111 CB        -5.9595  -22.4174  -56.3463 C.3       20 UNK        -0.1800 
    112 C         -7.6943  -20.6301  -55.9493 C.2       20 UNK         0.5000 
    113 O         -7.9545  -20.0513  -57.0043 O.2       20 UNK        -0.5000 
    114 N         -7.6181  -20.0358  -54.7489 N.am      21 UNK        -0.5000 
    115 CA        -7.6822  -18.6112  -54.4209 C.3       21 UNK         0.1400 
    116 CB        -8.9799  -17.9496  -54.9290 C.3       21 UNK        -0.1800 
    117 C         -6.4091  -17.8856  -54.8938 C.2       21 UNK         0.5000 
    118 O         -6.3242  -17.4626  -56.0482 O.2       21 UNK        -0.5000 
    119 N         -5.4316  -17.7763  -53.9853 N.am      22 UNK        -0.5000 
    120 CA        -4.1267  -17.1243  -54.2013 C.3       22 UNK         0.1400 
    121 C         -4.1629  -15.5964  -54.5162 C.2       22 UNK         0.5000 
    122 N         -5.2586  -14.8881  -54.2701 N.am      22 UNK        -0.7600 
    123 O         -3.1781  -15.0472  -55.0028 O.2       22 UNK        -0.5000 
    124 C124       -3.1343  -17.4388  -53.0494 C.3       23 UNK        -0.0398 
    125 S125       -3.6994  -16.8518  -51.4134 S.3       23 UNK        -0.2404 
    126 C126       -2.9147  -18.0491  -50.2841 C.3       23 UNK        -0.0205 
    127 H127        4.8883  -19.8084  -45.3160 H         1 UNK         0.0600 
    128 H128        5.1698  -18.5652  -44.0907 H         1 UNK         0.0600 
    129 H129        6.4796  -19.0508  -45.1667 H         1 UNK         0.0600 
    130 H130        3.8586  -16.8711  -44.7141 H         1 UNK         0.3000 
    131 H131        2.8891  -15.2869  -45.8101 H         1 UNK         0.0600 
    132 H132        2.3468  -17.1135  -47.5922 H         1 UNK         0.0800 
    133 H133        3.5691  -16.3587  -48.5767 H         1 UNK         0.0800 
    134 H134        0.8246  -14.6165  -50.5229 H         1 UNK         0.0800 
    135 H135        2.3684  -15.4306  -50.5247 H         1 UNK         0.0800 
    136 H136       -1.2789  -15.8536  -50.1043 H         1 UNK         0.1150 
    137 H137       -1.1538  -20.1264  -50.3880 H         1 UNK         0.1150 
    138 H138        2.4892  -17.8949  -50.2147 H         1 UNK         0.1150 
    139 H139        0.8799  -21.3098  -50.4235 H         1 UNK         0.0800 
    140 H140        2.1784  -20.4580  -51.2092 H         1 UNK         0.0800 
    141 H141        2.0523  -20.0672  -46.6315 H         1 UNK         0.0800 
    142 H142        0.7154  -19.7085  -47.6695 H         1 UNK         0.0800 
    143 H143        1.5352  -22.5984  -47.0420 H         1 UNK         0.0600 
    144 H144        0.4916  -20.8453  -45.1027 H         1 UNK         0.3000 
    145 H145       -1.4562  -23.1888  -43.2268 H         1 UNK         0.0600 
    146 H146       -0.0137  -22.1595  -41.4412 H         1 UNK         0.0600 
    147 H147        0.8146  -23.4258  -42.3352 H         1 UNK         0.0600 
    148 H148        1.1824  -21.7437  -42.6700 H         1 UNK         0.0600 
    149 H149       -0.9272  -20.3476  -43.0742 H         1 UNK         0.3000 
    150 H150       -3.7473  -19.3382  -44.9980 H         1 UNK         0.0600 
    151 H151       -4.7494  -19.8625  -42.7710 H         1 UNK         0.0600 
    152 H152       -4.3558  -18.1561  -42.9045 H         1 UNK         0.0600 
    153 H153       -3.3205  -19.2296  -41.9623 H         1 UNK         0.0600 
    154 H154       -1.8366  -17.8906  -43.4300 H         1 UNK         0.3000 
    155 H155        0.6817  -17.5927  -45.9297 H         1 UNK         0.0600 
    156 H156        0.2599  -15.1642  -45.4552 H         1 UNK         0.0600 
    157 H157       -1.3623  -15.5623  -44.8881 H         1 UNK         0.0600 
    158 H158       -0.9235  -15.8348  -46.5687 H         1 UNK         0.0600 
    159 H159        0.4704  -16.4641  -43.3307 H         1 UNK         0.3000 
    160 H160        0.8606  -18.5546  -41.2630 H         1 UNK         0.0600 
    161 H161        3.7302  -18.9607  -42.2470 H         1 UNK         0.0600 
    162 H162        2.6112  -20.2158  -41.7471 H         1 UNK         0.0600 
    163 H163        3.2113  -19.0688  -40.5675 H         1 UNK         0.0600 
    164 H164        1.4906  -16.5141  -40.6814 H         1 UNK         0.3000 
    165 H165        3.3739  -14.9907  -40.1970 H         1 UNK         0.0600 
    166 H166        4.3208  -13.7417  -42.8149 H         1 UNK         0.0600 
    167 H167        4.5528  -13.0416  -41.2151 H         1 UNK         0.0600 
    168 H168        5.3188  -14.5676  -41.6306 H         1 UNK         0.0600 
    169 H169        1.9491  -13.2927  -42.1569 H         1 UNK         0.3000 
    170 H170       -1.0572  -13.2489  -40.4379 H         1 UNK         0.0600 
    171 H171        0.0899  -12.0644  -38.5750 H         1 UNK         0.0600 
    172 H172        1.0669  -11.1565  -39.7228 H         1 UNK         0.0600 
    173 H173       -0.6795  -10.9165  -39.6582 H         1 UNK         0.0600 
    174 H174        0.4453  -11.3346  -42.0845 H         1 UNK         0.3000 
    175 H175       -0.6023  -12.7224  -45.1579 H         1 UNK         0.0600 
    176 H176       -1.5976  -10.1343  -43.8513 H         1 UNK         0.0600 
    177 H177       -1.5695  -10.4838  -45.5805 H         1 UNK         0.0600 
    178 H178       -2.6246  -11.3989  -44.5164 H         1 UNK         0.0600 
    179 H179        0.7678  -10.3130  -44.6657 H         1 UNK         0.3000 
    180 H180        3.1248  -10.4757  -45.5340 H         1 UNK         0.0600 
    181 H181        3.6029  -10.8862  -42.5076 H         1 UNK         0.0600 
    182 H182        2.7201   -9.5417  -43.2233 H         1 UNK         0.0600 
    183 H183        4.4439   -9.7043  -43.5073 H         1 UNK         0.0600 
    184 H184        3.9948  -13.0148  -44.6748 H         1 UNK         0.3000 
    185 H185        6.9060  -13.0927  -46.5045 H         1 UNK         0.0600 
    186 H186        7.9623  -14.2578  -44.5694 H         1 UNK         0.0600 
    187 H187        8.0247  -12.5152  -44.3575 H         1 UNK         0.0600 
    188 H188        6.8473  -13.4624  -43.4584 H         1 UNK         0.0600 
    189 H189        5.3928  -14.9345  -44.8120 H         1 UNK         0.3000 
    190 H190       -1.5326  -20.7291  -47.0586 H         1 UNK         0.3000 
    191 H191       -2.5759  -21.6328  -49.4855 H         1 UNK         0.0600 
    192 H192       -4.6391  -20.6641  -48.7330 H         1 UNK         0.0600 
    193 H193       -3.3905  -19.7138  -47.9557 H         1 UNK         0.0600 
    194 H194       -4.2601  -20.9285  -47.0347 H         1 UNK         0.0600 
    195 H195       -2.8902  -23.1174  -46.2463 H         1 UNK         0.3000 
    196 H196       -4.5977  -25.2679  -47.0694 H         1 UNK         0.0600 
    197 H197       -3.9854  -26.2290  -44.8510 H         1 UNK         0.0600 
    198 H198       -4.4226  -24.5322  -44.7119 H         1 UNK         0.0600 
    199 H199       -2.7294  -25.0129  -44.6529 H         1 UNK         0.0600 
    200 H200       -1.0320  -25.0615  -46.5655 H         1 UNK         0.3000 
    201 H201       -0.4736  -27.7718  -47.1331 H         1 UNK         0.0600 
    202 H202        1.0531  -26.3214  -45.8483 H         1 UNK         0.0600 
    203 H203        1.3346  -25.3022  -47.2585 H         1 UNK         0.0600 
    204 H204        1.8986  -26.9700  -47.2449 H         1 UNK         0.0600 
    205 H205       -0.3268  -24.8861  -49.2790 H         1 UNK         0.3000 
    206 H206        0.5726  -26.4278  -51.5864 H         1 UNK         0.0600 
    207 H207        1.2390  -24.0446  -51.1805 H         1 UNK         0.0600 
    208 H208        0.4197  -24.2330  -52.7231 H         1 UNK         0.0600 
    209 H209       -0.4409  -23.5420  -51.3543 H         1 UNK         0.0600 
    210 H210       -2.4575  -25.9486  -50.1336 H         1 UNK         0.3000 
    211 H211       -4.5846  -26.2058  -50.6114 H         1 UNK         0.0600 
    212 H212       -3.8406  -27.4846  -53.2936 H         1 UNK         0.0600 
    213 H213       -5.3768  -27.6088  -52.4535 H         1 UNK         0.0600 
    214 H214       -3.9438  -28.3496  -51.7595 H         1 UNK         0.0600 
    215 H215       -2.8947  -23.8957  -51.6254 H         1 UNK         0.3000 
    216 H216       -4.2479  -22.7061  -53.8496 H         1 UNK         0.0600 
    217 H217       -2.8668  -20.7497  -53.3286 H         1 UNK         0.0600 
    218 H218       -1.8819  -22.1948  -53.2180 H         1 UNK         0.0600 
    219 H219       -2.4492  -21.4044  -51.7495 H         1 UNK         0.0600 
    220 H220       -5.1280  -23.0079  -50.5365 H         1 UNK         0.3000 
    221 H221       -6.9028  -20.8003  -50.2106 H         1 UNK         0.0600 
    222 H222       -7.0166  -23.6665  -49.1121 H         1 UNK         0.0600 
    223 H223       -6.2661  -22.2853  -48.3222 H         1 UNK         0.0600 
    224 H224       -8.0043  -22.3296  -48.5352 H         1 UNK         0.0600 
    225 H225       -7.2393  -23.9052  -51.9428 H         1 UNK         0.3000 
    226 H226      -10.0946  -23.5175  -52.5030 H         1 UNK         0.0600 
    227 H227       -9.1723  -25.8000  -52.1220 H         1 UNK         0.0600 
    228 H228       -9.8478  -25.6489  -53.7368 H         1 UNK         0.0600 
    229 H229       -8.1043  -25.6181  -53.5129 H         1 UNK         0.0600 
    230 H230       -6.9631  -23.1284  -54.1514 H         1 UNK         0.3000 
    231 H231       -8.0554  -22.5833  -56.7609 H         1 UNK         0.0600 
    232 H232       -5.7491  -22.0819  -57.3625 H         1 UNK         0.0600 
    233 H233       -5.7214  -23.4803  -56.2986 H         1 UNK         0.0600 
    234 H234       -5.2774  -21.8833  -55.6855 H         1 UNK         0.0600 
    235 H235       -7.2983  -20.6150  -53.9802 H         1 UNK         0.3000 
    236 H236       -7.7085  -18.5603  -53.3310 H         1 UNK         0.0600 
    237 H237       -9.8595  -18.4918  -54.5819 H         1 UNK         0.0600 
    238 H238       -9.0597  -16.9273  -54.5582 H         1 UNK         0.0600 
    239 H239       -9.0240  -17.9002  -56.0169 H         1 UNK         0.0600 
    240 H240       -5.5698  -18.1796  -53.0694 H         1 UNK         0.3000 
    241 H241       -3.7128  -17.5848  -55.1004 H         1 UNK         0.0600 
    242 H242       -6.0699  -15.3253  -53.8645 H         1 UNK         0.3800 
    243 H243       -5.2720  -13.9031  -54.4826 H         1 UNK         0.3800 
    244 H244       -2.9752  -18.5143  -52.9957 H         1 UNK         0.0800 
    245 H245       -2.1523  -17.0082  -53.2535 H         1 UNK         0.0800 
    246 H246       -3.2700  -19.0506  -50.5311 H         1 UNK         0.0800 
    247 H247       -3.2621  -17.8335  -49.2736 H         1 UNK         0.0800 
@<TRIPOS>BOND
     1    1    2 1    
     2    1  127 1    
     3    1  128 1    
     4    1  129 1    
     5    2    3 2    
     6    2    4 am   BACKBONE|DICT|INTERRES
     7    4    5 1    
     8    4  130 1    
     9    5    6 1    
    10    5   65 1    
    11    5  131 1    
    12    6    7 1    
    13    6  132 1    
    14    6  133 1    
    15    7    8 1    
    16    8    9 1    
    17    8  134 1    
    18    8  135 1    
    19    9   10 ar   
    20    9   14 ar   
    21   10   11 ar   
    22   10  136 1    
    23   11   12 ar   
    24   11  126 1    
    25   12   13 ar   
    26   12  137 1    
    27   13   14 ar   
    28   13   15 1    
    29   14  138 1    
    30   15   16 1    
    31   15  139 1    
    32   15  140 1    
    33   16   17 1    
    34   17   18 1    
    35   17  141 1    
    36   17  142 1    
    37   18   19 1    
    38   18   67 1    
    39   18  143 1    
    40   19   20 am   BACKBONE|DICT|INTERRES
    41   19  144 1    
    42   20   21 2    
    43   20   22 1    
    44   22   23 1    
    45   22   24 1    
    46   22  145 1    
    47   23  146 1    
    48   23  147 1    
    49   23  148 1    
    50   24   25 am   BACKBONE|DICT|INTERRES
    51   24  149 1    
    52   25   26 2    
    53   25   27 1    
    54   27   28 1    
    55   27   29 1    
    56   27  150 1    
    57   28  151 1    
    58   28  152 1    
    59   28  153 1    
    60   29   30 am   BACKBONE|DICT|INTERRES
    61   29  154 1    
    62   30   31 2    
    63   30   32 1    
    64   32   33 1    
    65   32   34 1    
    66   32  155 1    
    67   33  156 1    
    68   33  157 1    
    69   33  158 1    
    70   34   35 am   BACKBONE|DICT|INTERRES
    71   34  159 1    
    72   35   36 2    
    73   35   37 1    
    74   37   38 1    
    75   37   39 1    
    76   37  160 1    
    77   38  161 1    
    78   38  162 1    
    79   38  163 1    
    80   39   40 am   BACKBONE|DICT|INTERRES
    81   39  164 1    
    82   40   41 2    
    83   40   42 1    
    84   42   43 1    
    85   42   44 1    
    86   42  165 1    
    87   43  166 1    
    88   43  167 1    
    89   43  168 1    
    90   44   45 am   BACKBONE|DICT|INTERRES
    91   44  169 1    
    92   45   46 2    
    93   45   47 1    
    94   47   48 1    
    95   47   49 1    
    96   47  170 1    
    97   48  171 1    
    98   48  172 1    
    99   48  173 1    
   100   49   50 am   BACKBONE|DICT|INTERRES
   101   49  174 1    
   102   50   51 2    
   103   50   52 1    
   104   52   53 1    
   105   52   54 1    
   106   52  175 1    
   107   53  176 1    
   108   53  177 1    
   109   53  178 1    
   110   54   55 am   BACKBONE|DICT|INTERRES
   111   54  179 1    
   112   55   56 2    
   113   55   57 1    
   114   57   58 1    
   115   57   59 1    
   116   57  180 1    
   117   58  181 1    
   118   58  182 1    
   119   58  183 1    
   120   59   60 am   BACKBONE|DICT|INTERRES
   121   59  184 1    
   122   60   61 2    
   123   60   62 1    
   124   62   63 1    
   125   62   64 1    
   126   62  185 1    
   127   63  186 1    
   128   63  187 1    
   129   63  188 1    
   130   64   65 am   BACKBONE|DICT|INTERRES
   131   64  189 1    
   132   65   66 2    
   133   67   68 2    
   134   67   69 am   BACKBONE|DICT|INTERRES
   135   69   70 1    
   136   69  190 1    
   137   70   71 1    
   138   70   72 1    
   139   70  191 1    
   140   71  192 1    
   141   71  193 1    
   142   71  194 1    
   143   72   73 2    
   144   72   74 am   BACKBONE|DICT|INTERRES
   145   74   75 1    
   146   74  195 1    
   147   75   76 1    
   148   75   77 1    
   149   75  196 1    
   150   76  197 1    
   151   76  198 1    
   152   76  199 1    
   153   77   78 2    
   154   77   79 am   BACKBONE|DICT|INTERRES
   155   79   80 1    
   156   79  200 1    
   157   80   81 1    
   158   80   82 1    
   159   80  201 1    
   160   81  202 1    
   161   81  203 1    
   162   81  204 1    
   163   82   83 2    
   164   82   84 am   BACKBONE|DICT|INTERRES
   165   84   85 1    
   166   84  205 1    
   167   85   86 1    
   168   85   87 1    
   169   85  206 1    
   170   86  207 1    
   171   86  208 1    
   172   86  209 1    
   173   87   88 2    
   174   87   89 am   BACKBONE|DICT|INTERRES
   175   89   90 1    
   176   89  210 1    
   177   90   91 1    
   178   90   92 1    
   179   90  211 1    
   180   91  212 1    
   181   91  213 1    
   182   91  214 1    
   183   92   93 2    
   184   92   94 am   BACKBONE|DICT|INTERRES
   185   94   95 1    
   186   94  215 1    
   187   95   96 1    
   188   95   97 1    
   189   95  216 1    
   190   96  217 1    
   191   96  218 1    
   192   96  219 1    
   193   97   98 2    
   194   97   99 am   BACKBONE|DICT|INTERRES
   195   99  100 1    
   196   99  220 1    
   197  100  101 1    
   198  100  102 1    
   199  100  221 1    
   200  101  222 1    
   201  101  223 1    
   202  101  224 1    
   203  102  103 2    
   204  102  104 am   BACKBONE|DICT|INTERRES
   205  104  105 1    
   206  104  225 1    
   207  105  106 1    
   208  105  107 1    
   209  105  226 1    
   210  106  227 1    
   211  106  228 1    
   212  106  229 1    
   213  107  108 2    
   214  107  109 am   BACKBONE|DICT|INTERRES
   215  109  110 1    
   216  109  230 1    
   217  110  111 1    
   218  110  112 1    
   219  110  231 1    
   220  111  232 1    
   221  111  233 1    
   222  111  234 1    
   223  112  113 2    
   224  112  114 am   BACKBONE|DICT|INTERRES
   225  114  115 1    
   226  114  235 1    
   227  115  116 1    
   228  115  117 1    
   229  115  236 1    
   230  116  237 1    
   231  116  238 1    
   232  116  239 1    
   233  117  118 2    
   234  117  119 am   BACKBONE|DICT|INTERRES
   235  119  120 1    
   236  119  240 1    
   237  120  121 1    
   238  120  124 1    
   239  120  241 1    
   240  121  122 am   BACKBONE|DICT|INTERRES
   241  121  123 2    
   242  122  242 1    
   243  122  243 1    
   244  124  125 1    
   245  124  244 1    
   246  124  245 1    
   247  125  126 1    
   248  126  246 1    
   249  126  247 1    
@<TRIPOS>SUBSTRUCTURE
     1 UNK         1 GROUP             0       ****    0 ROOT    
