@<TRIPOS>MOLECULE
3R540
247   249    1
SMALL
USER_CHARGES


@<TRIPOS>ATOM
      1 CA         -0.3227  -14.3110  -48.4655 C.3       0 UNK        -0.1800 
      2 C           0.2926  -15.5727  -49.0657 C.2       0 UNK         0.5000 
      3 O          -0.4476  -16.4650  -49.4667 O.2       0 UNK        -0.5000 
      4 N           1.6257  -15.6954  -49.1457 N.am      1 UNK        -0.5000 
      5 CA          2.6248  -14.8018  -48.5438 C.3       1 UNK         0.1400 
      6 C6          4.0385  -14.9722  -49.1550 C.3       23 UNK        -0.0398 
      7 S7          4.1310  -14.3680  -50.8758 S.3       23 UNK        -0.2404 
      8 C8          4.4490  -15.8950  -51.8188 C.3       23 UNK        -0.0205 
      9 C9          3.2624  -16.8426  -51.7669 C.ar      23 UNK        -0.0193 
     10 C10         2.0771  -16.5151  -52.4296 C.ar      23 UNK        -0.1150 
     11 C11         0.9553  -17.3414  -52.3268 C.ar      23 UNK        -0.0193 
     12 C12         1.0344  -18.5196  -51.5766 C.ar      23 UNK        -0.1150 
     13 C13         2.2227  -18.8678  -50.9288 C.ar      23 UNK        -0.0193 
     14 C14         3.3341  -18.0267  -51.0296 C.ar      23 UNK        -0.1150 
     15 C15         2.3195  -20.1502  -50.1205 C.3       23 UNK        -0.0205 
     16 S16         2.3557  -19.8210  -48.3306 S.3       23 UNK        -0.2404 
     17 C17         0.5807  -19.7705  -47.9044 C.3       23 UNK        -0.0398 
     18 CA         -0.0620  -21.1761  -47.7782 C.3       11 UNK         0.1400 
     19 N           0.7412  -22.1158  -46.9924 N.am      11 UNK        -0.5000 
     20 C           0.5352  -23.4394  -46.9450 C.2       10 UNK         0.5000 
     21 O          -0.3768  -24.0087  -47.5406 O.2       10 UNK        -0.5000 
     22 CA          1.4977  -24.2707  -46.0781 C.3       10 UNK         0.1400 
     23 CB          2.6467  -24.8208  -46.9360 C.3       10 UNK        -0.1800 
     24 N           2.0567  -23.5202  -44.9554 N.am      10 UNK        -0.5000 
     25 C           1.3516  -23.0270  -43.9290 C.2       9 UNK         0.5000 
     26 O           0.1362  -23.1988  -43.7939 O.2       9 UNK        -0.5000 
     27 CA          2.1484  -22.2101  -42.8863 C.3       9 UNK         0.1400 
     28 CB          3.4486  -21.5942  -43.4528 C.3       9 UNK        -0.1800 
     29 N           1.3664  -21.1582  -42.2359 N.am      9 UNK        -0.5000 
     30 C           0.6651  -20.1775  -42.8182 C.2       8 UNK         0.5000 
     31 O           0.4959  -20.0622  -44.0346 O.2       8 UNK        -0.5000 
     32 CA          0.1038  -19.1018  -41.8721 C.3       8 UNK         0.1400 
     33 CB         -0.6966  -19.6779  -40.6848 C.3       8 UNK        -0.1800 
     34 N           1.1568  -18.1762  -41.4456 N.am      8 UNK        -0.5000 
     35 C           2.2067  -18.4220  -40.6450 C.2       7 UNK         0.5000 
     36 O           2.3620  -19.4769  -40.0284 O.2       7 UNK        -0.5000 
     37 CA          3.2805  -17.3270  -40.5100 C.3       7 UNK         0.1400 
     38 CB          4.5911  -17.7544  -41.2002 C.3       7 UNK        -0.1800 
     39 N           2.8469  -16.0217  -41.0160 N.am      7 UNK        -0.5000 
     40 C           3.3827  -14.8507  -40.6495 C.2       6 UNK         0.5000 
     41 O           4.3163  -14.7391  -39.8538 O.2       6 UNK        -0.5000 
     42 CA          2.7566  -13.5869  -41.2612 C.3       6 UNK         0.1400 
     43 CB          3.3501  -13.2885  -42.6460 C.3       6 UNK        -0.1800 
     44 N           1.3038  -13.6963  -41.3745 N.am      6 UNK        -0.5000 
     45 C           0.4458  -13.4933  -40.3656 C.2       5 UNK         0.5000 
     46 O           0.8054  -13.2206  -39.2189 O.2       5 UNK        -0.5000 
     47 CA         -1.0620  -13.6222  -40.6812 C.3       5 UNK         0.1400 
     48 CB         -1.9133  -12.5940  -39.9080 C.3       5 UNK        -0.1800 
     49 N          -1.3851  -13.5893  -42.1135 N.am      5 UNK        -0.5000 
     50 C          -1.1846  -12.5974  -42.9941 C.2       4 UNK         0.5000 
     51 O          -0.6987  -11.5064  -42.6927 O.2       4 UNK        -0.5000 
     52 CA         -1.5575  -12.9002  -44.4645 C.3       4 UNK         0.1400 
     53 CB         -0.9267  -11.9014  -45.4520 C.3       4 UNK        -0.1800 
     54 N          -1.1824  -14.2569  -44.8768 N.am      4 UNK        -0.5000 
     55 C          -1.8503  -15.3811  -44.5868 C.2       3 UNK         0.5000 
     56 O          -2.8739  -15.4001  -43.9042 O.2       3 UNK        -0.5000 
     57 CA         -1.2701  -16.7092  -45.1051 C.3       3 UNK         0.1400 
     58 CB         -2.0717  -17.1985  -46.3213 C.3       3 UNK        -0.1800 
     59 N           0.1548  -16.6679  -45.4484 N.am      3 UNK        -0.5000 
     60 C           1.1682  -16.4704  -44.5905 C.2       2 UNK         0.5000 
     61 O           1.0246  -16.1704  -43.4022 O.2       2 UNK        -0.5000 
     62 CA          2.5882  -16.6396  -45.1605 C.3       2 UNK         0.1400 
     63 CB          3.0610  -18.0885  -44.9822 C.3       2 UNK        -0.1800 
     64 N           2.6704  -16.2706  -46.5751 N.am      2 UNK        -0.5000 
     65 C           2.6636  -15.0040  -47.0166 C.2       1 UNK         0.5000 
     66 O           2.6239  -14.0240  -46.2733 O.2       1 UNK        -0.5000 
     67 C          -1.4994  -21.0889  -47.2329 C.2       11 UNK         0.5000 
     68 O          -2.4486  -21.1915  -48.0087 O.2       11 UNK        -0.5000 
     69 N          -1.6400  -20.9605  -45.9040 N.am      12 UNK        -0.5000 
     70 CA         -2.9352  -20.9940  -45.2229 C.3       12 UNK         0.1400 
     71 CB         -2.7744  -20.5847  -43.7544 C.3       12 UNK        -0.1800 
     72 C          -3.6127  -22.3702  -45.3270 C.2       12 UNK         0.5000 
     73 O          -4.8133  -22.4320  -45.5994 O.2       12 UNK        -0.5000 
     74 N          -2.8198  -23.4388  -45.1467 N.am      13 UNK        -0.5000 
     75 CA         -3.2582  -24.8342  -45.2393 C.3       13 UNK         0.1400 
     76 CB         -2.1076  -25.7652  -44.8330 C.3       13 UNK        -0.1800 
     77 C          -3.7996  -25.2141  -46.6306 C.2       13 UNK         0.5000 
     78 O          -4.7474  -25.9953  -46.7174 O.2       13 UNK        -0.5000 
     79 N          -3.2453  -24.6067  -47.6886 N.am      14 UNK        -0.5000 
     80 CA         -3.6936  -24.6981  -49.0803 C.3       14 UNK         0.1400 
     81 CB         -2.5315  -24.2809  -50.0016 C.3       14 UNK        -0.1800 
     82 C          -4.9815  -23.8875  -49.3591 C.2       14 UNK         0.5000 
     83 O          -5.0770  -23.2273  -50.3958 O.2       14 UNK        -0.5000 
     84 N          -5.9510  -23.9555  -48.4357 N.am      15 UNK        -0.5000 
     85 CA         -7.2681  -23.3138  -48.4610 C.3       15 UNK         0.1400 
     86 CB         -8.1613  -23.9919  -49.5212 C.3       15 UNK        -0.1800 
     87 C          -7.1818  -21.7838  -48.6335 C.2       15 UNK         0.5000 
     88 O          -7.8442  -21.2261  -49.5085 O.2       15 UNK        -0.5000 
     89 N          -6.3237  -21.1391  -47.8266 N.am      16 UNK        -0.5000 
     90 CA         -5.9725  -19.7124  -47.9015 C.3       16 UNK         0.1400 
     91 CB         -7.1610  -18.8282  -47.4713 C.3       16 UNK        -0.1800 
     92 C          -5.3911  -19.3286  -49.2807 C.2       16 UNK         0.5000 
     93 O          -5.7715  -18.3147  -49.8680 O.2       16 UNK        -0.5000 
     94 N          -4.4944  -20.1937  -49.7690 N.am      17 UNK        -0.5000 
     95 CA         -3.7803  -20.1625  -51.0438 C.3       17 UNK         0.1400 
     96 CB         -2.8796  -18.9205  -51.1359 C.3       17 UNK        -0.1800 
     97 C          -4.6611  -20.3589  -52.2968 C.2       17 UNK         0.5000 
     98 O          -4.1686  -20.1776  -53.4129 O.2       17 UNK        -0.5000 
     99 N          -5.9206  -20.7839  -52.1215 N.am      18 UNK        -0.5000 
    100 CA        -6.8214  -21.1365  -53.2195 C.3       18 UNK         0.1400 
    101 CB        -8.2653  -21.2326  -52.7087 C.3       18 UNK        -0.1800 
    102 C         -6.4026  -22.4438  -53.9147 C.2       18 UNK         0.5000 
    103 O         -6.4721  -22.5220  -55.1411 O.2       18 UNK        -0.5000 
    104 N         -5.9231  -23.4274  -53.1374 N.am      19 UNK        -0.5000 
    105 CA        -5.3901  -24.6917  -53.6564 C.3       19 UNK         0.1400 
    106 CB        -5.4493  -25.7708  -52.5652 C.3       19 UNK        -0.1800 
    107 C         -3.9585  -24.5362  -54.2063 C.2       19 UNK         0.5000 
    108 O         -3.5338  -25.3483  -55.0281 O.2       19 UNK        -0.5000 
    109 N         -3.2587  -23.4732  -53.7810 N.am      20 UNK        -0.5000 
    110 CA        -1.9824  -23.0264  -54.3476 C.3       20 UNK         0.1400 
    111 CB        -1.2442  -22.1601  -53.3126 C.3       20 UNK        -0.1800 
    112 C         -2.1601  -22.2641  -55.6807 C.2       20 UNK         0.5000 
    113 O         -1.1641  -21.9841  -56.3482 O.2       20 UNK        -0.5000 
    114 N         -3.4162  -21.9571  -56.0434 N.am      21 UNK        -0.5000 
    115 CA        -3.8681  -21.2730  -57.2568 C.3       21 UNK         0.1400 
    116 CB        -3.5197  -22.0919  -58.5179 C.3       21 UNK        -0.1800 
    117 C         -3.4165  -19.8010  -57.3411 C.2       21 UNK         0.5000 
    118 O         -3.2189  -19.2828  -58.4424 O.2       21 UNK        -0.5000 
    119 N         -3.2805  -19.1426  -56.1834 N.am      22 UNK        -0.5000 
    120 CA        -3.0181  -17.7002  -56.0855 C.3       22 UNK         0.1400 
    121 C         -4.2696  -16.8551  -56.4556 C.2       22 UNK         0.5000 
    122 N         -4.0793  -15.6839  -57.0478 N.am      22 UNK        -0.7600 
    123 O         -5.4074  -17.2296  -56.1787 O.2       22 UNK        -0.5000 
    124 C124       -2.4982  -17.3108  -54.6827 C.3       23 UNK        -0.0398 
    125 S125       -0.8544  -18.0161  -54.3269 S.3       23 UNK        -0.2404 
    126 C126       -0.3588  -16.9199  -52.9633 C.3       23 UNK        -0.0205 
    127 H127       -0.0312  -14.1843  -47.4257 H         1 UNK         0.0600 
    128 H128       -0.0156  -13.4285  -49.0264 H         1 UNK         0.0600 
    129 H129       -1.4111  -14.3627  -48.5005 H         1 UNK         0.0600 
    130 H130        1.9958  -16.4983  -49.6362 H         1 UNK         0.3000 
    131 H131        2.3186  -13.7692  -48.7220 H         1 UNK         0.0600 
    132 H132        4.7707  -14.3976  -48.5843 H         1 UNK         0.0800 
    133 H133        4.3667  -16.0112  -49.1007 H         1 UNK         0.0800 
    134 H134        5.3532  -16.3752  -51.4413 H         1 UNK         0.0800 
    135 H135        4.6523  -15.6333  -52.8581 H         1 UNK         0.0800 
    136 H136        2.0187  -15.5921  -52.9894 H         1 UNK         0.1150 
    137 H137        0.1656  -19.1557  -51.4881 H         1 UNK         0.1150 
    138 H138        4.2494  -18.2896  -50.5174 H         1 UNK         0.1150 
    139 H139        1.5034  -20.8310  -50.3651 H         1 UNK         0.0800 
    140 H140        3.2377  -20.6713  -50.3955 H         1 UNK         0.0800 
    141 H141        0.4970  -19.2329  -46.9590 H         1 UNK         0.0800 
    142 H142        0.0512  -19.1695  -48.6465 H         1 UNK         0.0800 
    143 H143       -0.1355  -21.5907  -48.7858 H         1 UNK         0.0600 
    144 H144        1.5081  -21.7224  -46.4676 H         1 UNK         0.3000 
    145 H145        0.9405  -25.1161  -45.6722 H         1 UNK         0.0600 
    146 H146        3.2991  -25.4713  -46.3531 H         1 UNK         0.0600 
    147 H147        2.2629  -25.4107  -47.7696 H         1 UNK         0.0600 
    148 H148        3.2565  -24.0192  -47.3549 H         1 UNK         0.0600 
    149 H149        3.0496  -23.3401  -44.9867 H         1 UNK         0.3000 
    150 H150        2.4253  -22.9114  -42.0983 H         1 UNK         0.0600 
    151 H151        4.1678  -22.3630  -43.7368 H         1 UNK         0.0600 
    152 H152        3.9398  -20.9649  -42.7099 H         1 UNK         0.0600 
    153 H153        3.2539  -20.9760  -44.3298 H         1 UNK         0.0600 
    154 H154        1.4694  -21.1021  -41.2304 H         1 UNK         0.3000 
    155 H155       -0.5913  -18.5017  -42.4571 H         1 UNK         0.0600 
    156 H156       -1.1290  -18.8779  -40.0841 H         1 UNK         0.0600 
    157 H157       -0.0907  -20.2961  -40.0233 H         1 UNK         0.0600 
    158 H158       -1.5212  -20.2979  -41.0366 H         1 UNK         0.0600 
    159 H159        1.1407  -17.3052  -41.9644 H         1 UNK         0.3000 
    160 H160        3.4726  -17.2327  -39.4390 H         1 UNK         0.0600 
    161 H161        4.4932  -17.7580  -42.2849 H         1 UNK         0.0600 
    162 H162        4.8932  -18.7565  -40.8931 H         1 UNK         0.0600 
    163 H163        5.4104  -17.0825  -40.9448 H         1 UNK         0.0600 
    164 H164        2.0902  -16.0070  -41.6880 H         1 UNK         0.3000 
    165 H165        2.9982  -12.7462  -40.6070 H         1 UNK         0.0600 
    166 H166        3.0911  -14.0580  -43.3713 H         1 UNK         0.0600 
    167 H167        2.9858  -12.3359  -43.0312 H         1 UNK         0.0600 
    168 H168        4.4382  -13.2274  -42.6026 H         1 UNK         0.0600 
    169 H169        0.9309  -13.9487  -42.2785 H         1 UNK         0.3000 
    170 H170       -1.3520  -14.6148  -40.3340 H         1 UNK         0.0600 
    171 H171       -1.7979  -12.7187  -38.8307 H         1 UNK         0.0600 
    172 H172       -1.6292  -11.5694  -40.1494 H         1 UNK         0.0600 
    173 H173       -2.9733  -12.7106  -40.1334 H         1 UNK         0.0600 
    174 H174       -1.8211  -14.4285  -42.4805 H         1 UNK         0.3000 
    175 H175       -2.6422  -12.8003  -44.5402 H         1 UNK         0.0600 
    176 H176        0.1630  -11.9471  -45.4281 H         1 UNK         0.0600 
    177 H177       -1.2490  -12.1010  -46.4740 H         1 UNK         0.0600 
    178 H178       -1.2201  -10.8769  -45.2197 H         1 UNK         0.0600 
    179 H179       -0.3160  -14.3424  -45.3860 H         1 UNK         0.3000 
    180 H180       -1.3925  -17.4432  -44.3092 H         1 UNK         0.0600 
    181 H181       -3.1246  -17.3292  -46.0683 H         1 UNK         0.0600 
    182 H182       -2.0216  -16.4918  -47.1495 H         1 UNK         0.0600 
    183 H183       -1.7079  -18.1592  -46.6799 H         1 UNK         0.0600 
    184 H184        0.3869  -16.8889  -46.4040 H         1 UNK         0.3000 
    185 H185        3.2606  -15.9983  -44.5889 H         1 UNK         0.0600 
    186 H186        4.0952  -18.2115  -45.3038 H         1 UNK         0.0600 
    187 H187        3.0054  -18.3937  -43.9377 H         1 UNK         0.0600 
    188 H188        2.4476  -18.7872  -45.5492 H         1 UNK         0.0600 
    189 H189        2.7026  -17.0269  -47.2440 H         1 UNK         0.3000 
    190 H190       -0.8146  -20.8735  -45.3177 H         1 UNK         0.3000 
    191 H191       -3.5851  -20.2611  -45.7016 H         1 UNK         0.0600 
    192 H192       -3.7345  -20.5983  -43.2369 H         1 UNK         0.0600 
    193 H193       -2.3782  -19.5742  -43.6715 H         1 UNK         0.0600 
    194 H194       -2.1054  -21.2621  -43.2230 H         1 UNK         0.0600 
    195 H195       -1.8463  -23.2842  -44.9131 H         1 UNK         0.3000 
    196 H196       -4.0708  -24.9667  -44.5222 H         1 UNK         0.0600 
    197 H197       -2.4459  -26.8009  -44.7828 H         1 UNK         0.0600 
    198 H198       -1.7103  -25.5038  -43.8519 H         1 UNK         0.0600 
    199 H199       -1.2895  -25.7256  -45.5506 H         1 UNK         0.0600 
    200 H200       -2.4344  -24.0191  -47.5272 H         1 UNK         0.3000 
    201 H201       -3.9281  -25.7423  -49.2951 H         1 UNK         0.0600 
    202 H202       -1.6514  -24.9002  -49.8288 H         1 UNK         0.0600 
    203 H203       -2.2448  -23.2417  -49.8392 H         1 UNK         0.0600 
    204 H204       -2.7943  -24.3889  -51.0535 H         1 UNK         0.0600 
    205 H205       -5.7649  -24.5423  -47.6296 H         1 UNK         0.3000 
    206 H206       -7.7202  -23.4874  -47.4836 H         1 UNK         0.0600 
    207 H207       -8.2547  -25.0607  -49.3296 H         1 UNK         0.0600 
    208 H208       -9.1681  -23.5727  -49.5140 H         1 UNK         0.0600 
    209 H209       -7.7610  -23.8691  -50.5277 H         1 UNK         0.0600 
    210 H210       -5.8160  -21.6841  -47.1346 H         1 UNK         0.3000 
    211 H211       -5.1707  -19.5508  -47.1820 H         1 UNK         0.0600 
    212 H212       -7.9926  -18.8937  -48.1734 H         1 UNK         0.0600 
    213 H213       -6.8652  -17.7801  -47.4131 H         1 UNK         0.0600 
    214 H214       -7.5294  -19.1161  -46.4868 H         1 UNK         0.0600 
    215 H215       -4.2279  -20.9670  -49.1708 H         1 UNK         0.3000 
    216 H216       -3.1230  -21.0323  -51.0148 H         1 UNK         0.0600 
    217 H217       -3.4567  -18.0054  -51.2696 H         1 UNK         0.0600 
    218 H218       -2.2036  -19.0126  -51.9827 H         1 UNK         0.0600 
    219 H219       -2.2638  -18.8059  -50.2433 H         1 UNK         0.0600 
    220 H220       -6.2595  -20.9381  -51.1797 H         1 UNK         0.3000 
    221 H221       -6.7811  -20.3351  -53.9606 H         1 UNK         0.0600 
    222 H222       -8.3903  -22.0530  -52.0024 H         1 UNK         0.0600 
    223 H223       -8.5708  -20.3120  -52.2111 H         1 UNK         0.0600 
    224 H224       -8.9584  -21.4039  -53.5331 H         1 UNK         0.0600 
    225 H225       -5.8342  -23.2739  -52.1353 H         1 UNK         0.3000 
    226 H226       -6.0255  -25.0215  -54.4813 H         1 UNK         0.0600 
    227 H227       -6.4450  -25.8395  -52.1267 H         1 UNK         0.0600 
    228 H228       -5.2066  -26.7504  -52.9787 H         1 UNK         0.0600 
    229 H229       -4.7400  -25.5764  -51.7636 H         1 UNK         0.0600 
    230 H230       -3.6931  -22.8610  -53.1069 H         1 UNK         0.3000 
    231 H231       -1.3665  -23.9046  -54.5521 H         1 UNK         0.0600 
    232 H232       -1.7538  -21.2138  -53.1378 H         1 UNK         0.0600 
    233 H233       -1.1458  -22.6750  -52.3569 H         1 UNK         0.0600 
    234 H234       -0.2373  -21.9205  -53.6566 H         1 UNK         0.0600 
    235 H235       -4.1580  -22.2174  -55.4084 H         1 UNK         0.3000 
    236 H236       -4.9561  -21.2397  -57.1864 H         1 UNK         0.0600 
    237 H237       -3.8616  -23.1228  -58.4251 H         1 UNK         0.0600 
    238 H238       -3.9996  -21.6713  -59.4021 H         1 UNK         0.0600 
    239 H239       -2.4462  -22.1092  -58.7075 H         1 UNK         0.0600 
    240 H240       -3.4904  -19.6192  -55.3128 H         1 UNK         0.3000 
    241 H241       -2.2359  -17.4571  -56.8078 H         1 UNK         0.0600 
    242 H242       -3.1564  -15.3517  -57.2831 H         1 UNK         0.3800 
    243 H243       -4.8807  -15.1184  -57.2822 H         1 UNK         0.3800 
    244 H244       -3.1991  -17.6293  -53.9096 H         1 UNK         0.0800 
    245 H245       -2.4223  -16.2250  -54.5981 H         1 UNK         0.0800 
    246 H246       -0.2901  -15.8979  -53.3391 H         1 UNK         0.0800 
    247 H247       -1.1325  -16.9070  -52.1953 H         1 UNK         0.0800 
@<TRIPOS>BOND
     1    1    2 1    
     2    1  127 1    
     3    1  128 1    
     4    1  129 1    
     5    2    3 2    
     6    2    4 am   BACKBONE|DICT|INTERRES
     7    4    5 1    
     8    4  130 1    
     9    5    6 1    
    10    5   65 1    
    11    5  131 1    
    12    6    7 1    
    13    6  132 1    
    14    6  133 1    
    15    7    8 1    
    16    8    9 1    
    17    8  134 1    
    18    8  135 1    
    19    9   10 ar   
    20    9   14 ar   
    21   10   11 ar   
    22   10  136 1    
    23   11   12 ar   
    24   11  126 1    
    25   12   13 ar   
    26   12  137 1    
    27   13   14 ar   
    28   13   15 1    
    29   14  138 1    
    30   15   16 1    
    31   15  139 1    
    32   15  140 1    
    33   16   17 1    
    34   17   18 1    
    35   17  141 1    
    36   17  142 1    
    37   18   19 1    
    38   18   67 1    
    39   18  143 1    
    40   19   20 am   BACKBONE|DICT|INTERRES
    41   19  144 1    
    42   20   21 2    
    43   20   22 1    
    44   22   23 1    
    45   22   24 1    
    46   22  145 1    
    47   23  146 1    
    48   23  147 1    
    49   23  148 1    
    50   24   25 am   BACKBONE|DICT|INTERRES
    51   24  149 1    
    52   25   26 2    
    53   25   27 1    
    54   27   28 1    
    55   27   29 1    
    56   27  150 1    
    57   28  151 1    
    58   28  152 1    
    59   28  153 1    
    60   29   30 am   BACKBONE|DICT|INTERRES
    61   29  154 1    
    62   30   31 2    
    63   30   32 1    
    64   32   33 1    
    65   32   34 1    
    66   32  155 1    
    67   33  156 1    
    68   33  157 1    
    69   33  158 1    
    70   34   35 am   BACKBONE|DICT|INTERRES
    71   34  159 1    
    72   35   36 2    
    73   35   37 1    
    74   37   38 1    
    75   37   39 1    
    76   37  160 1    
    77   38  161 1    
    78   38  162 1    
    79   38  163 1    
    80   39   40 am   BACKBONE|DICT|INTERRES
    81   39  164 1    
    82   40   41 2    
    83   40   42 1    
    84   42   43 1    
    85   42   44 1    
    86   42  165 1    
    87   43  166 1    
    88   43  167 1    
    89   43  168 1    
    90   44   45 am   BACKBONE|DICT|INTERRES
    91   44  169 1    
    92   45   46 2    
    93   45   47 1    
    94   47   48 1    
    95   47   49 1    
    96   47  170 1    
    97   48  171 1    
    98   48  172 1    
    99   48  173 1    
   100   49   50 am   BACKBONE|DICT|INTERRES
   101   49  174 1    
   102   50   51 2    
   103   50   52 1    
   104   52   53 1    
   105   52   54 1    
   106   52  175 1    
   107   53  176 1    
   108   53  177 1    
   109   53  178 1    
   110   54   55 am   BACKBONE|DICT|INTERRES
   111   54  179 1    
   112   55   56 2    
   113   55   57 1    
   114   57   58 1    
   115   57   59 1    
   116   57  180 1    
   117   58  181 1    
   118   58  182 1    
   119   58  183 1    
   120   59   60 am   BACKBONE|DICT|INTERRES
   121   59  184 1    
   122   60   61 2    
   123   60   62 1    
   124   62   63 1    
   125   62   64 1    
   126   62  185 1    
   127   63  186 1    
   128   63  187 1    
   129   63  188 1    
   130   64   65 am   BACKBONE|DICT|INTERRES
   131   64  189 1    
   132   65   66 2    
   133   67   68 2    
   134   67   69 am   BACKBONE|DICT|INTERRES
   135   69   70 1    
   136   69  190 1    
   137   70   71 1    
   138   70   72 1    
   139   70  191 1    
   140   71  192 1    
   141   71  193 1    
   142   71  194 1    
   143   72   73 2    
   144   72   74 am   BACKBONE|DICT|INTERRES
   145   74   75 1    
   146   74  195 1    
   147   75   76 1    
   148   75   77 1    
   149   75  196 1    
   150   76  197 1    
   151   76  198 1    
   152   76  199 1    
   153   77   78 2    
   154   77   79 am   BACKBONE|DICT|INTERRES
   155   79   80 1    
   156   79  200 1    
   157   80   81 1    
   158   80   82 1    
   159   80  201 1    
   160   81  202 1    
   161   81  203 1    
   162   81  204 1    
   163   82   83 2    
   164   82   84 am   BACKBONE|DICT|INTERRES
   165   84   85 1    
   166   84  205 1    
   167   85   86 1    
   168   85   87 1    
   169   85  206 1    
   170   86  207 1    
   171   86  208 1    
   172   86  209 1    
   173   87   88 2    
   174   87   89 am   BACKBONE|DICT|INTERRES
   175   89   90 1    
   176   89  210 1    
   177   90   91 1    
   178   90   92 1    
   179   90  211 1    
   180   91  212 1    
   181   91  213 1    
   182   91  214 1    
   183   92   93 2    
   184   92   94 am   BACKBONE|DICT|INTERRES
   185   94   95 1    
   186   94  215 1    
   187   95   96 1    
   188   95   97 1    
   189   95  216 1    
   190   96  217 1    
   191   96  218 1    
   192   96  219 1    
   193   97   98 2    
   194   97   99 am   BACKBONE|DICT|INTERRES
   195   99  100 1    
   196   99  220 1    
   197  100  101 1    
   198  100  102 1    
   199  100  221 1    
   200  101  222 1    
   201  101  223 1    
   202  101  224 1    
   203  102  103 2    
   204  102  104 am   BACKBONE|DICT|INTERRES
   205  104  105 1    
   206  104  225 1    
   207  105  106 1    
   208  105  107 1    
   209  105  226 1    
   210  106  227 1    
   211  106  228 1    
   212  106  229 1    
   213  107  108 2    
   214  107  109 am   BACKBONE|DICT|INTERRES
   215  109  110 1    
   216  109  230 1    
   217  110  111 1    
   218  110  112 1    
   219  110  231 1    
   220  111  232 1    
   221  111  233 1    
   222  111  234 1    
   223  112  113 2    
   224  112  114 am   BACKBONE|DICT|INTERRES
   225  114  115 1    
   226  114  235 1    
   227  115  116 1    
   228  115  117 1    
   229  115  236 1    
   230  116  237 1    
   231  116  238 1    
   232  116  239 1    
   233  117  118 2    
   234  117  119 am   BACKBONE|DICT|INTERRES
   235  119  120 1    
   236  119  240 1    
   237  120  121 1    
   238  120  124 1    
   239  120  241 1    
   240  121  122 am   BACKBONE|DICT|INTERRES
   241  121  123 2    
   242  122  242 1    
   243  122  243 1    
   244  124  125 1    
   245  124  244 1    
   246  124  245 1    
   247  125  126 1    
   248  126  246 1    
   249  126  247 1    
@<TRIPOS>SUBSTRUCTURE
     1 UNK         1 GROUP             0       ****    0 ROOT    
