@<TRIPOS>MOLECULE
3R540
247   249    1
SMALL
USER_CHARGES


@<TRIPOS>ATOM
      1 CA          5.4827  -11.1782  -49.7907 C.3       0 UNK        -0.1800 
      2 C           4.6962  -11.9042  -48.7088 C.2       0 UNK         0.5000 
      3 O           4.7737  -11.5319  -47.5382 O.2       0 UNK        -0.5000 
      4 N           3.9194  -12.9244  -49.0938 N.am      1 UNK        -0.5000 
      5 CA          3.0973  -13.7711  -48.2151 C.3       1 UNK         0.1400 
      6 C6          2.9295  -15.1966  -48.8206 C.3       23 UNK        -0.0398 
      7 S7          3.0875  -16.5315  -47.5816 S.3       23 UNK        -0.2404 
      8 C8          4.2997  -17.6510  -48.3647 C.3       23 UNK        -0.0205 
      9 C9          3.6561  -18.6589  -49.3134 C.ar      23 UNK        -0.0193 
     10 C10         2.9732  -18.2307  -50.4557 C.ar      23 UNK        -0.1150 
     11 C11         2.3683  -19.1481  -51.3182 C.ar      23 UNK        -0.0193 
     12 C12         2.4968  -20.5162  -51.0631 C.ar      23 UNK        -0.1150 
     13 C13         3.2090  -20.9643  -49.9455 C.ar      23 UNK        -0.0193 
     14 C14         3.7691  -20.0311  -49.0658 C.ar      23 UNK        -0.1150 
     15 C15         3.4077  -22.4561  -49.7102 C.3       23 UNK        -0.0205 
     16 S16         1.8690  -23.3031  -49.2381 S.3       23 UNK        -0.2404 
     17 C17         1.4928  -22.5155  -47.6362 C.3       23 UNK        -0.0398 
     18 CA          0.8112  -23.4698  -46.6270 C.3       11 UNK         0.1400 
     19 N           0.8974  -22.9278  -45.2672 N.am      11 UNK        -0.5000 
     20 C           0.4439  -23.4873  -44.1351 C.2       10 UNK         0.5000 
     21 O          -0.2168  -24.5259  -44.1074 O.2       10 UNK        -0.5000 
     22 CA          0.8059  -22.7792  -42.8110 C.3       10 UNK         0.1400 
     23 CB          1.4952  -23.7533  -41.8411 C.3       10 UNK        -0.1800 
     24 N           1.6924  -21.6305  -43.0284 N.am      10 UNK        -0.5000 
     25 C           1.2769  -20.3709  -43.1979 C.2       9 UNK         0.5000 
     26 O           0.1066  -20.0080  -43.0607 O.2       9 UNK        -0.5000 
     27 CA          2.3502  -19.3607  -43.6278 C.3       9 UNK         0.1400 
     28 CB          2.8390  -19.6329  -45.0647 C.3       9 UNK        -0.1800 
     29 N           1.7761  -18.0264  -43.5591 N.am      9 UNK        -0.5000 
     30 C           2.4433  -16.8868  -43.3593 C.2       8 UNK         0.5000 
     31 O           3.6657  -16.8251  -43.2222 O.2       8 UNK        -0.5000 
     32 CA          1.6079  -15.5940  -43.3066 C.3       8 UNK         0.1400 
     33 CB          1.7940  -14.7926  -44.6005 C.3       8 UNK        -0.1800 
     34 N           0.1761  -15.8374  -43.1255 N.am      8 UNK        -0.5000 
     35 C          -0.4119  -16.1600  -41.9657 C.2       7 UNK         0.5000 
     36 O           0.1948  -16.2771  -40.9008 O.2       7 UNK        -0.5000 
     37 CA         -1.9258  -16.4156  -42.0115 C.3       7 UNK         0.1400 
     38 CB         -2.6974  -15.0860  -42.0442 C.3       7 UNK        -0.1800 
     39 N          -2.2795  -17.2025  -43.1928 N.am      7 UNK        -0.5000 
     40 C          -2.8337  -18.4236  -43.1715 C.2       6 UNK         0.5000 
     41 O          -3.1395  -19.0164  -42.1361 O.2       6 UNK        -0.5000 
     42 CA         -3.1261  -19.0963  -44.5281 C.3       6 UNK         0.1400 
     43 CB         -4.6338  -19.0290  -44.8282 C.3       6 UNK        -0.1800 
     44 N          -2.4107  -18.4464  -45.6228 N.am      6 UNK        -0.5000 
     45 C          -1.2721  -18.8652  -46.1884 C.2       5 UNK         0.5000 
     46 O          -0.7931  -19.9877  -46.0153 O.2       5 UNK        -0.5000 
     47 CA         -0.5360  -17.8433  -47.0885 C.3       5 UNK         0.1400 
     48 CB          0.0084  -18.4823  -48.3717 C.3       5 UNK        -0.1800 
     49 N          -1.3389  -16.6737  -47.4647 N.am      5 UNK        -0.5000 
     50 C          -1.6606  -15.6506  -46.6661 C.2       4 UNK         0.5000 
     51 O          -1.3574  -15.5934  -45.4708 O.2       4 UNK        -0.5000 
     52 CA         -2.5627  -14.5730  -47.2727 C.3       4 UNK         0.1400 
     53 CB         -4.0414  -14.9777  -47.1202 C.3       4 UNK        -0.1800 
     54 N          -2.3130  -13.3100  -46.5892 N.am      4 UNK        -0.5000 
     55 C          -2.6403  -12.1026  -47.0605 C.2       3 UNK         0.5000 
     56 O          -3.2305  -11.9206  -48.1253 O.2       3 UNK        -0.5000 
     57 CA         -2.2217  -10.8808  -46.2206 C.3       3 UNK         0.1400 
     58 CB         -3.3912  -10.4277  -45.3334 C.3       3 UNK        -0.1800 
     59 N          -1.0540  -11.1245  -45.3675 N.am      3 UNK        -0.5000 
     60 C           0.2360  -11.1757  -45.7325 C.2       2 UNK         0.5000 
     61 O           1.1227  -11.3411  -44.8950 O.2       2 UNK        -0.5000 
     62 CA          0.6441  -10.9566  -47.2066 C.3       2 UNK         0.1400 
     63 CB          1.0070   -9.4833  -47.4491 C.3       2 UNK        -0.1800 
     64 N           1.7966  -11.7832  -47.5570 N.am      2 UNK        -0.5000 
     65 C           1.7509  -13.0874  -47.8571 C.2       1 UNK         0.5000 
     66 O           0.6982  -13.7242  -47.8935 O.2       1 UNK        -0.5000 
     67 C          -0.6255  -23.8352  -47.0583 C.2       11 UNK         0.5000 
     68 O          -0.8106  -24.8366  -47.7496 O.2       11 UNK        -0.5000 
     69 N          -1.6202  -23.0667  -46.5925 N.am      12 UNK        -0.5000 
     70 CA         -3.0495  -23.2951  -46.8290 C.3       12 UNK         0.1400 
     71 CB         -3.8413  -22.1712  -46.1576 C.3       12 UNK        -0.1800 
     72 C          -3.5845  -24.6655  -46.3650 C.2       12 UNK         0.5000 
     73 O          -4.6086  -25.1151  -46.8793 O.2       12 UNK        -0.5000 
     74 N          -2.8934  -25.3127  -45.4153 N.am      13 UNK        -0.5000 
     75 CA         -3.2050  -26.6684  -44.9619 C.3       13 UNK         0.1400 
     76 CB         -2.5349  -26.9083  -43.6002 C.3       13 UNK        -0.1800 
     77 C          -2.7770  -27.7543  -45.9705 C.2       13 UNK         0.5000 
     78 O          -3.2964  -28.8692  -45.9009 O.2       13 UNK        -0.5000 
     79 N          -1.8391  -27.4261  -46.8699 N.am      14 UNK        -0.5000 
     80 CA         -1.2803  -28.3351  -47.8676 C.3       14 UNK         0.1400 
     81 CB          0.2544  -28.2723  -47.7962 C.3       14 UNK        -0.1800 
     82 C          -1.7661  -27.9908  -49.2842 C.2       14 UNK         0.5000 
     83 O          -2.1462  -28.8987  -50.0251 O.2       14 UNK        -0.5000 
     84 N          -1.7346  -26.7015  -49.6430 N.am      15 UNK        -0.5000 
     85 CA         -2.0547  -26.1986  -50.9742 C.3       15 UNK         0.1400 
     86 CB         -0.8924  -25.3186  -51.4635 C.3       15 UNK        -0.1800 
     87 C          -3.3557  -25.3880  -50.9374 C.2       15 UNK         0.5000 
     88 O          -3.4569  -24.4211  -50.1802 O.2       15 UNK        -0.5000 
     89 N          -4.3060  -25.7475  -51.8101 N.am      16 UNK        -0.5000 
     90 CA         -5.5660  -25.0232  -52.0056 C.3       16 UNK         0.1400 
     91 CB         -6.4951  -25.8539  -52.9029 C.3       16 UNK        -0.1800 
     92 C          -5.3642  -23.6130  -52.5942 C.2       16 UNK         0.5000 
     93 O          -6.1597  -22.7177  -52.3127 O.2       16 UNK        -0.5000 
     94 N          -4.2824  -23.4273  -53.3654 N.am      17 UNK        -0.5000 
     95 CA         -3.8586  -22.1349  -53.9036 C.3       17 UNK         0.1400 
     96 CB         -2.6851  -22.3401  -54.8730 C.3       17 UNK        -0.1800 
     97 C          -3.4768  -21.1376  -52.7967 C.2       17 UNK         0.5000 
     98 O          -3.8583  -19.9725  -52.8753 O.2       17 UNK        -0.5000 
     99 N          -2.7760  -21.6181  -51.7610 N.am      18 UNK        -0.5000 
    100 CA        -2.3870  -20.8240  -50.5956 C.3       18 UNK         0.1400 
    101 CB        -1.3313  -21.5854  -49.7890 C.3       18 UNK        -0.1800 
    102 C         -3.5855  -20.4308  -49.7154 C.2       18 UNK         0.5000 
    103 O         -3.6124  -19.3167  -49.1916 O.2       18 UNK        -0.5000 
    104 N         -4.5852  -21.3203  -49.6230 N.am      19 UNK        -0.5000 
    105 CA        -5.8742  -21.0502  -48.9787 C.3       19 UNK         0.1400 
    106 CB        -6.6605  -22.3620  -48.8363 C.3       19 UNK        -0.1800 
    107 C         -6.7027  -19.9859  -49.7279 C.2       19 UNK         0.5000 
    108 O         -7.4494  -19.2398  -49.0953 O.2       19 UNK        -0.5000 
    109 N         -6.5111  -19.8993  -51.0509 N.am      20 UNK        -0.5000 
    110 CA        -7.0535  -18.8662  -51.9350 C.3       20 UNK         0.1400 
    111 CB        -7.2928  -19.4851  -53.3234 C.3       20 UNK        -0.1800 
    112 C         -6.1528  -17.6105  -52.0158 C.2       20 UNK         0.5000 
    113 O         -6.3295  -16.7991  -52.9262 O.2       20 UNK        -0.5000 
    114 N         -5.2008  -17.4696  -51.0793 N.am      21 UNK        -0.5000 
    115 CA        -4.2593  -16.3558  -50.9176 C.3       21 UNK         0.1400 
    116 CB        -5.0069  -15.0483  -50.5821 C.3       21 UNK        -0.1800 
    117 C         -3.2663  -16.1968  -52.0885 C.2       21 UNK         0.5000 
    118 O         -2.7873  -15.0897  -52.3384 O.2       21 UNK        -0.5000 
    119 N         -2.9609  -17.3091  -52.7684 N.am      22 UNK        -0.5000 
    120 CA        -2.0067  -17.4305  -53.8846 C.3       22 UNK         0.1400 
    121 C         -2.4871  -16.7744  -55.2145 C.2       22 UNK         0.5000 
    122 N         -3.7595  -16.4205  -55.3568 N.am      22 UNK        -0.7600 
    123 O         -1.7054  -16.6111  -56.1476 O.2       22 UNK        -0.5000 
    124 C124       -0.5509  -17.0330  -53.5038 C.3       23 UNK        -0.0398 
    125 S125        0.0334  -17.8516  -51.9775 S.3       23 UNK        -0.2404 
    126 C126        1.5795  -18.6435  -52.5175 C.3       23 UNK        -0.0205 
    127 H127        5.3128  -11.6122  -50.7763 H         1 UNK         0.0600 
    128 H128        6.5501  -11.2295  -49.5762 H         1 UNK         0.0600 
    129 H129        5.1908  -10.1286  -49.8261 H         1 UNK         0.0600 
    130 H130        3.8650  -13.1440  -50.0784 H         1 UNK         0.3000 
    131 H131        3.6388  -13.8701  -47.2718 H         1 UNK         0.0600 
    132 H132        3.6996  -15.3592  -49.5746 H         1 UNK         0.0800 
    133 H133        1.9867  -15.3170  -49.3571 H         1 UNK         0.0800 
    134 H134        5.0610  -17.0792  -48.8962 H         1 UNK         0.0800 
    135 H135        4.8274  -18.1754  -47.5668 H         1 UNK         0.0800 
    136 H136        2.8815  -17.1781  -50.6713 H         1 UNK         0.1150 
    137 H137        2.0478  -21.2352  -51.7338 H         1 UNK         0.1150 
    138 H138        4.3129  -20.3750  -48.1972 H         1 UNK         0.1150 
    139 H139        3.7887  -22.9104  -50.6258 H         1 UNK         0.0800 
    140 H140        4.1665  -22.6338  -48.9465 H         1 UNK         0.0800 
    141 H141        0.8885  -21.6247  -47.8049 H         1 UNK         0.0800 
    142 H142        2.4337  -22.1586  -47.2156 H         1 UNK         0.0800 
    143 H143        1.3787  -24.4027  -46.6107 H         1 UNK         0.0600 
    144 H144        1.3760  -22.0457  -45.1767 H         1 UNK         0.3000 
    145 H145       -0.1296  -22.4508  -42.3534 H         1 UNK         0.0600 
    146 H146        1.7346  -23.2645  -40.8966 H         1 UNK         0.0600 
    147 H147        2.4214  -24.1502  -42.2585 H         1 UNK         0.0600 
    148 H148        0.8492  -24.6014  -41.6099 H         1 UNK         0.0600 
    149 H149        2.6746  -21.8432  -43.1349 H         1 UNK         0.3000 
    150 H150        3.1869  -19.4351  -42.9301 H         1 UNK         0.0600 
    151 H151        3.3068  -20.6139  -45.1489 H         1 UNK         0.0600 
    152 H152        3.5833  -18.8983  -45.3722 H         1 UNK         0.0600 
    153 H153        2.0202  -19.5917  -45.7843 H         1 UNK         0.0600 
    154 H154        0.7645  -18.0113  -43.5731 H         1 UNK         0.3000 
    155 H155        1.9731  -14.9930  -42.4714 H         1 UNK         0.0600 
    156 H156        2.8420  -14.5419  -44.7680 H         1 UNK         0.0600 
    157 H157        1.2344  -13.8613  -44.5604 H         1 UNK         0.0600 
    158 H158        1.4405  -15.3481  -45.4690 H         1 UNK         0.0600 
    159 H159       -0.3958  -15.7309  -43.9601 H         1 UNK         0.3000 
    160 H160       -2.1972  -16.9451  -41.0960 H         1 UNK         0.0600 
    161 H161       -2.4738  -14.5091  -42.9427 H         1 UNK         0.0600 
    162 H162       -2.4454  -14.4662  -41.1828 H         1 UNK         0.0600 
    163 H163       -3.7736  -15.2574  -42.0179 H         1 UNK         0.0600 
    164 H164       -2.0416  -16.7863  -44.0851 H         1 UNK         0.3000 
    165 H165       -2.8148  -20.1377  -44.4446 H         1 UNK         0.0600 
    166 H166       -4.8686  -19.4361  -45.8110 H         1 UNK         0.0600 
    167 H167       -5.2027  -19.6002  -44.0936 H         1 UNK         0.0600 
    168 H168       -5.0025  -18.0026  -44.8035 H         1 UNK         0.0600 
    169 H169       -2.7363  -17.5276  -45.8799 H         1 UNK         0.3000 
    170 H170        0.3193  -17.4911  -46.5084 H         1 UNK         0.0600 
    171 H171       -0.7963  -18.8263  -49.0187 H         1 UNK         0.0600 
    172 H172        0.5990  -17.7635  -48.9382 H         1 UNK         0.0600 
    173 H173        0.6607  -19.3281  -48.1572 H         1 UNK         0.0600 
    174 H174       -1.6598  -16.6625  -48.4211 H         1 UNK         0.3000 
    175 H175       -2.3125  -14.4632  -48.3303 H         1 UNK         0.0600 
    176 H176       -4.3237  -15.0739  -46.0709 H         1 UNK         0.0600 
    177 H177       -4.7048  -14.2423  -47.5751 H         1 UNK         0.0600 
    178 H178       -4.2421  -15.9348  -47.6034 H         1 UNK         0.0600 
    179 H179       -1.7858  -13.3927  -45.7296 H         1 UNK         0.3000 
    180 H180       -1.9944  -10.0636  -46.9076 H         1 UNK         0.0600 
    181 H181       -3.1411   -9.5204  -44.7831 H         1 UNK         0.0600 
    182 H182       -3.6688  -11.1948  -44.6091 H         1 UNK         0.0600 
    183 H183       -4.2755  -10.2082  -45.9333 H         1 UNK         0.0600 
    184 H184       -1.2629  -11.2503  -44.3885 H         1 UNK         0.3000 
    185 H185       -0.1676  -11.2232  -47.8819 H         1 UNK         0.0600 
    186 H186        1.8438   -9.1671  -46.8247 H         1 UNK         0.0600 
    187 H187        1.2825   -9.3112  -48.4898 H         1 UNK         0.0600 
    188 H188        0.1645   -8.8285  -47.2238 H         1 UNK         0.0600 
    189 H189        2.7103  -11.3513  -47.4818 H         1 UNK         0.3000 
    190 H190       -1.3746  -22.2473  -46.0504 H         1 UNK         0.3000 
    191 H191       -3.2185  -23.2326  -47.9033 H         1 UNK         0.0600 
    192 H192       -3.5495  -21.2042  -46.5658 H         1 UNK         0.0600 
    193 H193       -3.6780  -22.1608  -45.0800 H         1 UNK         0.0600 
    194 H194       -4.9127  -22.2877  -46.3206 H         1 UNK         0.0600 
    195 H195       -2.0510  -24.8914  -45.0376 H         1 UNK         0.3000 
    196 H196       -4.2854  -26.7504  -44.8252 H         1 UNK         0.0600 
    197 H197       -2.8331  -26.1531  -42.8729 H         1 UNK         0.0600 
    198 H198       -1.4473  -26.8889  -43.6783 H         1 UNK         0.0600 
    199 H199       -2.8156  -27.8807  -43.1937 H         1 UNK         0.0600 
    200 H200       -1.5030  -26.4694  -46.9008 H         1 UNK         0.3000 
    201 H201       -1.5790  -29.3642  -47.6574 H         1 UNK         0.0600 
    202 H202        0.6141  -28.5776  -46.8135 H         1 UNK         0.0600 
    203 H203        0.6294  -27.2665  -47.9908 H         1 UNK         0.0600 
    204 H204        0.7074  -28.9398  -48.5303 H         1 UNK         0.0600 
    205 H205       -1.4425  -25.9991  -48.9655 H         1 UNK         0.3000 
    206 H206       -2.1695  -27.0219  -51.6822 H         1 UNK         0.0600 
    207 H207       -0.6957  -24.4916  -50.7806 H         1 UNK         0.0600 
    208 H208        0.0270  -25.8979  -51.5502 H         1 UNK         0.0600 
    209 H209       -1.1035  -24.8943  -52.4458 H         1 UNK         0.0600 
    210 H210       -4.1548  -26.5543  -52.3986 H         1 UNK         0.3000 
    211 H211       -6.0442  -24.9072  -51.0306 H         1 UNK         0.0600 
    212 H212       -6.0605  -26.0208  -53.8892 H         1 UNK         0.0600 
    213 H213       -7.4517  -25.3494  -53.0466 H         1 UNK         0.0600 
    214 H214       -6.7064  -26.8268  -52.4588 H         1 UNK         0.0600 
    215 H215       -3.6912  -24.2209  -53.5615 H         1 UNK         0.3000 
    216 H216       -4.6952  -21.7097  -54.4621 H         1 UNK         0.0600 
    217 H217       -2.3596  -21.3892  -55.2972 H         1 UNK         0.0600 
    218 H218       -2.9692  -22.9852  -55.7046 H         1 UNK         0.0600 
    219 H219       -1.8240  -22.7903  -54.3773 H         1 UNK         0.0600 
    220 H220       -2.5439  -22.5999  -51.7392 H         1 UNK         0.3000 
    221 H221       -1.9343  -19.8965  -50.9509 H         1 UNK         0.0600 
    222 H222       -1.6312  -22.6140  -49.5991 H         1 UNK         0.0600 
    223 H223       -0.3796  -21.6057  -50.3193 H         1 UNK         0.0600 
    224 H224       -1.1590  -21.1169  -48.8206 H         1 UNK         0.0600 
    225 H225       -4.4755  -22.2204  -50.0717 H         1 UNK         0.3000 
    226 H226       -5.6737  -20.6611  -47.9789 H         1 UNK         0.0600 
    227 H227       -6.0727  -23.1270  -48.3291 H         1 UNK         0.0600 
    228 H228       -7.5684  -22.2074  -48.2523 H         1 UNK         0.0600 
    229 H229       -6.9611  -22.7616  -49.8043 H         1 UNK         0.0600 
    230 H230       -5.9029  -20.5788  -51.4901 H         1 UNK         0.3000 
    231 H231       -8.0195  -18.5382  -51.5467 H         1 UNK         0.0600 
    232 H232       -7.7946  -18.7808  -53.9878 H         1 UNK         0.0600 
    233 H233       -7.9242  -20.3713  -53.2562 H         1 UNK         0.0600 
    234 H234       -6.3583  -19.7777  -53.8017 H         1 UNK         0.0600 
    235 H235       -5.0934  -18.2148  -50.4027 H         1 UNK         0.3000 
    236 H236       -3.6495  -16.6120  -50.0505 H         1 UNK         0.0600 
    237 H237       -5.5672  -14.6713  -51.4379 H         1 UNK         0.0600 
    238 H238       -5.7085  -15.1937  -49.7608 H         1 UNK         0.0600 
    239 H239       -4.3109  -14.2653  -50.2780 H         1 UNK         0.0600 
    240 H240       -3.4364  -18.1766  -52.5346 H         1 UNK         0.3000 
    241 H241       -1.9814  -18.4959  -54.1133 H         1 UNK         0.0600 
    242 H242       -4.0675  -16.0064  -56.2224 H         1 UNK         0.3800 
    243 H243       -4.4152  -16.5516  -54.5997 H         1 UNK         0.3800 
    244 H244       -0.4726  -15.9543  -53.3629 H         1 UNK         0.0800 
    245 H245        0.1298  -17.2789  -54.3201 H         1 UNK         0.0800 
    246 H246        1.3484  -19.4581  -53.2055 H         1 UNK         0.0800 
    247 H247        2.1877  -17.9254  -53.0694 H         1 UNK         0.0800 
@<TRIPOS>BOND
     1    1    2 1    
     2    1  127 1    
     3    1  128 1    
     4    1  129 1    
     5    2    3 2    
     6    2    4 am   BACKBONE|DICT|INTERRES
     7    4    5 1    
     8    4  130 1    
     9    5    6 1    
    10    5   65 1    
    11    5  131 1    
    12    6    7 1    
    13    6  132 1    
    14    6  133 1    
    15    7    8 1    
    16    8    9 1    
    17    8  134 1    
    18    8  135 1    
    19    9   10 ar   
    20    9   14 ar   
    21   10   11 ar   
    22   10  136 1    
    23   11   12 ar   
    24   11  126 1    
    25   12   13 ar   
    26   12  137 1    
    27   13   14 ar   
    28   13   15 1    
    29   14  138 1    
    30   15   16 1    
    31   15  139 1    
    32   15  140 1    
    33   16   17 1    
    34   17   18 1    
    35   17  141 1    
    36   17  142 1    
    37   18   19 1    
    38   18   67 1    
    39   18  143 1    
    40   19   20 am   BACKBONE|DICT|INTERRES
    41   19  144 1    
    42   20   21 2    
    43   20   22 1    
    44   22   23 1    
    45   22   24 1    
    46   22  145 1    
    47   23  146 1    
    48   23  147 1    
    49   23  148 1    
    50   24   25 am   BACKBONE|DICT|INTERRES
    51   24  149 1    
    52   25   26 2    
    53   25   27 1    
    54   27   28 1    
    55   27   29 1    
    56   27  150 1    
    57   28  151 1    
    58   28  152 1    
    59   28  153 1    
    60   29   30 am   BACKBONE|DICT|INTERRES
    61   29  154 1    
    62   30   31 2    
    63   30   32 1    
    64   32   33 1    
    65   32   34 1    
    66   32  155 1    
    67   33  156 1    
    68   33  157 1    
    69   33  158 1    
    70   34   35 am   BACKBONE|DICT|INTERRES
    71   34  159 1    
    72   35   36 2    
    73   35   37 1    
    74   37   38 1    
    75   37   39 1    
    76   37  160 1    
    77   38  161 1    
    78   38  162 1    
    79   38  163 1    
    80   39   40 am   BACKBONE|DICT|INTERRES
    81   39  164 1    
    82   40   41 2    
    83   40   42 1    
    84   42   43 1    
    85   42   44 1    
    86   42  165 1    
    87   43  166 1    
    88   43  167 1    
    89   43  168 1    
    90   44   45 am   BACKBONE|DICT|INTERRES
    91   44  169 1    
    92   45   46 2    
    93   45   47 1    
    94   47   48 1    
    95   47   49 1    
    96   47  170 1    
    97   48  171 1    
    98   48  172 1    
    99   48  173 1    
   100   49   50 am   BACKBONE|DICT|INTERRES
   101   49  174 1    
   102   50   51 2    
   103   50   52 1    
   104   52   53 1    
   105   52   54 1    
   106   52  175 1    
   107   53  176 1    
   108   53  177 1    
   109   53  178 1    
   110   54   55 am   BACKBONE|DICT|INTERRES
   111   54  179 1    
   112   55   56 2    
   113   55   57 1    
   114   57   58 1    
   115   57   59 1    
   116   57  180 1    
   117   58  181 1    
   118   58  182 1    
   119   58  183 1    
   120   59   60 am   BACKBONE|DICT|INTERRES
   121   59  184 1    
   122   60   61 2    
   123   60   62 1    
   124   62   63 1    
   125   62   64 1    
   126   62  185 1    
   127   63  186 1    
   128   63  187 1    
   129   63  188 1    
   130   64   65 am   BACKBONE|DICT|INTERRES
   131   64  189 1    
   132   65   66 2    
   133   67   68 2    
   134   67   69 am   BACKBONE|DICT|INTERRES
   135   69   70 1    
   136   69  190 1    
   137   70   71 1    
   138   70   72 1    
   139   70  191 1    
   140   71  192 1    
   141   71  193 1    
   142   71  194 1    
   143   72   73 2    
   144   72   74 am   BACKBONE|DICT|INTERRES
   145   74   75 1    
   146   74  195 1    
   147   75   76 1    
   148   75   77 1    
   149   75  196 1    
   150   76  197 1    
   151   76  198 1    
   152   76  199 1    
   153   77   78 2    
   154   77   79 am   BACKBONE|DICT|INTERRES
   155   79   80 1    
   156   79  200 1    
   157   80   81 1    
   158   80   82 1    
   159   80  201 1    
   160   81  202 1    
   161   81  203 1    
   162   81  204 1    
   163   82   83 2    
   164   82   84 am   BACKBONE|DICT|INTERRES
   165   84   85 1    
   166   84  205 1    
   167   85   86 1    
   168   85   87 1    
   169   85  206 1    
   170   86  207 1    
   171   86  208 1    
   172   86  209 1    
   173   87   88 2    
   174   87   89 am   BACKBONE|DICT|INTERRES
   175   89   90 1    
   176   89  210 1    
   177   90   91 1    
   178   90   92 1    
   179   90  211 1    
   180   91  212 1    
   181   91  213 1    
   182   91  214 1    
   183   92   93 2    
   184   92   94 am   BACKBONE|DICT|INTERRES
   185   94   95 1    
   186   94  215 1    
   187   95   96 1    
   188   95   97 1    
   189   95  216 1    
   190   96  217 1    
   191   96  218 1    
   192   96  219 1    
   193   97   98 2    
   194   97   99 am   BACKBONE|DICT|INTERRES
   195   99  100 1    
   196   99  220 1    
   197  100  101 1    
   198  100  102 1    
   199  100  221 1    
   200  101  222 1    
   201  101  223 1    
   202  101  224 1    
   203  102  103 2    
   204  102  104 am   BACKBONE|DICT|INTERRES
   205  104  105 1    
   206  104  225 1    
   207  105  106 1    
   208  105  107 1    
   209  105  226 1    
   210  106  227 1    
   211  106  228 1    
   212  106  229 1    
   213  107  108 2    
   214  107  109 am   BACKBONE|DICT|INTERRES
   215  109  110 1    
   216  109  230 1    
   217  110  111 1    
   218  110  112 1    
   219  110  231 1    
   220  111  232 1    
   221  111  233 1    
   222  111  234 1    
   223  112  113 2    
   224  112  114 am   BACKBONE|DICT|INTERRES
   225  114  115 1    
   226  114  235 1    
   227  115  116 1    
   228  115  117 1    
   229  115  236 1    
   230  116  237 1    
   231  116  238 1    
   232  116  239 1    
   233  117  118 2    
   234  117  119 am   BACKBONE|DICT|INTERRES
   235  119  120 1    
   236  119  240 1    
   237  120  121 1    
   238  120  124 1    
   239  120  241 1    
   240  121  122 am   BACKBONE|DICT|INTERRES
   241  121  123 2    
   242  122  242 1    
   243  122  243 1    
   244  124  125 1    
   245  124  244 1    
   246  124  245 1    
   247  125  126 1    
   248  126  246 1    
   249  126  247 1    
@<TRIPOS>SUBSTRUCTURE
     1 UNK         1 GROUP             0       ****    0 ROOT    
