@<TRIPOS>MOLECULE
3R540
247   249    1
SMALL
USER_CHARGES


@<TRIPOS>ATOM
      1 CA          6.2475  -10.7553  -52.4274 C.3       0 UNK        -0.1800 
      2 C           6.3578  -10.7468  -50.9092 C.2       0 UNK         0.5000 
      3 O           6.7215   -9.7248  -50.3263 O.2       0 UNK        -0.5000 
      4 N           6.0551  -11.8823  -50.2695 N.am      1 UNK        -0.5000 
      5 CA          6.0246  -12.0559  -48.8149 C.3       1 UNK         0.1400 
      6 C6          6.0005  -13.5509  -48.3917 C.3       23 UNK        -0.0398 
      7 S7          4.8660  -14.6077  -49.3621 S.3       23 UNK        -0.2404 
      8 C8          3.7723  -15.3216  -48.0946 C.3       23 UNK        -0.0205 
      9 C9          3.0131  -16.4979  -48.6885 C.ar      23 UNK        -0.0193 
     10 C10         1.7642  -16.3102  -49.2897 C.ar      23 UNK        -0.1150 
     11 C11         1.1005  -17.3791  -49.9030 C.ar      23 UNK        -0.0193 
     12 C12         1.7139  -18.6356  -49.9296 C.ar      23 UNK        -0.1150 
     13 C13         2.9460  -18.8446  -49.3036 C.ar      23 UNK        -0.0193 
     14 C14         3.5886  -17.7718  -48.6810 C.ar      23 UNK        -0.1150 
     15 C15         3.5922  -20.2229  -49.3185 C.3       23 UNK        -0.0205 
     16 S16         3.0715  -21.2390  -47.8992 S.3       23 UNK        -0.2404 
     17 C17         1.3166  -21.5109  -48.3054 C.3       23 UNK        -0.0398 
     18 CA          0.6697  -22.6465  -47.4828 C.3       11 UNK         0.1400 
     19 N           0.5423  -22.3136  -46.0593 N.am      11 UNK        -0.5000 
     20 C           0.0969  -23.1563  -45.1159 C.2       10 UNK         0.5000 
     21 O          -0.2154  -24.3263  -45.3348 O.2       10 UNK        -0.5000 
     22 CA         -0.0908  -22.5867  -43.6997 C.3       10 UNK         0.1400 
     23 CB          1.2549  -22.4542  -42.9713 C.3       10 UNK        -0.1800 
     24 N          -0.7905  -21.3024  -43.7057 N.am      10 UNK        -0.5000 
     25 C          -2.0529  -21.1324  -44.1257 C.2       9 UNK         0.5000 
     26 O          -2.7779  -22.0537  -44.5028 O.2       9 UNK        -0.5000 
     27 CA         -2.5839  -19.6877  -44.1744 C.3       9 UNK         0.1400 
     28 CB         -3.0411  -19.2263  -42.7828 C.3       9 UNK        -0.1800 
     29 N          -1.6109  -18.7384  -44.7176 N.am      9 UNK        -0.5000 
     30 C          -1.1022  -18.8010  -45.9572 C.2       8 UNK         0.5000 
     31 O          -1.4226  -19.6529  -46.7815 O.2       8 UNK        -0.5000 
     32 CA         -0.0092  -17.7835  -46.3220 C.3       8 UNK         0.1400 
     33 CB         -0.6262  -16.4311  -46.6924 C.3       8 UNK        -0.1800 
     34 N           0.9666  -17.6040  -45.2496 N.am      8 UNK        -0.5000 
     35 C           1.7519  -18.5845  -44.7832 C.2       7 UNK         0.5000 
     36 O           1.7554  -19.7335  -45.2234 O.2       7 UNK        -0.5000 
     37 CA          2.6313  -18.2369  -43.5734 C.3       7 UNK         0.1400 
     38 CB          3.8373  -17.3877  -43.9974 C.3       7 UNK        -0.1800 
     39 N           1.8658  -17.5634  -42.5189 N.am      7 UNK        -0.5000 
     40 C           0.9167  -18.1807  -41.7994 C.2       6 UNK         0.5000 
     41 O           0.5862  -19.3536  -41.9727 O.2       6 UNK        -0.5000 
     42 CA          0.2092  -17.3678  -40.7010 C.3       6 UNK         0.1400 
     43 CB          1.0705  -17.3214  -39.4297 C.3       6 UNK        -0.1800 
     44 N          -0.1794  -16.0043  -41.0681 N.am      6 UNK        -0.5000 
     45 C          -0.9626  -15.6550  -42.0985 C.2       5 UNK         0.5000 
     46 O          -1.3043  -16.4332  -42.9891 O.2       5 UNK        -0.5000 
     47 CA         -1.4754  -14.1992  -42.1260 C.3       5 UNK         0.1400 
     48 CB         -1.2199  -13.4149  -40.8225 C.3       5 UNK        -0.1800 
     49 N          -0.8563  -13.4793  -43.2301 N.am      5 UNK        -0.5000 
     50 C          -1.3102  -13.4339  -44.4884 C.2       4 UNK         0.5000 
     51 O          -2.4050  -13.8762  -44.8377 O.2       4 UNK        -0.5000 
     52 CA         -0.3926  -12.7702  -45.5384 C.3       4 UNK         0.1400 
     53 CB         -1.0209  -11.4711  -46.0671 C.3       4 UNK        -0.1800 
     54 N           0.9535  -12.4653  -45.0463 N.am      4 UNK        -0.5000 
     55 C           1.9091  -13.3479  -44.7324 C.2       3 UNK         0.5000 
     56 O           1.7690  -14.5678  -44.8375 O.2       3 UNK        -0.5000 
     57 CA          3.2218  -12.7457  -44.1818 C.3       3 UNK         0.1400 
     58 CB          4.2706  -13.8131  -43.8298 C.3       3 UNK        -0.1800 
     59 N           3.8346  -11.7803  -45.0952 N.am      3 UNK        -0.5000 
     60 C           3.4144  -10.5321  -45.3455 C.2       2 UNK         0.5000 
     61 O           2.4178  -10.0337  -44.8197 O.2       2 UNK        -0.5000 
     62 CA          4.2414   -9.6985  -46.3442 C.3       2 UNK         0.1400 
     63 CB          5.0151   -8.5933  -45.6083 C.3       2 UNK        -0.1800 
     64 N           5.1922  -10.5042  -47.1157 N.am      2 UNK        -0.5000 
     65 C           4.8709  -11.2533  -48.1785 C.2       1 UNK         0.5000 
     66 O           3.7307  -11.3353  -48.6402 O.2       1 UNK        -0.5000 
     67 C          -0.6867  -23.0308  -48.1053 C.2       11 UNK         0.5000 
     68 O          -0.7742  -24.0595  -48.7757 O.2       11 UNK        -0.5000 
     69 N          -1.7203  -22.2168  -47.8509 N.am      12 UNK        -0.5000 
     70 CA         -3.0877  -22.4162  -48.3257 C.3       12 UNK         0.1400 
     71 CB         -3.9484  -21.2087  -47.9297 C.3       12 UNK        -0.1800 
     72 C          -3.7144  -23.7331  -47.8396 C.2       12 UNK         0.5000 
     73 O          -4.4111  -24.3873  -48.6158 O.2       12 UNK        -0.5000 
     74 N          -3.4289  -24.1139  -46.5885 N.am      13 UNK        -0.5000 
     75 CA         -3.8220  -25.3963  -46.0133 C.3       13 UNK         0.1400 
     76 CB         -3.6691  -25.3411  -44.4853 C.3       13 UNK        -0.1800 
     77 C          -3.0224  -26.5715  -46.6058 C.2       13 UNK         0.5000 
     78 O          -3.6242  -27.5621  -47.0209 O.2       13 UNK        -0.5000 
     79 N          -1.6876  -26.4454  -46.6324 N.am      14 UNK        -0.5000 
     80 CA         -0.7592  -27.5016  -47.0424 C.3       14 UNK         0.1400 
     81 CB          0.6758  -27.1003  -46.6676 C.3       14 UNK        -0.1800 
     82 C          -0.8422  -27.8583  -48.5360 C.2       14 UNK         0.5000 
     83 O          -0.8628  -29.0420  -48.8760 O.2       14 UNK        -0.5000 
     84 N          -0.8880  -26.8360  -49.3992 N.am      15 UNK        -0.5000 
     85 CA         -0.9451  -26.9915  -50.8548 C.3       15 UNK         0.1400 
     86 CB         -0.2602  -25.7790  -51.5077 C.3       15 UNK        -0.1800 
     87 C          -2.3833  -27.1402  -51.3857 C.2       15 UNK         0.5000 
     88 O          -2.5554  -27.3923  -52.5785 O.2       15 UNK        -0.5000 
     89 N          -3.3820  -26.9336  -50.5122 N.am      16 UNK        -0.5000 
     90 CA         -4.8188  -26.8345  -50.8029 C.3       16 UNK         0.1400 
     91 CB         -5.3731  -28.1525  -51.3815 C.3       16 UNK        -0.1800 
     92 C          -5.1774  -25.6028  -51.6656 C.2       16 UNK         0.5000 
     93 O          -6.2518  -25.5582  -52.2676 O.2       16 UNK        -0.5000 
     94 N          -4.2862  -24.5999  -51.6785 N.am      17 UNK        -0.5000 
     95 CA         -4.4304  -23.3355  -52.3990 C.3       17 UNK         0.1400 
     96 CB         -3.0537  -22.6680  -52.5489 C.3       17 UNK        -0.1800 
     97 C          -5.4593  -22.3780  -51.7682 C.2       17 UNK         0.5000 
     98 O          -5.7490  -21.3424  -52.3653 O.2       17 UNK        -0.5000 
     99 N          -6.0350  -22.7383  -50.6105 N.am      18 UNK        -0.5000 
    100 CA        -7.1691  -22.0593  -49.9732 C.3       18 UNK         0.1400 
    101 CB        -7.5497  -22.8076  -48.6858 C.3       18 UNK        -0.1800 
    102 C         -8.4002  -21.9309  -50.8921 C.2       18 UNK         0.5000 
    103 O         -9.0889  -20.9119  -50.8447 O.2       18 UNK        -0.5000 
    104 N         -8.6098  -22.9304  -51.7617 N.am      19 UNK        -0.5000 
    105 CA        -9.6403  -22.9408  -52.8040 C.3       19 UNK         0.1400 
    106 CB        -9.6973  -24.3454  -53.4237 C.3       19 UNK        -0.1800 
    107 C         -9.4257  -21.8763  -53.9022 C.2       19 UNK         0.5000 
    108 O        -10.3862  -21.5014  -54.5751 O.2       19 UNK        -0.5000 
    109 N         -8.1820  -21.4030  -54.0518 N.am      20 UNK        -0.5000 
    110 CA        -7.7674  -20.3408  -54.9671 C.3       20 UNK         0.1400 
    111 CB        -6.5706  -20.8534  -55.7881 C.3       20 UNK        -0.1800 
    112 C         -7.4045  -19.0487  -54.2053 C.2       20 UNK         0.5000 
    113 O         -6.7923  -18.1565  -54.7944 O.2       20 UNK        -0.5000 
    114 N         -7.7458  -18.9760  -52.9075 N.am      21 UNK        -0.5000 
    115 CA        -7.4595  -17.8820  -51.9712 C.3       21 UNK         0.1400 
    116 CB        -8.3185  -16.6472  -52.3136 C.3       21 UNK        -0.1800 
    117 C         -5.9532  -17.5546  -51.8519 C.2       21 UNK         0.5000 
    118 O         -5.5811  -16.3840  -51.7550 O.2       21 UNK        -0.5000 
    119 N         -5.1158  -18.6008  -51.8804 N.am      22 UNK        -0.5000 
    120 CA        -3.6436  -18.5461  -51.9199 C.3       22 UNK         0.1400 
    121 C         -3.0542  -18.1663  -53.3154 C.2       22 UNK         0.5000 
    122 N         -3.8512  -18.0055  -54.3660 N.am      22 UNK        -0.7600 
    123 O         -1.8430  -18.0479  -53.4685 O.2       22 UNK        -0.5000 
    124 C124       -3.0327  -17.7204  -50.7461 C.3       23 UNK        -0.0398 
    125 S125       -1.4914  -18.4215  -50.0626 S.3       23 UNK        -0.2404 
    126 C126       -0.2611  -17.1647  -50.5568 C.3       23 UNK        -0.0205 
    127 H127        7.2133  -10.5222  -52.8755 H         1 UNK         0.0600 
    128 H128        5.5279  -10.0052  -52.7554 H         1 UNK         0.0600 
    129 H129        5.9229  -11.7255  -52.8046 H         1 UNK         0.0600 
    130 H130        5.7307  -12.6813  -50.7965 H         1 UNK         0.3000 
    131 H131        6.9591  -11.6385  -48.4327 H         1 UNK         0.0600 
    132 H132        5.7921  -13.6552  -47.3255 H         1 UNK         0.0800 
    133 H133        7.0002  -13.9658  -48.5265 H         1 UNK         0.0800 
    134 H134        4.3580  -15.6549  -47.2364 H         1 UNK         0.0800 
    135 H135        3.0818  -14.5599  -47.7279 H         1 UNK         0.0800 
    136 H136        1.3181  -15.3257  -49.2925 H         1 UNK         0.1150 
    137 H137        1.2186  -19.4586  -50.4246 H         1 UNK         0.1150 
    138 H138        4.5518  -17.9221  -48.2140 H         1 UNK         0.1150 
    139 H139        3.3572  -20.7415  -50.2492 H         1 UNK         0.0800 
    140 H140        4.6782  -20.1218  -49.2963 H         1 UNK         0.0800 
    141 H141        1.2570  -21.7336  -49.3727 H         1 UNK         0.0800 
    142 H142        0.7732  -20.5774  -48.1513 H         1 UNK         0.0800 
    143 H143        1.3123  -23.5267  -47.5536 H         1 UNK         0.0600 
    144 H144        0.8127  -21.3713  -45.7893 H         1 UNK         0.3000 
    145 H145       -0.7055  -23.2943  -43.1395 H         1 UNK         0.0600 
    146 H146        1.1127  -22.1376  -41.9379 H         1 UNK         0.0600 
    147 H147        1.7822  -23.4086  -42.9496 H         1 UNK         0.0600 
    148 H148        1.9089  -21.7287  -43.4549 H         1 UNK         0.0600 
    149 H149       -0.2670  -20.4979  -43.3745 H         1 UNK         0.3000 
    150 H150       -3.4534  -19.6782  -44.8344 H         1 UNK         0.0600 
    151 H151       -3.7825  -19.9105  -42.3683 H         1 UNK         0.0600 
    152 H152       -3.4987  -18.2379  -42.8263 H         1 UNK         0.0600 
    153 H153       -2.2085  -19.1788  -42.0809 H         1 UNK         0.0600 
    154 H154       -1.3194  -17.9811  -44.1043 H         1 UNK         0.3000 
    155 H155        0.5258  -18.1673  -47.1922 H         1 UNK         0.0600 
    156 H156       -1.1987  -16.0203  -45.8624 H         1 UNK         0.0600 
    157 H157       -1.3019  -16.5296  -47.5425 H         1 UNK         0.0600 
    158 H158        0.1437  -15.7108  -46.9658 H         1 UNK         0.0600 
    159 H159        1.0333  -16.6802  -44.8394 H         1 UNK         0.3000 
    160 H160        3.0154  -19.1723  -43.1601 H         1 UNK         0.0600 
    161 H161        3.5268  -16.4860  -44.5215 H         1 UNK         0.0600 
    162 H162        4.4804  -17.9471  -44.6778 H         1 UNK         0.0600 
    163 H163        4.4439  -17.0959  -43.1402 H         1 UNK         0.0600 
    164 H164        2.0618  -16.5887  -42.3468 H         1 UNK         0.3000 
    165 H165       -0.7120  -17.9007  -40.4571 H         1 UNK         0.0600 
    166 H166        0.5265  -16.8702  -38.5997 H         1 UNK         0.0600 
    167 H167        1.3613  -18.3253  -39.1168 H         1 UNK         0.0600 
    168 H168        1.9853  -16.7478  -39.5838 H         1 UNK         0.0600 
    169 H169        0.0604  -15.2866  -40.4000 H         1 UNK         0.3000 
    170 H170       -2.5558  -14.2457  -42.2773 H         1 UNK         0.0600 
    171 H171       -1.6670  -13.9177  -39.9638 H         1 UNK         0.0600 
    172 H172       -0.1562  -13.2815  -40.6215 H         1 UNK         0.0600 
    173 H173       -1.6682  -12.4225  -40.8761 H         1 UNK         0.0600 
    174 H174        0.0573  -13.0902  -43.0554 H         1 UNK         0.3000 
    175 H175       -0.2966  -13.4651  -46.3735 H         1 UNK         0.0600 
    176 H176       -1.1320  -10.7286  -45.2760 H         1 UNK         0.0600 
    177 H177       -0.4113  -11.0315  -46.8569 H         1 UNK         0.0600 
    178 H178       -2.0105  -11.6554  -46.4873 H         1 UNK         0.0600 
    179 H179        1.1836  -11.4812  -44.9370 H         1 UNK         0.3000 
    180 H180        2.9649  -12.2237  -43.2578 H         1 UNK         0.0600 
    181 H181        4.5885  -14.3707  -44.7113 H         1 UNK         0.0600 
    182 H182        3.8750  -14.5247  -43.1044 H         1 UNK         0.0600 
    183 H183        5.1568  -13.3621  -43.3830 H         1 UNK         0.0600 
    184 H184        4.6558  -12.0973  -45.5860 H         1 UNK         0.3000 
    185 H185        3.5400   -9.2225  -47.0328 H         1 UNK         0.0600 
    186 H186        4.3375   -7.9469  -45.0486 H         1 UNK         0.0600 
    187 H187        5.7337   -9.0070  -44.8997 H         1 UNK         0.0600 
    188 H188        5.5597   -7.9598  -46.3088 H         1 UNK         0.0600 
    189 H189        6.1547  -10.4696  -46.8098 H         1 UNK         0.3000 
    190 H190       -1.5557  -21.3610  -47.3215 H         1 UNK         0.3000 
    191 H191       -3.0523  -22.4585  -49.4128 H         1 UNK         0.0600 
    192 H192       -3.5581  -20.2885  -48.3648 H         1 UNK         0.0600 
    193 H193       -4.9711  -21.3179  -48.2816 H         1 UNK         0.0600 
    194 H194       -3.9859  -21.0797  -46.8481 H         1 UNK         0.0600 
    195 H195       -2.8914  -23.4897  -45.9961 H         1 UNK         0.3000 
    196 H196       -4.8777  -25.5628  -46.2386 H         1 UNK         0.0600 
    197 H197       -3.9608  -26.2873  -44.0281 H         1 UNK         0.0600 
    198 H198       -4.3006  -24.5630  -44.0561 H         1 UNK         0.0600 
    199 H199       -2.6403  -25.1342  -44.1882 H         1 UNK         0.0600 
    200 H200       -1.2646  -25.5978  -46.2610 H         1 UNK         0.3000 
    201 H201       -1.0124  -28.4007  -46.4767 H         1 UNK         0.0600 
    202 H202        0.7748  -26.9526  -45.5921 H         1 UNK         0.0600 
    203 H203        0.9761  -26.1751  -47.1612 H         1 UNK         0.0600 
    204 H204        1.3883  -27.8742  -46.9558 H         1 UNK         0.0600 
    205 H205       -0.8618  -25.8802  -49.0468 H         1 UNK         0.3000 
    206 H206       -0.3922  -27.8869  -51.1465 H         1 UNK         0.0600 
    207 H207        0.7538  -25.6463  -51.1302 H         1 UNK         0.0600 
    208 H208       -0.1899  -25.9047  -52.5889 H         1 UNK         0.0600 
    209 H209       -0.8102  -24.8557  -51.3230 H         1 UNK         0.0600 
    210 H210       -3.1245  -26.7435  -49.5531 H         1 UNK         0.3000 
    211 H211       -5.3052  -26.6753  -49.8395 H         1 UNK         0.0600 
    212 H212       -5.0114  -28.3391  -52.3927 H         1 UNK         0.0600 
    213 H213       -6.4625  -28.1297  -51.4270 H         1 UNK         0.0600 
    214 H214       -5.0934  -29.0038  -50.7608 H         1 UNK         0.0600 
    215 H215       -3.4579  -24.7083  -51.1127 H         1 UNK         0.3000 
    216 H216       -4.7963  -23.5637  -53.4021 H         1 UNK         0.0600 
    217 H217       -3.1258  -21.7526  -53.1379 H         1 UNK         0.0600 
    218 H218       -2.3544  -23.3258  -53.0654 H         1 UNK         0.0600 
    219 H219       -2.6132  -22.4040  -51.5892 H         1 UNK         0.0600 
    220 H220       -5.6974  -23.5767  -50.1526 H         1 UNK         0.3000 
    221 H221       -6.8502  -21.0486  -49.7119 H         1 UNK         0.0600 
    222 H222       -7.8468  -23.8364  -48.8933 H         1 UNK         0.0600 
    223 H223       -6.7229  -22.8394  -47.9775 H         1 UNK         0.0600 
    224 H224       -8.3854  -22.3195  -48.1825 H         1 UNK         0.0600 
    225 H225       -7.9825  -23.7237  -51.7430 H         1 UNK         0.3000 
    226 H226      -10.6022  -22.7336  -52.3305 H         1 UNK         0.0600 
    227 H227       -9.9295  -25.0994  -52.6714 H         1 UNK         0.0600 
    228 H228      -10.4698  -24.4047  -54.1915 H         1 UNK         0.0600 
    229 H229       -8.7486  -24.6174  -53.8888 H         1 UNK         0.0600 
    230 H230       -7.4561  -21.7336  -53.4270 H         1 UNK         0.3000 
    231 H231       -8.5755  -20.0909  -55.6569 H         1 UNK         0.0600 
    232 H232       -6.8215  -21.7724  -56.3180 H         1 UNK         0.0600 
    233 H233       -5.7060  -21.0569  -55.1549 H         1 UNK         0.0600 
    234 H234       -6.2641  -20.1229  -56.5377 H         1 UNK         0.0600 
    235 H235       -8.2379  -19.7640  -52.5052 H         1 UNK         0.3000 
    236 H236       -7.7691  -18.2358  -50.9867 H         1 UNK         0.0600 
    237 H237       -8.2126  -15.8724  -51.5534 H         1 UNK         0.0600 
    238 H238       -8.0331  -16.2089  -53.2704 H         1 UNK         0.0600 
    239 H239       -9.3762  -16.9057  -52.3653 H         1 UNK         0.0600 
    240 H240       -5.5082  -19.5295  -52.0167 H         1 UNK         0.3000 
    241 H241       -3.3491  -19.5858  -51.7750 H         1 UNK         0.0600 
    242 H242       -3.4407  -17.7737  -55.2562 H         1 UNK         0.3800 
    243 H243       -4.8595  -18.0803  -54.2904 H         1 UNK         0.3800 
    244 H244       -2.8876  -16.6780  -51.0338 H         1 UNK         0.0800 
    245 H245       -3.7323  -17.6927  -49.9098 H         1 UNK         0.0800 
    246 H246       -0.6469  -16.1770  -50.3004 H         1 UNK         0.0800 
    247 H247       -0.1370  -17.1823  -51.6396 H         1 UNK         0.0800 
@<TRIPOS>BOND
     1    1    2 1    
     2    1  127 1    
     3    1  128 1    
     4    1  129 1    
     5    2    3 2    
     6    2    4 am   BACKBONE|DICT|INTERRES
     7    4    5 1    
     8    4  130 1    
     9    5    6 1    
    10    5   65 1    
    11    5  131 1    
    12    6    7 1    
    13    6  132 1    
    14    6  133 1    
    15    7    8 1    
    16    8    9 1    
    17    8  134 1    
    18    8  135 1    
    19    9   10 ar   
    20    9   14 ar   
    21   10   11 ar   
    22   10  136 1    
    23   11   12 ar   
    24   11  126 1    
    25   12   13 ar   
    26   12  137 1    
    27   13   14 ar   
    28   13   15 1    
    29   14  138 1    
    30   15   16 1    
    31   15  139 1    
    32   15  140 1    
    33   16   17 1    
    34   17   18 1    
    35   17  141 1    
    36   17  142 1    
    37   18   19 1    
    38   18   67 1    
    39   18  143 1    
    40   19   20 am   BACKBONE|DICT|INTERRES
    41   19  144 1    
    42   20   21 2    
    43   20   22 1    
    44   22   23 1    
    45   22   24 1    
    46   22  145 1    
    47   23  146 1    
    48   23  147 1    
    49   23  148 1    
    50   24   25 am   BACKBONE|DICT|INTERRES
    51   24  149 1    
    52   25   26 2    
    53   25   27 1    
    54   27   28 1    
    55   27   29 1    
    56   27  150 1    
    57   28  151 1    
    58   28  152 1    
    59   28  153 1    
    60   29   30 am   BACKBONE|DICT|INTERRES
    61   29  154 1    
    62   30   31 2    
    63   30   32 1    
    64   32   33 1    
    65   32   34 1    
    66   32  155 1    
    67   33  156 1    
    68   33  157 1    
    69   33  158 1    
    70   34   35 am   BACKBONE|DICT|INTERRES
    71   34  159 1    
    72   35   36 2    
    73   35   37 1    
    74   37   38 1    
    75   37   39 1    
    76   37  160 1    
    77   38  161 1    
    78   38  162 1    
    79   38  163 1    
    80   39   40 am   BACKBONE|DICT|INTERRES
    81   39  164 1    
    82   40   41 2    
    83   40   42 1    
    84   42   43 1    
    85   42   44 1    
    86   42  165 1    
    87   43  166 1    
    88   43  167 1    
    89   43  168 1    
    90   44   45 am   BACKBONE|DICT|INTERRES
    91   44  169 1    
    92   45   46 2    
    93   45   47 1    
    94   47   48 1    
    95   47   49 1    
    96   47  170 1    
    97   48  171 1    
    98   48  172 1    
    99   48  173 1    
   100   49   50 am   BACKBONE|DICT|INTERRES
   101   49  174 1    
   102   50   51 2    
   103   50   52 1    
   104   52   53 1    
   105   52   54 1    
   106   52  175 1    
   107   53  176 1    
   108   53  177 1    
   109   53  178 1    
   110   54   55 am   BACKBONE|DICT|INTERRES
   111   54  179 1    
   112   55   56 2    
   113   55   57 1    
   114   57   58 1    
   115   57   59 1    
   116   57  180 1    
   117   58  181 1    
   118   58  182 1    
   119   58  183 1    
   120   59   60 am   BACKBONE|DICT|INTERRES
   121   59  184 1    
   122   60   61 2    
   123   60   62 1    
   124   62   63 1    
   125   62   64 1    
   126   62  185 1    
   127   63  186 1    
   128   63  187 1    
   129   63  188 1    
   130   64   65 am   BACKBONE|DICT|INTERRES
   131   64  189 1    
   132   65   66 2    
   133   67   68 2    
   134   67   69 am   BACKBONE|DICT|INTERRES
   135   69   70 1    
   136   69  190 1    
   137   70   71 1    
   138   70   72 1    
   139   70  191 1    
   140   71  192 1    
   141   71  193 1    
   142   71  194 1    
   143   72   73 2    
   144   72   74 am   BACKBONE|DICT|INTERRES
   145   74   75 1    
   146   74  195 1    
   147   75   76 1    
   148   75   77 1    
   149   75  196 1    
   150   76  197 1    
   151   76  198 1    
   152   76  199 1    
   153   77   78 2    
   154   77   79 am   BACKBONE|DICT|INTERRES
   155   79   80 1    
   156   79  200 1    
   157   80   81 1    
   158   80   82 1    
   159   80  201 1    
   160   81  202 1    
   161   81  203 1    
   162   81  204 1    
   163   82   83 2    
   164   82   84 am   BACKBONE|DICT|INTERRES
   165   84   85 1    
   166   84  205 1    
   167   85   86 1    
   168   85   87 1    
   169   85  206 1    
   170   86  207 1    
   171   86  208 1    
   172   86  209 1    
   173   87   88 2    
   174   87   89 am   BACKBONE|DICT|INTERRES
   175   89   90 1    
   176   89  210 1    
   177   90   91 1    
   178   90   92 1    
   179   90  211 1    
   180   91  212 1    
   181   91  213 1    
   182   91  214 1    
   183   92   93 2    
   184   92   94 am   BACKBONE|DICT|INTERRES
   185   94   95 1    
   186   94  215 1    
   187   95   96 1    
   188   95   97 1    
   189   95  216 1    
   190   96  217 1    
   191   96  218 1    
   192   96  219 1    
   193   97   98 2    
   194   97   99 am   BACKBONE|DICT|INTERRES
   195   99  100 1    
   196   99  220 1    
   197  100  101 1    
   198  100  102 1    
   199  100  221 1    
   200  101  222 1    
   201  101  223 1    
   202  101  224 1    
   203  102  103 2    
   204  102  104 am   BACKBONE|DICT|INTERRES
   205  104  105 1    
   206  104  225 1    
   207  105  106 1    
   208  105  107 1    
   209  105  226 1    
   210  106  227 1    
   211  106  228 1    
   212  106  229 1    
   213  107  108 2    
   214  107  109 am   BACKBONE|DICT|INTERRES
   215  109  110 1    
   216  109  230 1    
   217  110  111 1    
   218  110  112 1    
   219  110  231 1    
   220  111  232 1    
   221  111  233 1    
   222  111  234 1    
   223  112  113 2    
   224  112  114 am   BACKBONE|DICT|INTERRES
   225  114  115 1    
   226  114  235 1    
   227  115  116 1    
   228  115  117 1    
   229  115  236 1    
   230  116  237 1    
   231  116  238 1    
   232  116  239 1    
   233  117  118 2    
   234  117  119 am   BACKBONE|DICT|INTERRES
   235  119  120 1    
   236  119  240 1    
   237  120  121 1    
   238  120  124 1    
   239  120  241 1    
   240  121  122 am   BACKBONE|DICT|INTERRES
   241  121  123 2    
   242  122  242 1    
   243  122  243 1    
   244  124  125 1    
   245  124  244 1    
   246  124  245 1    
   247  125  126 1    
   248  126  246 1    
   249  126  247 1    
@<TRIPOS>SUBSTRUCTURE
     1 UNK         1 GROUP             0       ****    0 ROOT    
