@<TRIPOS>MOLECULE
3R540
247   249    1
SMALL
USER_CHARGES


@<TRIPOS>ATOM
      1 CA         -4.7715  -11.6231  -44.6125 C.3       0 UNK        -0.1800 
      2 C          -3.6179  -12.2967  -45.3401 C.2       0 UNK         0.5000 
      3 O          -3.5352  -12.2173  -46.5655 O.2       0 UNK        -0.5000 
      4 N          -2.7175  -12.9494  -44.5903 N.am      1 UNK        -0.5000 
      5 CA         -1.5652  -13.7006  -45.1116 C.3       1 UNK         0.1400 
      6 C6         -0.8462  -14.5191  -44.0096 C.3       23 UNK        -0.0398 
      7 S7         -1.7596  -15.8189  -43.0847 S.3       23 UNK        -0.2404 
      8 C8         -3.4335  -16.0224  -43.7922 C.3       23 UNK        -0.0205 
      9 C9         -3.4440  -16.7632  -45.1209 C.ar      23 UNK        -0.0193 
     10 C10        -3.8730  -16.1177  -46.2843 C.ar      23 UNK        -0.1150 
     11 C11        -3.8796  -16.7902  -47.5076 C.ar      23 UNK        -0.0193 
     12 C12        -3.4765  -18.1250  -47.5609 C.ar      23 UNK        -0.1150 
     13 C13        -3.0719  -18.7916  -46.4024 C.ar      23 UNK        -0.0193 
     14 C14        -3.0612  -18.1074  -45.1830 C.ar      23 UNK        -0.1150 
     15 C15        -2.6527  -20.2484  -46.4736 C.3       23 UNK        -0.0205 
     16 S16        -0.8544  -20.4146  -46.6948 S.3       23 UNK        -0.2404 
     17 C17        -0.7146  -22.0124  -47.5587 C.3       23 UNK        -0.0398 
     18 CA         -0.8496  -23.2844  -46.6851 C.3       11 UNK         0.1400 
     19 N           0.0100  -23.2836  -45.4952 N.am      11 UNK        -0.5000 
     20 C           0.4031  -24.4039  -44.8712 C.2       10 UNK         0.5000 
     21 O           0.0718  -25.5321  -45.2333 O.2       10 UNK        -0.5000 
     22 CA          1.2644  -24.2424  -43.6057 C.3       10 UNK         0.1400 
     23 CB          2.7181  -23.9129  -43.9767 C.3       10 UNK        -0.1800 
     24 N           0.7586  -23.2267  -42.6821 N.am      10 UNK        -0.5000 
     25 C          -0.4515  -23.2349  -42.1038 C.2       9 UNK         0.5000 
     26 O          -1.2891  -24.1153  -42.2979 O.2       9 UNK        -0.5000 
     27 CA         -0.7962  -22.0516  -41.1731 C.3       9 UNK         0.1400 
     28 CB         -0.6011  -22.4522  -39.7036 C.3       9 UNK        -0.1800 
     29 N          -0.0158  -20.8395  -41.4484 N.am      9 UNK        -0.5000 
     30 C          -0.0905  -20.1406  -42.5886 C.2       8 UNK         0.5000 
     31 O          -0.8789  -20.4259  -43.4914 O.2       8 UNK        -0.5000 
     32 CA          0.9039  -18.9792  -42.7771 C.3       8 UNK         0.1400 
     33 CB          2.3107  -19.3230  -42.2337 C.3       8 UNK        -0.1800 
     34 N           0.9664  -18.6735  -44.2035 N.am      8 UNK        -0.5000 
     35 C           1.5685  -17.6288  -44.7788 C.2       7 UNK         0.5000 
     36 O           2.1315  -16.7249  -44.1566 O.2       7 UNK        -0.5000 
     37 CA          1.4994  -17.5854  -46.3176 C.3       7 UNK         0.1400 
     38 CB          0.1801  -16.9563  -46.7871 C.3       7 UNK        -0.1800 
     39 N           2.6159  -16.8588  -46.9218 N.am      7 UNK        -0.5000 
     40 C           3.8960  -17.2571  -46.9066 C.2       6 UNK         0.5000 
     41 O           4.2717  -18.3218  -46.4136 O.2       6 UNK        -0.5000 
     42 CA          4.9342  -16.3320  -47.5773 C.3       6 UNK         0.1400 
     43 CB          5.4208  -16.9438  -48.9007 C.3       6 UNK        -0.1800 
     44 N           4.4185  -14.9901  -47.8521 N.am      6 UNK        -0.5000 
     45 C           4.2894  -14.0048  -46.9563 C.2       5 UNK         0.5000 
     46 O           4.6738  -14.0923  -45.7903 O.2       5 UNK        -0.5000 
     47 CA          3.5736  -12.7205  -47.4215 C.3       5 UNK         0.1400 
     48 CB          4.5656  -11.6807  -47.9744 C.3       5 UNK        -0.1800 
     49 N           2.4577  -12.9631  -48.3471 N.am      5 UNK        -0.5000 
     50 C           2.4809  -13.3737  -49.6246 C.2       4 UNK         0.5000 
     51 O           3.5143  -13.5980  -50.2542 O.2       4 UNK        -0.5000 
     52 CA          1.1228  -13.6503  -50.2882 C.3       4 UNK         0.1400 
     53 CB          0.7298  -15.1096  -50.0296 C.3       4 UNK        -0.1800 
     54 N           0.0780  -12.7691  -49.7635 N.am      4 UNK        -0.5000 
     55 C          -0.3636  -11.6662  -50.3837 C.2       3 UNK         0.5000 
     56 O          -0.0147  -11.3284  -51.5152 O.2       3 UNK        -0.5000 
     57 CA         -1.3391  -10.7659  -49.5978 C.3       3 UNK         0.1400 
     58 CB         -2.7909  -11.2146  -49.8160 C.3       3 UNK        -0.1800 
     59 N          -1.0568  -10.7319  -48.1616 N.am      3 UNK        -0.5000 
     60 C           0.0642  -10.2338  -47.6167 C.2       2 UNK         0.5000 
     61 O           0.9331   -9.6508  -48.2653 O.2       2 UNK        -0.5000 
     62 CA          0.2758  -10.4354  -46.1009 C.3       2 UNK         0.1400 
     63 CB          0.0160   -9.1234  -45.3450 C.3       2 UNK        -0.1800 
     64 N          -0.5437  -11.4913  -45.5006 N.am      2 UNK        -0.5000 
     65 C          -0.5492  -12.7893  -45.8400 C.2       1 UNK         0.5000 
     66 O           0.1748  -13.2605  -46.7182 O.2       1 UNK        -0.5000 
     67 C          -2.3219  -23.6174  -46.3657 C.2       11 UNK         0.5000 
     68 O          -3.0448  -24.0369  -47.2676 O.2       11 UNK        -0.5000 
     69 N          -2.7395  -23.4345  -45.1046 N.am      12 UNK        -0.5000 
     70 CA         -4.0666  -23.8123  -44.6198 C.3       12 UNK         0.1400 
     71 CB         -4.4134  -22.9859  -43.3715 C.3       12 UNK        -0.1800 
     72 C          -4.1538  -25.3228  -44.3324 C.2       12 UNK         0.5000 
     73 O          -5.2064  -25.9216  -44.5547 O.2       12 UNK        -0.5000 
     74 N          -3.0468  -25.9114  -43.8563 N.am      13 UNK        -0.5000 
     75 CA         -2.8863  -27.3521  -43.6598 C.3       13 UNK         0.1400 
     76 CB         -1.6723  -27.6054  -42.7526 C.3       13 UNK        -0.1800 
     77 C          -2.7430  -28.1121  -44.9930 C.2       13 UNK         0.5000 
     78 O          -3.2692  -29.2189  -45.1216 O.2       13 UNK        -0.5000 
     79 N          -2.0395  -27.5036  -45.9571 N.am      14 UNK        -0.5000 
     80 CA         -1.8816  -27.9888  -47.3284 C.3       14 UNK         0.1400 
     81 CB         -0.6805  -27.2674  -47.9655 C.3       14 UNK        -0.1800 
     82 C          -3.1561  -27.7996  -48.1808 C.2       14 UNK         0.5000 
     83 O          -4.1661  -27.2730  -47.7076 O.2       14 UNK        -0.5000 
     84 N          -3.0793  -28.2409  -49.4428 N.am      15 UNK        -0.5000 
     85 CA         -4.1156  -28.0588  -50.4593 C.3       15 UNK         0.1400 
     86 CB         -3.7471  -28.9039  -51.6894 C.3       15 UNK        -0.1800 
     87 C          -4.2893  -26.5817  -50.8641 C.2       15 UNK         0.5000 
     88 O          -3.3552  -25.7862  -50.7322 O.2       15 UNK        -0.5000 
     89 N          -5.4666  -26.2587  -51.4178 N.am      16 UNK        -0.5000 
     90 CA         -5.8717  -24.9160  -51.8546 C.3       16 UNK         0.1400 
     91 CB         -7.3147  -24.9733  -52.3770 C.3       16 UNK        -0.1800 
     92 C          -4.9476  -24.2650  -52.9041 C.2       16 UNK         0.5000 
     93 O          -4.9068  -23.0387  -52.9919 O.2       16 UNK        -0.5000 
     94 N          -4.1857  -25.0833  -53.6429 N.am      17 UNK        -0.5000 
     95 CA         -3.1365  -24.6522  -54.5679 C.3       17 UNK         0.1400 
     96 CB         -2.5914  -25.8811  -55.3107 C.3       17 UNK        -0.1800 
     97 C          -1.9873  -23.8806  -53.8851 C.2       17 UNK         0.5000 
     98 O          -1.3733  -23.0307  -54.5301 O.2       17 UNK        -0.5000 
     99 N          -1.7278  -24.1626  -52.5987 N.am      18 UNK        -0.5000 
    100 CA        -0.7698  -23.4179  -51.7809 C.3       18 UNK         0.1400 
    101 CB        -0.3504  -24.2693  -50.5717 C.3       18 UNK        -0.1800 
    102 C         -1.3553  -22.0730  -51.3172 C.2       18 UNK         0.5000 
    103 O         -0.6476  -21.0666  -51.3137 O.2       18 UNK        -0.5000 
    104 N         -2.6433  -22.0777  -50.9438 N.am      19 UNK        -0.5000 
    105 CA        -3.3786  -20.9023  -50.4704 C.3       19 UNK         0.1400 
    106 CB        -4.6826  -21.3577  -49.7993 C.3       19 UNK        -0.1800 
    107 C         -3.6624  -19.8699  -51.5785 C.2       19 UNK         0.5000 
    108 O         -3.8069  -18.6836  -51.2827 O.2       19 UNK        -0.5000 
    109 N         -3.6943  -20.3299  -52.8369 N.am      20 UNK        -0.5000 
    110 CA        -3.8706  -19.5291  -54.0514 C.3       20 UNK         0.1400 
    111 CB        -3.9848  -20.4778  -55.2547 C.3       20 UNK        -0.1800 
    112 C         -2.7710  -18.4727  -54.2978 C.2       20 UNK         0.5000 
    113 O         -2.9740  -17.5816  -55.1245 O.2       20 UNK        -0.5000 
    114 N         -1.6492  -18.5568  -53.5651 N.am      21 UNK        -0.5000 
    115 CA        -0.5346  -17.6039  -53.5687 C.3       21 UNK         0.1400 
    116 CB         0.5281  -18.0822  -52.5672 C.3       21 UNK        -0.1800 
    117 C         -0.9349  -16.1452  -53.2606 C.2       21 UNK         0.5000 
    118 O         -0.2376  -15.2286  -53.6966 O.2       21 UNK        -0.5000 
    119 N         -2.0486  -15.9534  -52.5398 N.am      22 UNK        -0.5000 
    120 CA        -2.6669  -14.6405  -52.2908 C.3       22 UNK         0.1400 
    121 C         -3.3298  -13.9917  -53.5438 C.2       22 UNK         0.5000 
    122 N         -3.5262  -14.7012  -54.6501 N.am      22 UNK        -0.7600 
    123 O         -3.6724  -12.8132  -53.5116 O.2       22 UNK        -0.5000 
    124 C124       -3.6780  -14.6906  -51.1176 C.3       23 UNK        -0.0398 
    125 S125       -2.9174  -15.2186  -49.5470 S.3       23 UNK        -0.2404 
    126 C126       -4.3175  -16.0786  -48.7744 C.3       23 UNK        -0.0205 
    127 H127       -4.7634  -10.5510  -44.8088 H         1 UNK         0.0600 
    128 H128       -4.7142  -11.7732  -43.5342 H         1 UNK         0.0600 
    129 H129       -5.7211  -12.0279  -44.9624 H         1 UNK         0.0600 
    130 H130       -2.8324  -12.9701  -43.5868 H         1 UNK         0.3000 
    131 H131       -1.9247  -14.3950  -45.8690 H         1 UNK         0.0600 
    132 H132        0.0226  -15.0183  -44.4395 H         1 UNK         0.0800 
    133 H133       -0.4367  -13.8370  -43.2624 H         1 UNK         0.0800 
    134 H134       -4.0181  -16.6101  -43.0833 H         1 UNK         0.0800 
    135 H135       -3.9527  -15.0687  -43.8597 H         1 UNK         0.0800 
    136 H136       -4.1898  -15.0854  -46.2462 H         1 UNK         0.1150 
    137 H137       -3.4786  -18.6396  -48.5092 H         1 UNK         0.1150 
    138 H138       -2.7396  -18.6166  -44.2851 H         1 UNK         0.1150 
    139 H139       -2.9474  -20.7518  -45.5528 H         1 UNK         0.0800 
    140 H140       -3.1836  -20.7477  -47.2839 H         1 UNK         0.0800 
    141 H141        0.2667  -22.0206  -48.0345 H         1 UNK         0.0800 
    142 H142       -1.4276  -22.0331  -48.3821 H         1 UNK         0.0800 
    143 H143       -0.5043  -24.1031  -47.3183 H         1 UNK         0.0600 
    144 H144        0.2716  -22.3812  -45.1236 H         1 UNK         0.3000 
    145 H145        1.2557  -25.1990  -43.0790 H         1 UNK         0.0600 
    146 H146        3.3569  -23.8988  -43.0933 H         1 UNK         0.0600 
    147 H147        3.1261  -24.6603  -44.6586 H         1 UNK         0.0600 
    148 H148        2.8008  -22.9416  -44.4661 H         1 UNK         0.0600 
    149 H149        1.3832  -22.4667  -42.4602 H         1 UNK         0.3000 
    150 H150       -1.8514  -21.8153  -41.3258 H         1 UNK         0.0600 
    151 H151        0.4422  -22.6820  -39.4838 H         1 UNK         0.0600 
    152 H152       -1.1907  -23.3368  -39.4584 H         1 UNK         0.0600 
    153 H153       -0.9196  -21.6553  -39.0314 H         1 UNK         0.0600 
    154 H154        0.6484  -20.5587  -40.7417 H         1 UNK         0.3000 
    155 H155        0.5073  -18.1095  -42.2502 H         1 UNK         0.0600 
    156 H156        2.7170  -20.2155  -42.7112 H         1 UNK         0.0600 
    157 H157        2.2952  -19.4975  -41.1577 H         1 UNK         0.0600 
    158 H158        3.0177  -18.5109  -42.4010 H         1 UNK         0.0600 
    159 H159        0.4281  -19.3176  -44.7735 H         1 UNK         0.3000 
    160 H160        1.5386  -18.6140  -46.6813 H         1 UNK         0.0600 
    161 H161        0.1868  -15.8733  -46.6847 H         1 UNK         0.0600 
    162 H162       -0.6614  -17.3255  -46.2050 H         1 UNK         0.0600 
    163 H163       -0.0250  -17.2032  -47.8285 H         1 UNK         0.0600 
    164 H164        2.4079  -15.9531  -47.3115 H         1 UNK         0.3000 
    165 H165        5.7882  -16.2506  -46.9016 H         1 UNK         0.0600 
    166 H166        5.8459  -17.9357  -48.7417 H         1 UNK         0.0600 
    167 H167        4.6066  -17.0460  -49.6193 H         1 UNK         0.0600 
    168 H168        6.1965  -16.3289  -49.3576 H         1 UNK         0.0600 
    169 H169        4.1243  -14.7945  -48.8034 H         1 UNK         0.3000 
    170 H170        3.1165  -12.2885  -46.5303 H         1 UNK         0.0600 
    171 H171        4.0518  -10.7645  -48.2663 H         1 UNK         0.0600 
    172 H172        5.1102  -12.0531  -48.8422 H         1 UNK         0.0600 
    173 H173        5.3055  -11.4131  -47.2192 H         1 UNK         0.0600 
    174 H174        1.5471  -12.9211  -47.8969 H         1 UNK         0.3000 
    175 H175        1.2378  -13.5155  -51.3659 H         1 UNK         0.0600 
    176 H176       -0.1843  -15.3705  -50.5560 H         1 UNK         0.0600 
    177 H177        1.5056  -15.7985  -50.3663 H         1 UNK         0.0600 
    178 H178        0.5625  -15.2865  -48.9698 H         1 UNK         0.0600 
    179 H179       -0.2533  -12.9651  -48.8271 H         1 UNK         0.3000 
    180 H180       -1.2352   -9.7505  -49.9858 H         1 UNK         0.0600 
    181 H181       -2.9766  -12.1921  -49.3711 H         1 UNK         0.0600 
    182 H182       -3.0273  -11.2829  -50.8789 H         1 UNK         0.0600 
    183 H183       -3.4921  -10.5092  -49.3699 H         1 UNK         0.0600 
    184 H184       -1.7317  -11.1866  -47.5587 H         1 UNK         0.3000 
    185 H185        1.3219  -10.7105  -45.9569 H         1 UNK         0.0600 
    186 H186        0.6334   -8.3148  -45.7388 H         1 UNK         0.0600 
    187 H187       -1.0259   -8.8116  -45.4290 H         1 UNK         0.0600 
    188 H188        0.2535   -9.2235  -44.2857 H         1 UNK         0.0600 
    189 H189       -1.1908  -11.1961  -44.7842 H         1 UNK         0.3000 
    190 H190       -2.0822  -23.0918  -44.4182 H         1 UNK         0.3000 
    191 H191       -4.8029  -23.5752  -45.3910 H         1 UNK         0.0600 
    192 H192       -4.3523  -21.9167  -43.5757 H         1 UNK         0.0600 
    193 H193       -5.4306  -23.1964  -43.0394 H         1 UNK         0.0600 
    194 H194       -3.7478  -23.2065  -42.5376 H         1 UNK         0.0600 
    195 H195       -2.2531  -25.3284  -43.6141 H         1 UNK         0.3000 
    196 H196       -3.7752  -27.7313  -43.1513 H         1 UNK         0.0600 
    197 H197       -1.5417  -28.6716  -42.5637 H         1 UNK         0.0600 
    198 H198       -1.7937  -27.1150  -41.7865 H         1 UNK         0.0600 
    199 H199       -0.7495  -27.2349  -43.2004 H         1 UNK         0.0600 
    200 H200       -1.5945  -26.6194  -45.7405 H         1 UNK         0.3000 
    201 H201       -1.6613  -29.0575  -47.2892 H         1 UNK         0.0600 
    202 H202       -0.4265  -27.6914  -48.9372 H         1 UNK         0.0600 
    203 H203       -0.8909  -26.2098  -48.1175 H         1 UNK         0.0600 
    204 H204        0.2091  -27.3481  -47.3405 H         1 UNK         0.0600 
    205 H205       -2.2101  -28.6397  -49.7646 H         1 UNK         0.3000 
    206 H206       -5.0615  -28.4211  -50.0514 H         1 UNK         0.0600 
    207 H207       -3.6466  -29.9577  -51.4286 H         1 UNK         0.0600 
    208 H208       -4.5159  -28.8358  -52.4601 H         1 UNK         0.0600 
    209 H209       -2.8064  -28.5772  -52.1350 H         1 UNK         0.0600 
    210 H210       -6.1665  -26.9805  -51.5139 H         1 UNK         0.3000 
    211 H211       -5.8541  -24.2723  -50.9732 H         1 UNK         0.0600 
    212 H212       -7.4036  -25.6345  -53.2399 H         1 UNK         0.0600 
    213 H213       -7.6596  -23.9848  -52.6838 H         1 UNK         0.0600 
    214 H214       -8.0002  -25.3291  -51.6076 H         1 UNK         0.0600 
    215 H215       -4.2851  -26.0774  -53.5029 H         1 UNK         0.3000 
    216 H216       -3.5923  -23.9813  -55.2992 H         1 UNK         0.0600 
    217 H217       -1.8216  -25.5943  -56.0285 H         1 UNK         0.0600 
    218 H218       -3.3797  -26.3882  -55.8673 H         1 UNK         0.0600 
    219 H219       -2.1473  -26.6022  -54.6231 H         1 UNK         0.0600 
    220 H220       -2.2879  -24.8597  -52.1167 H         1 UNK         0.3000 
    221 H221        0.1225  -23.2140  -52.3768 H         1 UNK         0.0600 
    222 H222       -1.1876  -24.4567  -49.8983 H         1 UNK         0.0600 
    223 H223        0.0478  -25.2342  -50.8858 H         1 UNK         0.0600 
    224 H224        0.4279  -23.7685  -49.9951 H         1 UNK         0.0600 
    225 H225       -3.1571  -22.9455  -50.9954 H         1 UNK         0.3000 
    226 H226       -2.7584  -20.4096  -49.7204 H         1 UNK         0.0600 
    227 H227       -5.2079  -20.5107  -49.3561 H         1 UNK         0.0600 
    228 H228       -5.3603  -21.8253  -50.5139 H         1 UNK         0.0600 
    229 H229       -4.4890  -22.0749  -49.0011 H         1 UNK         0.0600 
    230 H230       -3.6557  -21.3341  -52.9662 H         1 UNK         0.3000 
    231 H231       -4.8141  -18.9892  -53.9512 H         1 UNK         0.0600 
    232 H232       -3.0698  -21.0526  -55.3992 H         1 UNK         0.0600 
    233 H233       -4.1730  -19.9237  -56.1752 H         1 UNK         0.0600 
    234 H234       -4.8074  -21.1818  -55.1274 H         1 UNK         0.0600 
    235 H235       -1.5725  -19.3234  -52.9105 H         1 UNK         0.3000 
    236 H236       -0.0978  -17.6169  -54.5690 H         1 UNK         0.0600 
    237 H237        1.3886  -17.4119  -52.5568 H         1 UNK         0.0600 
    238 H238        0.1312  -18.1238  -51.5517 H         1 UNK         0.0600 
    239 H239        0.8943  -19.0765  -52.8238 H         1 UNK         0.0600 
    240 H240       -2.5531  -16.7598  -52.1959 H         1 UNK         0.3000 
    241 H241       -1.8656  -13.9591  -51.9982 H         1 UNK         0.0600 
    242 H242       -3.2541  -15.6774  -54.7104 H         1 UNK         0.3800 
    243 H243       -3.9533  -14.2582  -55.4479 H         1 UNK         0.3800 
    244 H244       -4.4991  -15.3640  -51.3688 H         1 UNK         0.0800 
    245 H245       -4.1291  -13.7114  -50.9500 H         1 UNK         0.0800 
    246 H246       -5.1068  -15.3595  -48.5504 H         1 UNK         0.0800 
    247 H247       -4.7405  -16.7994  -49.4758 H         1 UNK         0.0800 
@<TRIPOS>BOND
     1    1    2 1    
     2    1  127 1    
     3    1  128 1    
     4    1  129 1    
     5    2    3 2    
     6    2    4 am   BACKBONE|DICT|INTERRES
     7    4    5 1    
     8    4  130 1    
     9    5    6 1    
    10    5   65 1    
    11    5  131 1    
    12    6    7 1    
    13    6  132 1    
    14    6  133 1    
    15    7    8 1    
    16    8    9 1    
    17    8  134 1    
    18    8  135 1    
    19    9   10 ar   
    20    9   14 ar   
    21   10   11 ar   
    22   10  136 1    
    23   11   12 ar   
    24   11  126 1    
    25   12   13 ar   
    26   12  137 1    
    27   13   14 ar   
    28   13   15 1    
    29   14  138 1    
    30   15   16 1    
    31   15  139 1    
    32   15  140 1    
    33   16   17 1    
    34   17   18 1    
    35   17  141 1    
    36   17  142 1    
    37   18   19 1    
    38   18   67 1    
    39   18  143 1    
    40   19   20 am   BACKBONE|DICT|INTERRES
    41   19  144 1    
    42   20   21 2    
    43   20   22 1    
    44   22   23 1    
    45   22   24 1    
    46   22  145 1    
    47   23  146 1    
    48   23  147 1    
    49   23  148 1    
    50   24   25 am   BACKBONE|DICT|INTERRES
    51   24  149 1    
    52   25   26 2    
    53   25   27 1    
    54   27   28 1    
    55   27   29 1    
    56   27  150 1    
    57   28  151 1    
    58   28  152 1    
    59   28  153 1    
    60   29   30 am   BACKBONE|DICT|INTERRES
    61   29  154 1    
    62   30   31 2    
    63   30   32 1    
    64   32   33 1    
    65   32   34 1    
    66   32  155 1    
    67   33  156 1    
    68   33  157 1    
    69   33  158 1    
    70   34   35 am   BACKBONE|DICT|INTERRES
    71   34  159 1    
    72   35   36 2    
    73   35   37 1    
    74   37   38 1    
    75   37   39 1    
    76   37  160 1    
    77   38  161 1    
    78   38  162 1    
    79   38  163 1    
    80   39   40 am   BACKBONE|DICT|INTERRES
    81   39  164 1    
    82   40   41 2    
    83   40   42 1    
    84   42   43 1    
    85   42   44 1    
    86   42  165 1    
    87   43  166 1    
    88   43  167 1    
    89   43  168 1    
    90   44   45 am   BACKBONE|DICT|INTERRES
    91   44  169 1    
    92   45   46 2    
    93   45   47 1    
    94   47   48 1    
    95   47   49 1    
    96   47  170 1    
    97   48  171 1    
    98   48  172 1    
    99   48  173 1    
   100   49   50 am   BACKBONE|DICT|INTERRES
   101   49  174 1    
   102   50   51 2    
   103   50   52 1    
   104   52   53 1    
   105   52   54 1    
   106   52  175 1    
   107   53  176 1    
   108   53  177 1    
   109   53  178 1    
   110   54   55 am   BACKBONE|DICT|INTERRES
   111   54  179 1    
   112   55   56 2    
   113   55   57 1    
   114   57   58 1    
   115   57   59 1    
   116   57  180 1    
   117   58  181 1    
   118   58  182 1    
   119   58  183 1    
   120   59   60 am   BACKBONE|DICT|INTERRES
   121   59  184 1    
   122   60   61 2    
   123   60   62 1    
   124   62   63 1    
   125   62   64 1    
   126   62  185 1    
   127   63  186 1    
   128   63  187 1    
   129   63  188 1    
   130   64   65 am   BACKBONE|DICT|INTERRES
   131   64  189 1    
   132   65   66 2    
   133   67   68 2    
   134   67   69 am   BACKBONE|DICT|INTERRES
   135   69   70 1    
   136   69  190 1    
   137   70   71 1    
   138   70   72 1    
   139   70  191 1    
   140   71  192 1    
   141   71  193 1    
   142   71  194 1    
   143   72   73 2    
   144   72   74 am   BACKBONE|DICT|INTERRES
   145   74   75 1    
   146   74  195 1    
   147   75   76 1    
   148   75   77 1    
   149   75  196 1    
   150   76  197 1    
   151   76  198 1    
   152   76  199 1    
   153   77   78 2    
   154   77   79 am   BACKBONE|DICT|INTERRES
   155   79   80 1    
   156   79  200 1    
   157   80   81 1    
   158   80   82 1    
   159   80  201 1    
   160   81  202 1    
   161   81  203 1    
   162   81  204 1    
   163   82   83 2    
   164   82   84 am   BACKBONE|DICT|INTERRES
   165   84   85 1    
   166   84  205 1    
   167   85   86 1    
   168   85   87 1    
   169   85  206 1    
   170   86  207 1    
   171   86  208 1    
   172   86  209 1    
   173   87   88 2    
   174   87   89 am   BACKBONE|DICT|INTERRES
   175   89   90 1    
   176   89  210 1    
   177   90   91 1    
   178   90   92 1    
   179   90  211 1    
   180   91  212 1    
   181   91  213 1    
   182   91  214 1    
   183   92   93 2    
   184   92   94 am   BACKBONE|DICT|INTERRES
   185   94   95 1    
   186   94  215 1    
   187   95   96 1    
   188   95   97 1    
   189   95  216 1    
   190   96  217 1    
   191   96  218 1    
   192   96  219 1    
   193   97   98 2    
   194   97   99 am   BACKBONE|DICT|INTERRES
   195   99  100 1    
   196   99  220 1    
   197  100  101 1    
   198  100  102 1    
   199  100  221 1    
   200  101  222 1    
   201  101  223 1    
   202  101  224 1    
   203  102  103 2    
   204  102  104 am   BACKBONE|DICT|INTERRES
   205  104  105 1    
   206  104  225 1    
   207  105  106 1    
   208  105  107 1    
   209  105  226 1    
   210  106  227 1    
   211  106  228 1    
   212  106  229 1    
   213  107  108 2    
   214  107  109 am   BACKBONE|DICT|INTERRES
   215  109  110 1    
   216  109  230 1    
   217  110  111 1    
   218  110  112 1    
   219  110  231 1    
   220  111  232 1    
   221  111  233 1    
   222  111  234 1    
   223  112  113 2    
   224  112  114 am   BACKBONE|DICT|INTERRES
   225  114  115 1    
   226  114  235 1    
   227  115  116 1    
   228  115  117 1    
   229  115  236 1    
   230  116  237 1    
   231  116  238 1    
   232  116  239 1    
   233  117  118 2    
   234  117  119 am   BACKBONE|DICT|INTERRES
   235  119  120 1    
   236  119  240 1    
   237  120  121 1    
   238  120  124 1    
   239  120  241 1    
   240  121  122 am   BACKBONE|DICT|INTERRES
   241  121  123 2    
   242  122  242 1    
   243  122  243 1    
   244  124  125 1    
   245  124  244 1    
   246  124  245 1    
   247  125  126 1    
   248  126  246 1    
   249  126  247 1    
@<TRIPOS>SUBSTRUCTURE
     1 UNK         1 GROUP             0       ****    0 ROOT    
