@<TRIPOS>MOLECULE
3R540
247   249    1
SMALL
USER_CHARGES


@<TRIPOS>ATOM
      1 CA          4.4786  -13.3791  -50.7239 C.3       0 UNK        -0.1800 
      2 C           3.8535  -13.8084  -49.4044 C.2       0 UNK         0.5000 
      3 O           4.4897  -13.6906  -48.3564 O.2       0 UNK        -0.5000 
      4 N           2.6116  -14.3056  -49.4498 N.am      1 UNK        -0.5000 
      5 CA          1.8397  -14.7428  -48.2849 C.3       1 UNK         0.1400 
      6 C6          0.7803  -15.8106  -48.6593 C.3       23 UNK        -0.0398 
      7 S7          1.4866  -17.4850  -48.6920 S.3       23 UNK        -0.2404 
      8 C8          2.1397  -17.6012  -50.3856 C.3       23 UNK        -0.0205 
      9 C9          2.6008  -19.0193  -50.6820 C.ar      23 UNK        -0.0193 
     10 C10         1.9875  -19.7723  -51.6866 C.ar      23 UNK        -0.1150 
     11 C11         2.3672  -21.0992  -51.9170 C.ar      23 UNK        -0.0193 
     12 C12         3.3822  -21.6645  -51.1359 C.ar      23 UNK        -0.1150 
     13 C13         4.0210  -20.9128  -50.1445 C.ar      23 UNK        -0.0193 
     14 C14         3.6329  -19.5885  -49.9327 C.ar      23 UNK        -0.1150 
     15 C15         5.1329  -21.5186  -49.2995 C.3       23 UNK        -0.0205 
     16 S16         4.6580  -21.6523  -47.5454 S.3       23 UNK        -0.2404 
     17 C17         3.3820  -22.9537  -47.6118 C.3       23 UNK        -0.0398 
     18 CA          3.5137  -23.9571  -46.4390 C.3       11 UNK         0.1400 
     19 N           3.3153  -23.2936  -45.1462 N.am      11 UNK        -0.5000 
     20 C           3.8536  -23.6795  -43.9830 C.2       10 UNK         0.5000 
     21 O           4.6350  -24.6240  -43.8688 O.2       10 UNK        -0.5000 
     22 CA          3.4171  -22.8935  -42.7313 C.3       10 UNK         0.1400 
     23 CB          4.4062  -21.7567  -42.4339 C.3       10 UNK        -0.1800 
     24 N           2.0638  -22.3431  -42.8585 N.am      10 UNK        -0.5000 
     25 C           0.9447  -23.0830  -42.8154 C.2       9 UNK         0.5000 
     26 O           0.9429  -24.3001  -42.6325 O.2       9 UNK        -0.5000 
     27 CA         -0.3944  -22.3637  -43.0692 C.3       9 UNK         0.1400 
     28 CB         -1.0254  -21.9188  -41.7429 C.3       9 UNK        -0.1800 
     29 N          -0.2785  -21.2169  -43.9723 N.am      9 UNK        -0.5000 
     30 C           0.0914  -21.3091  -45.2580 C.2       8 UNK         0.5000 
     31 O           0.3399  -22.3795  -45.8153 O.2       8 UNK        -0.5000 
     32 CA          0.2511  -20.0019  -46.0531 C.3       8 UNK         0.1400 
     33 CB         -1.0253  -19.7067  -46.8453 C.3       8 UNK        -0.1800 
     34 N           0.5894  -18.8296  -45.2439 N.am      8 UNK        -0.5000 
     35 C           1.7159  -18.6834  -44.5319 C.2       7 UNK         0.5000 
     36 O           2.5367  -19.5850  -44.3620 O.2       7 UNK        -0.5000 
     37 CA          1.9585  -17.3060  -43.8950 C.3       7 UNK         0.1400 
     38 CB          2.3791  -16.2868  -44.9621 C.3       7 UNK        -0.1800 
     39 N           0.7516  -16.8189  -43.2353 N.am      7 UNK        -0.5000 
     40 C           0.5520  -16.8063  -41.9114 C.2       6 UNK         0.5000 
     41 O           1.3982  -17.1486  -41.0846 O.2       6 UNK        -0.5000 
     42 CA         -0.8383  -16.3493  -41.4214 C.3       6 UNK         0.1400 
     43 CB         -0.8191  -14.8506  -41.0963 C.3       6 UNK        -0.1800 
     44 N          -1.9140  -16.6133  -42.3800 N.am      6 UNK        -0.5000 
     45 C          -2.2669  -17.8354  -42.8034 C.2       5 UNK         0.5000 
     46 O          -1.7467  -18.8738  -42.3981 O.2       5 UNK        -0.5000 
     47 CA         -3.3390  -17.9205  -43.9019 C.3       5 UNK         0.1400 
     48 CB         -4.7256  -18.1649  -43.2901 C.3       5 UNK        -0.1800 
     49 N          -3.4064  -16.7587  -44.7918 N.am      5 UNK        -0.5000 
     50 C          -2.4030  -16.2411  -45.5155 C.2       4 UNK         0.5000 
     51 O          -1.2500  -16.6761  -45.5032 O.2       4 UNK        -0.5000 
     52 CA         -2.7349  -15.0088  -46.3796 C.3       4 UNK         0.1400 
     53 CB         -4.2379  -14.8625  -46.7046 C.3       4 UNK        -0.1800 
     54 N          -2.2226  -13.7625  -45.8031 N.am      4 UNK        -0.5000 
     55 C          -2.4426  -13.2695  -44.5721 C.2       3 UNK         0.5000 
     56 O          -3.0628  -13.8697  -43.6916 O.2       3 UNK        -0.5000 
     57 CA         -1.9024  -11.8450  -44.3025 C.3       3 UNK         0.1400 
     58 CB         -1.7702  -11.4967  -42.8049 C.3       3 UNK        -0.1800 
     59 N          -0.6643  -11.5377  -45.0276 N.am      3 UNK        -0.5000 
     60 C           0.5104  -12.1721  -44.9148 C.2       2 UNK         0.5000 
     61 O           0.7362  -13.0884  -44.1222 O.2       2 UNK        -0.5000 
     62 CA          1.6098  -11.7330  -45.8994 C.3       2 UNK         0.1400 
     63 CB          2.8391  -11.1938  -45.1518 C.3       2 UNK        -0.1800 
     64 N           2.0183  -12.8431  -46.7582 N.am      2 UNK        -0.5000 
     65 C           1.2132  -13.5208  -47.5868 C.2       1 UNK         0.5000 
     66 O           0.0409  -13.2093  -47.8126 O.2       1 UNK        -0.5000 
     67 C           2.5334  -25.1350  -46.6364 C.2       11 UNK         0.5000 
     68 O           2.6826  -25.8769  -47.6079 O.2       11 UNK        -0.5000 
     69 N           1.5374  -25.2650  -45.7437 N.am      12 UNK        -0.5000 
     70 CA          0.3758  -26.1582  -45.8242 C.3       12 UNK         0.1400 
     71 CB          0.8009  -27.6384  -45.7347 C.3       12 UNK        -0.1800 
     72 C          -0.5125  -25.8489  -47.0504 C.2       12 UNK         0.5000 
     73 O          -1.0978  -26.7565  -47.6430 O.2       12 UNK        -0.5000 
     74 N          -0.5911  -24.5596  -47.4040 N.am      13 UNK        -0.5000 
     75 CA         -1.2919  -24.0291  -48.5724 C.3       13 UNK         0.1400 
     76 CB         -0.3755  -22.9967  -49.2538 C.3       13 UNK        -0.1800 
     77 C          -2.6598  -23.4196  -48.2079 C.2       13 UNK         0.5000 
     78 O          -3.2391  -22.7083  -49.0287 O.2       13 UNK        -0.5000 
     79 N          -3.1510  -23.6856  -46.9880 N.am      14 UNK        -0.5000 
     80 CA         -4.3838  -23.1643  -46.3891 C.3       14 UNK         0.1400 
     81 CB         -5.6355  -23.6516  -47.1541 C.3       14 UNK        -0.1800 
     82 C          -4.3156  -21.6349  -46.2253 C.2       14 UNK         0.5000 
     83 O          -3.7889  -21.1692  -45.2161 O.2       14 UNK        -0.5000 
     84 N          -4.8143  -20.8956  -47.2234 N.am      15 UNK        -0.5000 
     85 CA         -4.7387  -19.4368  -47.3198 C.3       15 UNK         0.1400 
     86 CB         -6.1342  -18.8313  -47.0938 C.3       15 UNK        -0.1800 
     87 C          -4.0993  -18.9834  -48.6483 C.2       15 UNK         0.5000 
     88 O          -4.2066  -17.8071  -48.9974 O.2       15 UNK        -0.5000 
     89 N          -3.4421  -19.9112  -49.3644 N.am      16 UNK        -0.5000 
     90 CA         -2.7105  -19.7200  -50.6180 C.3       16 UNK         0.1400 
     91 CB         -1.4038  -18.9352  -50.3698 C.3       16 UNK        -0.1800 
     92 C          -3.6086  -19.1233  -51.7153 C.2       16 UNK         0.5000 
     93 O          -4.5489  -19.7911  -52.1490 O.2       16 UNK        -0.5000 
     94 N          -3.3274  -17.8829  -52.1318 N.am      17 UNK        -0.5000 
     95 CA         -4.0835  -17.1462  -53.1436 C.3       17 UNK         0.1400 
     96 CB         -3.3324  -15.8519  -53.4877 C.3       17 UNK        -0.1800 
     97 C          -5.5336  -16.8391  -52.7261 C.2       17 UNK         0.5000 
     98 O          -6.4087  -16.7993  -53.5906 O.2       17 UNK        -0.5000 
     99 N          -5.7783  -16.6696  -51.4178 N.am      18 UNK        -0.5000 
    100 CA        -7.1149  -16.4357  -50.8639 C.3       18 UNK         0.1400 
    101 CB        -6.9890  -15.7955  -49.4742 C.3       18 UNK        -0.1800 
    102 C         -7.9686  -17.7184  -50.8105 C.2       18 UNK         0.5000 
    103 O         -9.1960  -17.6274  -50.8388 O.2       18 UNK        -0.5000 
    104 N         -7.3107  -18.8858  -50.7650 N.am      19 UNK        -0.5000 
    105 CA        -7.9448  -20.2031  -50.8678 C.3       19 UNK         0.1400 
    106 CB        -7.1168  -21.2204  -50.0617 C.3       19 UNK        -0.1800 
    107 C         -8.0836  -20.6752  -52.3288 C.2       19 UNK         0.5000 
    108 O         -8.7650  -21.6709  -52.5741 O.2       19 UNK        -0.5000 
    109 N         -7.4002  -19.9854  -53.2565 N.am      20 UNK        -0.5000 
    110 CA        -7.1630  -20.3557  -54.6570 C.3       20 UNK         0.1400 
    111 CB        -8.4784  -20.3787  -55.4624 C.3       20 UNK        -0.1800 
    112 C         -6.3415  -21.6583  -54.7952 C.2       20 UNK         0.5000 
    113 O         -6.4559  -22.3612  -55.8007 O.2       20 UNK        -0.5000 
    114 N         -5.5234  -21.9525  -53.7762 N.am      21 UNK        -0.5000 
    115 CA        -4.6429  -23.1160  -53.7025 C.3       21 UNK         0.1400 
    116 CB        -4.4244  -23.4688  -52.2224 C.3       21 UNK        -0.1800 
    117 C         -3.2932  -22.8571  -54.3935 C.2       21 UNK         0.5000 
    118 O         -2.6542  -23.8064  -54.8488 O.2       21 UNK        -0.5000 
    119 N         -2.8932  -21.5826  -54.4559 N.am      22 UNK        -0.5000 
    120 CA        -1.6503  -21.0919  -55.0620 C.3       22 UNK         0.1400 
    121 C         -1.9617  -19.9474  -56.0611 C.2       22 UNK         0.5000 
    122 N         -1.1159  -19.7440  -57.0613 N.am      22 UNK        -0.7600 
    123 O         -2.9457  -19.2230  -55.9260 O.2       22 UNK        -0.5000 
    124 C124       -0.6434  -20.6154  -53.9829 C.3       23 UNK        -0.0398 
    125 S125       -0.1139  -21.9683  -52.8724 S.3       23 UNK        -0.2404 
    126 C126        1.7039  -21.9232  -53.0165 C.3       23 UNK        -0.0205 
    127 H127        3.8059  -13.5468  -51.5654 H         1 UNK         0.0600 
    128 H128        5.3951  -13.9408  -50.9045 H         1 UNK         0.0600 
    129 H129        4.7277  -12.3183  -50.6933 H         1 UNK         0.0600 
    130 H130        2.1273  -14.3406  -50.3350 H         1 UNK         0.3000 
    131 H131        2.5297  -15.1930  -47.5694 H         1 UNK         0.0600 
    132 H132       -0.0106  -15.8531  -47.9093 H         1 UNK         0.0800 
    133 H133        0.2856  -15.5811  -49.6041 H         1 UNK         0.0800 
    134 H134        2.9813  -16.9178  -50.5028 H         1 UNK         0.0800 
    135 H135        1.3720  -17.2872  -51.0940 H         1 UNK         0.0800 
    136 H136        1.2038  -19.3290  -52.2816 H         1 UNK         0.1150 
    137 H137        3.6822  -22.6891  -51.3048 H         1 UNK         0.1150 
    138 H138        4.1140  -19.0079  -49.1578 H         1 UNK         0.1150 
    139 H139        5.4253  -22.4999  -49.6762 H         1 UNK         0.0800 
    140 H140        6.0183  -20.8861  -49.3760 H         1 UNK         0.0800 
    141 H141        2.4011  -22.4757  -47.6118 H         1 UNK         0.0800 
    142 H142        3.4642  -23.4738  -48.5679 H         1 UNK         0.0800 
    143 H143        4.5203  -24.3797  -46.4689 H         1 UNK         0.0600 
    144 H144        2.6862  -22.5028  -45.1465 H         1 UNK         0.3000 
    145 H145        3.4290  -23.5827  -41.8842 H         1 UNK         0.0600 
    146 H146        4.1129  -21.1984  -41.5447 H         1 UNK         0.0600 
    147 H147        4.4760  -21.0542  -43.2649 H         1 UNK         0.0600 
    148 H148        5.4077  -22.1503  -42.2557 H         1 UNK         0.0600 
    149 H149        1.9940  -21.3546  -43.0679 H         1 UNK         0.3000 
    150 H150       -1.0679  -23.0851  -43.5369 H         1 UNK         0.0600 
    151 H151       -1.1080  -22.7544  -41.0466 H         1 UNK         0.0600 
    152 H152       -2.0316  -21.5294  -41.8996 H         1 UNK         0.0600 
    153 H153       -0.4347  -21.1411  -41.2572 H         1 UNK         0.0600 
    154 H154       -0.4970  -20.3075  -43.5836 H         1 UNK         0.3000 
    155 H155        1.0651  -20.1528  -46.7656 H         1 UNK         0.0600 
    156 H156       -1.2875  -20.5340  -47.5034 H         1 UNK         0.0600 
    157 H157       -0.9162  -18.8143  -47.4599 H         1 UNK         0.0600 
    158 H158       -1.8663  -19.5448  -46.1786 H         1 UNK         0.0600 
    159 H159       -0.0375  -18.0338  -45.3355 H         1 UNK         0.3000 
    160 H160        2.7782  -17.4064  -43.1807 H         1 UNK         0.0600 
    161 H161        1.5674  -16.1012  -45.6651 H         1 UNK         0.0600 
    162 H162        3.2410  -16.6399  -45.5298 H         1 UNK         0.0600 
    163 H163        2.6500  -15.3324  -44.5099 H         1 UNK         0.0600 
    164 H164       -0.0118  -16.5423  -43.8419 H         1 UNK         0.3000 
    165 H165       -1.0657  -16.8990  -40.5058 H         1 UNK         0.0600 
    166 H166       -1.7873  -14.5066  -40.7323 H         1 UNK         0.0600 
    167 H167       -0.0793  -14.6250  -40.3273 H         1 UNK         0.0600 
    168 H168       -0.5628  -14.2673  -41.9798 H         1 UNK         0.0600 
    169 H169       -2.3767  -15.8065  -42.7831 H         1 UNK         0.3000 
    170 H170       -3.0832  -18.7858  -44.5073 H         1 UNK         0.0600 
    171 H171       -4.7162  -19.0425  -42.6422 H         1 UNK         0.0600 
    172 H172       -5.0566  -17.3154  -42.6915 H         1 UNK         0.0600 
    173 H173       -5.4718  -18.3454  -44.0638 H         1 UNK         0.0600 
    174 H174       -4.2965  -16.2841  -44.8290 H         1 UNK         0.3000 
    175 H175       -2.2129  -15.1518  -47.3262 H         1 UNK         0.0600 
    176 H176       -4.8354  -14.6344  -45.8214 H         1 UNK         0.0600 
    177 H177       -4.4011  -14.0612  -47.4253 H         1 UNK         0.0600 
    178 H178       -4.6328  -15.7749  -47.1516 H         1 UNK         0.0600 
    179 H179       -1.6257  -13.2267  -46.4229 H         1 UNK         0.3000 
    180 H180       -2.6603  -11.1770  -44.7140 H         1 UNK         0.0600 
    181 H181       -1.5312  -10.4417  -42.6719 H         1 UNK         0.0600 
    182 H182       -0.9879  -12.0734  -42.3153 H         1 UNK         0.0600 
    183 H183       -2.7016  -11.6838  -42.2693 H         1 UNK         0.0600 
    184 H184       -0.7469  -10.8140  -45.7285 H         1 UNK         0.3000 
    185 H185        1.2239  -10.9381  -46.5409 H         1 UNK         0.0600 
    186 H186        3.2932  -11.9578  -44.5193 H         1 UNK         0.0600 
    187 H187        3.5997  -10.8386  -45.8474 H         1 UNK         0.0600 
    188 H188        2.5676  -10.3547  -44.5100 H         1 UNK         0.0600 
    189 H189        2.9813  -13.1431  -46.6799 H         1 UNK         0.3000 
    190 H190        1.5170  -24.6033  -44.9801 H         1 UNK         0.3000 
    191 H191       -0.2337  -25.9390  -44.9464 H         1 UNK         0.0600 
    192 H192       -0.0695  -28.2886  -45.6405 H         1 UNK         0.0600 
    193 H193        1.4320  -27.8145  -44.8636 H         1 UNK         0.0600 
    194 H194        1.3518  -27.9591  -46.6192 H         1 UNK         0.0600 
    195 H195       -0.1179  -23.8665  -46.8273 H         1 UNK         0.3000 
    196 H196       -1.4868  -24.8283  -49.2901 H         1 UNK         0.0600 
    197 H197       -0.0865  -22.1954  -48.5752 H         1 UNK         0.0600 
    198 H198       -0.8654  -22.5375  -50.1116 H         1 UNK         0.0600 
    199 H199        0.5389  -23.4644  -49.6193 H         1 UNK         0.0600 
    200 H200       -2.5805  -24.2560  -46.3817 H         1 UNK         0.3000 
    201 H201       -4.4378  -23.5799  -45.3817 H         1 UNK         0.0600 
    202 H202       -5.6400  -23.3486  -48.2010 H         1 UNK         0.0600 
    203 H203       -6.5464  -23.2633  -46.6969 H         1 UNK         0.0600 
    204 H204       -5.7028  -24.7393  -47.1302 H         1 UNK         0.0600 
    205 H205       -5.1884  -21.3817  -48.0261 H         1 UNK         0.3000 
    206 H206       -4.0894  -19.0480  -46.5382 H         1 UNK         0.0600 
    207 H207       -6.6178  -19.2670  -46.2196 H         1 UNK         0.0600 
    208 H208       -6.0641  -17.7590  -46.9143 H         1 UNK         0.0600 
    209 H209       -6.7916  -18.9797  -47.9490 H         1 UNK         0.0600 
    210 H210       -3.4357  -20.8722  -49.0310 H         1 UNK         0.3000 
    211 H211       -2.4323  -20.7135  -50.9721 H         1 UNK         0.0600 
    212 H212       -1.5762  -17.9879  -49.8580 H         1 UNK         0.0600 
    213 H213       -0.8797  -18.7187  -51.2996 H         1 UNK         0.0600 
    214 H214       -0.7162  -19.5214  -49.7608 H         1 UNK         0.0600 
    215 H215       -2.5613  -17.3923  -51.6950 H         1 UNK         0.3000 
    216 H216       -4.1296  -17.7640  -54.0420 H         1 UNK         0.0600 
    217 H217       -3.2281  -15.2029  -52.6174 H         1 UNK         0.0600 
    218 H218       -2.3344  -16.0662  -53.8708 H         1 UNK         0.0600 
    219 H219       -3.8598  -15.2875  -54.2580 H         1 UNK         0.0600 
    220 H220       -5.0196  -16.7667  -50.7520 H         1 UNK         0.3000 
    221 H221       -7.6368  -15.7251  -51.5085 H         1 UNK         0.0600 
    222 H222       -7.9713  -15.5797  -49.0521 H         1 UNK         0.0600 
    223 H223       -6.4698  -16.4489  -48.7767 H         1 UNK         0.0600 
    224 H224       -6.4408  -14.8545  -49.5211 H         1 UNK         0.0600 
    225 H225       -6.3003  -18.8690  -50.7724 H         1 UNK         0.3000 
    226 H226       -8.9486  -20.1670  -50.4394 H         1 UNK         0.0600 
    227 H227       -7.1486  -20.9969  -48.9971 H         1 UNK         0.0600 
    228 H228       -7.5092  -22.2312  -50.1810 H         1 UNK         0.0600 
    229 H229       -6.0732  -21.2386  -50.3776 H         1 UNK         0.0600 
    230 H230       -6.8771  -19.1830  -52.9363 H         1 UNK         0.3000 
    231 H231       -6.5381  -19.5637  -55.0726 H         1 UNK         0.0600 
    232 H232       -8.2803  -20.4898  -56.5290 H         1 UNK         0.0600 
    233 H233       -9.0360  -19.4513  -55.3321 H         1 UNK         0.0600 
    234 H234       -9.1245  -21.2047  -55.1645 H         1 UNK         0.0600 
    235 H235       -5.4406  -21.2787  -53.0209 H         1 UNK         0.3000 
    236 H236       -5.1206  -23.9659  -54.1942 H         1 UNK         0.0600 
    237 H237       -5.3680  -23.6939  -51.7252 H         1 UNK         0.0600 
    238 H238       -3.7830  -24.3446  -52.1175 H         1 UNK         0.0600 
    239 H239       -3.9498  -22.6498  -51.6807 H         1 UNK         0.0600 
    240 H240       -3.5192  -20.8655  -54.1163 H         1 UNK         0.3000 
    241 H241       -1.1850  -21.8953  -55.6364 H         1 UNK         0.0600 
    242 H242       -0.3012  -20.3227  -57.1974 H         1 UNK         0.3800 
    243 H243       -1.3030  -18.9969  -57.7122 H         1 UNK         0.3800 
    244 H244       -1.0865  -19.8253  -53.3773 H         1 UNK         0.0800 
    245 H245        0.2345  -20.1722  -54.4551 H         1 UNK         0.0800 
    246 H246        2.0599  -22.9536  -52.9756 H         1 UNK         0.0800 
    247 H247        2.0064  -21.5425  -53.9924 H         1 UNK         0.0800 
@<TRIPOS>BOND
     1    1    2 1    
     2    1  127 1    
     3    1  128 1    
     4    1  129 1    
     5    2    3 2    
     6    2    4 am   BACKBONE|DICT|INTERRES
     7    4    5 1    
     8    4  130 1    
     9    5    6 1    
    10    5   65 1    
    11    5  131 1    
    12    6    7 1    
    13    6  132 1    
    14    6  133 1    
    15    7    8 1    
    16    8    9 1    
    17    8  134 1    
    18    8  135 1    
    19    9   10 ar   
    20    9   14 ar   
    21   10   11 ar   
    22   10  136 1    
    23   11   12 ar   
    24   11  126 1    
    25   12   13 ar   
    26   12  137 1    
    27   13   14 ar   
    28   13   15 1    
    29   14  138 1    
    30   15   16 1    
    31   15  139 1    
    32   15  140 1    
    33   16   17 1    
    34   17   18 1    
    35   17  141 1    
    36   17  142 1    
    37   18   19 1    
    38   18   67 1    
    39   18  143 1    
    40   19   20 am   BACKBONE|DICT|INTERRES
    41   19  144 1    
    42   20   21 2    
    43   20   22 1    
    44   22   23 1    
    45   22   24 1    
    46   22  145 1    
    47   23  146 1    
    48   23  147 1    
    49   23  148 1    
    50   24   25 am   BACKBONE|DICT|INTERRES
    51   24  149 1    
    52   25   26 2    
    53   25   27 1    
    54   27   28 1    
    55   27   29 1    
    56   27  150 1    
    57   28  151 1    
    58   28  152 1    
    59   28  153 1    
    60   29   30 am   BACKBONE|DICT|INTERRES
    61   29  154 1    
    62   30   31 2    
    63   30   32 1    
    64   32   33 1    
    65   32   34 1    
    66   32  155 1    
    67   33  156 1    
    68   33  157 1    
    69   33  158 1    
    70   34   35 am   BACKBONE|DICT|INTERRES
    71   34  159 1    
    72   35   36 2    
    73   35   37 1    
    74   37   38 1    
    75   37   39 1    
    76   37  160 1    
    77   38  161 1    
    78   38  162 1    
    79   38  163 1    
    80   39   40 am   BACKBONE|DICT|INTERRES
    81   39  164 1    
    82   40   41 2    
    83   40   42 1    
    84   42   43 1    
    85   42   44 1    
    86   42  165 1    
    87   43  166 1    
    88   43  167 1    
    89   43  168 1    
    90   44   45 am   BACKBONE|DICT|INTERRES
    91   44  169 1    
    92   45   46 2    
    93   45   47 1    
    94   47   48 1    
    95   47   49 1    
    96   47  170 1    
    97   48  171 1    
    98   48  172 1    
    99   48  173 1    
   100   49   50 am   BACKBONE|DICT|INTERRES
   101   49  174 1    
   102   50   51 2    
   103   50   52 1    
   104   52   53 1    
   105   52   54 1    
   106   52  175 1    
   107   53  176 1    
   108   53  177 1    
   109   53  178 1    
   110   54   55 am   BACKBONE|DICT|INTERRES
   111   54  179 1    
   112   55   56 2    
   113   55   57 1    
   114   57   58 1    
   115   57   59 1    
   116   57  180 1    
   117   58  181 1    
   118   58  182 1    
   119   58  183 1    
   120   59   60 am   BACKBONE|DICT|INTERRES
   121   59  184 1    
   122   60   61 2    
   123   60   62 1    
   124   62   63 1    
   125   62   64 1    
   126   62  185 1    
   127   63  186 1    
   128   63  187 1    
   129   63  188 1    
   130   64   65 am   BACKBONE|DICT|INTERRES
   131   64  189 1    
   132   65   66 2    
   133   67   68 2    
   134   67   69 am   BACKBONE|DICT|INTERRES
   135   69   70 1    
   136   69  190 1    
   137   70   71 1    
   138   70   72 1    
   139   70  191 1    
   140   71  192 1    
   141   71  193 1    
   142   71  194 1    
   143   72   73 2    
   144   72   74 am   BACKBONE|DICT|INTERRES
   145   74   75 1    
   146   74  195 1    
   147   75   76 1    
   148   75   77 1    
   149   75  196 1    
   150   76  197 1    
   151   76  198 1    
   152   76  199 1    
   153   77   78 2    
   154   77   79 am   BACKBONE|DICT|INTERRES
   155   79   80 1    
   156   79  200 1    
   157   80   81 1    
   158   80   82 1    
   159   80  201 1    
   160   81  202 1    
   161   81  203 1    
   162   81  204 1    
   163   82   83 2    
   164   82   84 am   BACKBONE|DICT|INTERRES
   165   84   85 1    
   166   84  205 1    
   167   85   86 1    
   168   85   87 1    
   169   85  206 1    
   170   86  207 1    
   171   86  208 1    
   172   86  209 1    
   173   87   88 2    
   174   87   89 am   BACKBONE|DICT|INTERRES
   175   89   90 1    
   176   89  210 1    
   177   90   91 1    
   178   90   92 1    
   179   90  211 1    
   180   91  212 1    
   181   91  213 1    
   182   91  214 1    
   183   92   93 2    
   184   92   94 am   BACKBONE|DICT|INTERRES
   185   94   95 1    
   186   94  215 1    
   187   95   96 1    
   188   95   97 1    
   189   95  216 1    
   190   96  217 1    
   191   96  218 1    
   192   96  219 1    
   193   97   98 2    
   194   97   99 am   BACKBONE|DICT|INTERRES
   195   99  100 1    
   196   99  220 1    
   197  100  101 1    
   198  100  102 1    
   199  100  221 1    
   200  101  222 1    
   201  101  223 1    
   202  101  224 1    
   203  102  103 2    
   204  102  104 am   BACKBONE|DICT|INTERRES
   205  104  105 1    
   206  104  225 1    
   207  105  106 1    
   208  105  107 1    
   209  105  226 1    
   210  106  227 1    
   211  106  228 1    
   212  106  229 1    
   213  107  108 2    
   214  107  109 am   BACKBONE|DICT|INTERRES
   215  109  110 1    
   216  109  230 1    
   217  110  111 1    
   218  110  112 1    
   219  110  231 1    
   220  111  232 1    
   221  111  233 1    
   222  111  234 1    
   223  112  113 2    
   224  112  114 am   BACKBONE|DICT|INTERRES
   225  114  115 1    
   226  114  235 1    
   227  115  116 1    
   228  115  117 1    
   229  115  236 1    
   230  116  237 1    
   231  116  238 1    
   232  116  239 1    
   233  117  118 2    
   234  117  119 am   BACKBONE|DICT|INTERRES
   235  119  120 1    
   236  119  240 1    
   237  120  121 1    
   238  120  124 1    
   239  120  241 1    
   240  121  122 am   BACKBONE|DICT|INTERRES
   241  121  123 2    
   242  122  242 1    
   243  122  243 1    
   244  124  125 1    
   245  124  244 1    
   246  124  245 1    
   247  125  126 1    
   248  126  246 1    
   249  126  247 1    
@<TRIPOS>SUBSTRUCTURE
     1 UNK         1 GROUP             0       ****    0 ROOT    
