@<TRIPOS>MOLECULE
3R540
247   249    1
SMALL
USER_CHARGES


@<TRIPOS>ATOM
      1 CA         -4.0043   -8.6196  -47.4791 C.3       0 UNK        -0.1800 
      2 C          -2.6389   -9.2845  -47.5841 C.2       0 UNK         0.5000 
      3 O          -1.6167   -8.6082  -47.4653 O.2       0 UNK        -0.5000 
      4 N          -2.6196  -10.6027  -47.8132 N.am      1 UNK        -0.5000 
      5 CA         -1.4082  -11.4259  -47.8937 C.3       1 UNK         0.1400 
      6 C6         -1.6745  -12.8016  -48.5518 C.3       23 UNK        -0.0398 
      7 S7         -2.3920  -12.6661  -50.2270 S.3       23 UNK        -0.2404 
      8 C8         -4.1600  -12.9661  -49.9035 C.3       23 UNK        -0.0205 
      9 C9         -4.5676  -14.4054  -50.1851 C.ar      23 UNK        -0.0193 
     10 C10        -5.3164  -14.7092  -51.3259 C.ar      23 UNK        -0.1150 
     11 C11        -5.7494  -16.0163  -51.5673 C.ar      23 UNK        -0.0193 
     12 C12        -5.4052  -17.0311  -50.6686 C.ar      23 UNK        -0.1150 
     13 C13        -4.6478  -16.7425  -49.5295 C.ar      23 UNK        -0.0193 
     14 C14        -4.2388  -15.4273  -49.2898 C.ar      23 UNK        -0.1150 
     15 C15        -4.2785  -17.8443  -48.5497 C.3       23 UNK        -0.0205 
     16 S16        -5.6955  -18.2982  -47.5023 S.3       23 UNK        -0.2404 
     17 C17        -4.8471  -19.0578  -46.0810 C.3       23 UNK        -0.0398 
     18 CA         -4.3481  -20.5012  -46.3737 C.3       11 UNK         0.1400 
     19 N          -2.8830  -20.6087  -46.3179 N.am      11 UNK        -0.5000 
     20 C          -2.1736  -21.7161  -46.5808 C.2       10 UNK         0.5000 
     21 O          -2.6811  -22.7819  -46.9223 O.2       10 UNK        -0.5000 
     22 CA         -0.6516  -21.6523  -46.3758 C.3       10 UNK         0.1400 
     23 CB          0.0342  -20.9247  -47.5407 C.3       10 UNK        -0.1800 
     24 N          -0.2997  -21.0275  -45.1026 N.am      10 UNK        -0.5000 
     25 C          -0.6199  -21.5348  -43.9026 C.2       9 UNK         0.5000 
     26 O          -1.1601  -22.6291  -43.7441 O.2       9 UNK        -0.5000 
     27 CA         -0.3398  -20.6486  -42.6770 C.3       9 UNK         0.1400 
     28 CB          1.1167  -20.7944  -42.2112 C.3       9 UNK        -0.1800 
     29 N          -0.6364  -19.2393  -42.9346 N.am      9 UNK        -0.5000 
     30 C          -1.8644  -18.7448  -43.1495 C.2       8 UNK         0.5000 
     31 O          -2.8934  -19.4218  -43.1267 O.2       8 UNK        -0.5000 
     32 CA         -1.9411  -17.2473  -43.5029 C.3       8 UNK         0.1400 
     33 CB         -1.8506  -16.3807  -42.2375 C.3       8 UNK        -0.1800 
     34 N          -0.8933  -16.8417  -44.4418 N.am      8 UNK        -0.5000 
     35 C          -0.7825  -17.2932  -45.6988 C.2       7 UNK         0.5000 
     36 O          -1.5758  -18.0756  -46.2164 O.2       7 UNK        -0.5000 
     37 CA          0.4548  -16.8402  -46.4898 C.3       7 UNK         0.1400 
     38 CB          0.1934  -15.4923  -47.1699 C.3       7 UNK        -0.1800 
     39 N           1.6558  -16.7609  -45.6556 N.am      7 UNK        -0.5000 
     40 C           2.2433  -17.8334  -45.1009 C.2       6 UNK         0.5000 
     41 O           1.7909  -18.9740  -45.2109 O.2       6 UNK        -0.5000 
     42 CA          3.5076  -17.6043  -44.2492 C.3       6 UNK         0.1400 
     43 CB          4.5111  -18.7721  -44.3475 C.3       6 UNK        -0.1800 
     44 N           4.1608  -16.3145  -44.4903 N.am      6 UNK        -0.5000 
     45 C           4.7969  -15.8988  -45.5979 C.2       5 UNK         0.5000 
     46 O           4.9391  -16.5929  -46.6048 O.2       5 UNK        -0.5000 
     47 CA          5.3530  -14.4580  -45.5933 C.3       5 UNK         0.1400 
     48 CB          4.8480  -13.6661  -46.8117 C.3       5 UNK        -0.1800 
     49 N           4.9916  -13.7284  -44.3755 N.am      5 UNK        -0.5000 
     50 C           5.7184  -13.6982  -43.2489 C.2       4 UNK         0.5000 
     51 O           6.8325  -14.2106  -43.1414 O.2       4 UNK        -0.5000 
     52 CA          5.0804  -13.0099  -42.0238 C.3       4 UNK         0.1400 
     53 CB          5.5906  -11.5666  -41.8948 C.3       4 UNK        -0.1800 
     54 N           3.6149  -12.9939  -42.0602 N.am      4 UNK        -0.5000 
     55 C           2.8237  -14.0756  -41.9941 C.2       3 UNK         0.5000 
     56 O           3.2464  -15.2204  -41.8407 O.2       3 UNK        -0.5000 
     57 CA          1.3153  -13.8472  -42.2143 C.3       3 UNK         0.1400 
     58 CB          0.5917  -13.6485  -40.8751 C.3       3 UNK        -0.1800 
     59 N           1.0464  -12.7038  -43.0908 N.am      3 UNK        -0.5000 
     60 C           1.3633  -12.6598  -44.3914 C.2       2 UNK         0.5000 
     61 O           1.8453  -13.6134  -45.0081 O.2       2 UNK        -0.5000 
     62 CA          1.2155  -11.2923  -45.0799 C.3       2 UNK         0.1400 
     63 CB          2.5995  -10.6628  -45.3040 C.3       2 UNK        -0.1800 
     64 N           0.5104  -11.3602  -46.3585 N.am      2 UNK        -0.5000 
     65 C          -0.8019  -11.5912  -46.4835 C.2       1 UNK         0.5000 
     66 O          -1.5366  -11.8923  -45.5393 O.2       1 UNK        -0.5000 
     67 C          -5.0461  -21.5330  -45.4630 C.2       11 UNK         0.5000 
     68 O          -5.9685  -22.2151  -45.9119 O.2       11 UNK        -0.5000 
     69 N          -4.5448  -21.6771  -44.2275 N.am      12 UNK        -0.5000 
     70 CA         -4.9935  -22.6729  -43.2492 C.3       12 UNK         0.1400 
     71 CB         -4.3115  -22.3916  -41.9019 C.3       12 UNK        -0.1800 
     72 C          -4.7528  -24.1345  -43.6868 C.2       12 UNK         0.5000 
     73 O          -5.4645  -25.0278  -43.2273 O.2       12 UNK        -0.5000 
     74 N          -3.7841  -24.3469  -44.5857 N.am      13 UNK        -0.5000 
     75 CA         -3.4445  -25.6259  -45.2069 C.3       13 UNK         0.1400 
     76 CB         -1.9108  -25.7492  -45.2587 C.3       13 UNK        -0.1800 
     77 C          -4.0824  -25.7785  -46.6057 C.2       13 UNK         0.5000 
     78 O          -3.5614  -26.5349  -47.4263 O.2       13 UNK        -0.5000 
     79 N          -5.1831  -25.0552  -46.8683 N.am      14 UNK        -0.5000 
     80 CA         -5.9575  -25.0392  -48.1159 C.3       14 UNK         0.1400 
     81 CB         -6.6228  -26.4085  -48.3700 C.3       14 UNK        -0.1800 
     82 C          -5.1226  -24.5416  -49.3123 C.2       14 UNK         0.5000 
     83 O          -5.0340  -25.2151  -50.3411 O.2       14 UNK        -0.5000 
     84 N          -4.4844  -23.3788  -49.1205 N.am      15 UNK        -0.5000 
     85 CA         -3.5342  -22.7299  -50.0314 C.3       15 UNK         0.1400 
     86 CB         -4.2436  -22.2676  -51.3193 C.3       15 UNK        -0.1800 
     87 C          -2.2958  -23.6145  -50.2878 C.2       15 UNK         0.5000 
     88 O          -1.8489  -23.7455  -51.4272 O.2       15 UNK        -0.5000 
     89 N          -1.8016  -24.2421  -49.2095 N.am      16 UNK        -0.5000 
     90 CA         -0.7420  -25.2547  -49.1632 C.3       16 UNK         0.1400 
     91 CB          0.6286  -24.6124  -49.4580 C.3       16 UNK        -0.1800 
     92 C          -1.0553  -26.4546  -50.0806 C.2       16 UNK         0.5000 
     93 O          -0.2390  -26.8151  -50.9274 O.2       16 UNK        -0.5000 
     94 N          -2.2698  -27.0058  -49.9395 N.am      17 UNK        -0.5000 
     95 CA         -2.8787  -28.0265  -50.8027 C.3       17 UNK         0.1400 
     96 CB         -2.1953  -29.3927  -50.5900 C.3       17 UNK        -0.1800 
     97 C          -2.9215  -27.5921  -52.2865 C.2       17 UNK         0.5000 
     98 O          -2.5988  -28.3774  -53.1796 O.2       17 UNK        -0.5000 
     99 N          -3.2870  -26.3208  -52.5003 N.am      18 UNK        -0.5000 
    100 CA        -3.3288  -25.5816  -53.7659 C.3       18 UNK         0.1400 
    101 CB        -4.3583  -26.2028  -54.7320 C.3       18 UNK        -0.1800 
    102 C         -1.9573  -25.3427  -54.4405 C.2       18 UNK         0.5000 
    103 O         -1.9322  -24.8979  -55.5893 O.2       18 UNK        -0.5000 
    104 N         -0.8400  -25.5990  -53.7426 N.am      19 UNK        -0.5000 
    105 CA         0.5116  -25.3283  -54.2444 C.3       19 UNK         0.1400 
    106 CB         1.5309  -26.1953  -53.4911 C.3       19 UNK        -0.1800 
    107 C          0.9005  -23.8406  -54.1426 C.2       19 UNK         0.5000 
    108 O          1.7499  -23.3877  -54.9107 O.2       19 UNK        -0.5000 
    109 N          0.2762  -23.1080  -53.2128 N.am      20 UNK        -0.5000 
    110 CA         0.4680  -21.6803  -52.9734 C.3       20 UNK         0.1400 
    111 CB         1.0031  -21.4785  -51.5442 C.3       20 UNK        -0.1800 
    112 C         -0.8696  -20.9630  -53.2152 C.2       20 UNK         0.5000 
    113 O         -1.3832  -20.2796  -52.3273 O.2       20 UNK        -0.5000 
    114 N         -1.4303  -21.1735  -54.4135 N.am      21 UNK        -0.5000 
    115 CA        -2.7264  -20.6729  -54.8706 C.3       21 UNK         0.1400 
    116 CB        -3.1192  -21.4267  -56.1533 C.3       21 UNK        -0.1800 
    117 C         -2.7544  -19.1414  -55.0565 C.2       21 UNK         0.5000 
    118 O         -2.7100  -18.6520  -56.1868 O.2       21 UNK        -0.5000 
    119 N         -2.8377  -18.4223  -53.9317 N.am      22 UNK        -0.5000 
    120 CA        -3.0401  -16.9653  -53.8253 C.3       22 UNK         0.1400 
    121 C         -1.8114  -16.1025  -54.2454 C.2       22 UNK         0.5000 
    122 N         -0.6134  -16.6658  -54.3434 N.am      22 UNK        -0.7600 
    123 O         -1.9339  -14.9000  -54.4626 O.2       22 UNK        -0.5000 
    124 C124       -4.3636  -16.4803  -54.4879 C.3       23 UNK        -0.0398 
    125 S125       -5.8257  -17.4452  -53.9623 S.3       23 UNK        -0.2404 
    126 C126       -6.6232  -16.3188  -52.7771 C.3       23 UNK        -0.0205 
    127 H127       -4.8157   -9.3342  -47.6203 H         1 UNK         0.0600 
    128 H128       -4.1019   -7.8412  -48.2358 H         1 UNK         0.0600 
    129 H129       -4.1231   -8.1598  -46.4979 H         1 UNK         0.0600 
    130 H130       -3.4924  -11.1042  -47.8712 H         1 UNK         0.3000 
    131 H131       -0.6881  -10.8933  -48.5193 H         1 UNK         0.0600 
    132 H132       -0.7321  -13.3385  -48.6592 H         1 UNK         0.0800 
    133 H133       -2.3114  -13.4204  -47.9188 H         1 UNK         0.0800 
    134 H134       -4.4134  -12.7102  -48.8744 H         1 UNK         0.0800 
    135 H135       -4.7391  -12.2844  -50.5284 H         1 UNK         0.0800 
    136 H136       -5.5838  -13.9206  -52.0153 H         1 UNK         0.1150 
    137 H137       -5.7379  -18.0438  -50.8496 H         1 UNK         0.1150 
    138 H138       -3.6703  -15.2004  -48.4001 H         1 UNK         0.1150 
    139 H139       -3.9281  -18.7243  -49.0913 H         1 UNK         0.0800 
    140 H140       -3.4473  -17.5169  -47.9254 H         1 UNK         0.0800 
    141 H141       -5.5485  -19.0252  -45.2446 H         1 UNK         0.0800 
    142 H142       -4.0349  -18.4038  -45.7697 H         1 UNK         0.0800 
    143 H143       -4.6225  -20.7710  -47.3955 H         1 UNK         0.0600 
    144 H144       -2.3774  -19.7559  -46.0898 H         1 UNK         0.3000 
    145 H145       -0.2772  -22.6780  -46.3572 H         1 UNK         0.0600 
    146 H146        1.1182  -20.9307  -47.4257 H         1 UNK         0.0600 
    147 H147       -0.1965  -21.4109  -48.4887 H         1 UNK         0.0600 
    148 H148       -0.2872  -19.8873  -47.6213 H         1 UNK         0.0600 
    149 H149        0.2105  -20.1506  -45.1453 H         1 UNK         0.3000 
    150 H150       -0.9904  -20.9866  -41.8675 H         1 UNK         0.0600 
    151 H151        1.3459  -21.8341  -41.9743 H         1 UNK         0.0600 
    152 H152        1.3044  -20.2078  -41.3117 H         1 UNK         0.0600 
    153 H153        1.8225  -20.4713  -42.9764 H         1 UNK         0.0600 
    154 H154        0.1541  -18.6189  -43.0155 H         1 UNK         0.3000 
    155 H155       -2.9085  -17.0634  -43.9746 H         1 UNK         0.0600 
    156 H156       -2.6363  -16.6443  -41.5282 H         1 UNK         0.0600 
    157 H157       -1.9703  -15.3233  -42.4747 H         1 UNK         0.0600 
    158 H158       -0.8942  -16.5042  -41.7279 H         1 UNK         0.0600 
    159 H159       -0.1945  -16.1985  -44.1037 H         1 UNK         0.3000 
    160 H160        0.6413  -17.5799  -47.2712 H         1 UNK         0.0600 
    161 H161       -0.0873  -14.7230  -46.4503 H         1 UNK         0.0600 
    162 H162       -0.6223  -15.5846  -47.8879 H         1 UNK         0.0600 
    163 H163        1.0715  -15.1428  -47.7134 H         1 UNK         0.0600 
    164 H164        2.0541  -15.8413  -45.5102 H         1 UNK         0.3000 
    165 H165        3.1588  -17.5704  -43.2166 H         1 UNK         0.0600 
    166 H166        4.8400  -18.9413  -45.3730 H         1 UNK         0.0600 
    167 H167        5.3944  -18.5858  -43.7367 H         1 UNK         0.0600 
    168 H168        4.0653  -19.7024  -43.9939 H         1 UNK         0.0600 
    169 H169        4.0969  -15.6673  -43.7139 H         1 UNK         0.3000 
    170 H170        6.4399  -14.5307  -45.6678 H         1 UNK         0.0600 
    171 H171        5.1778  -14.1283  -47.7429 H         1 UNK         0.0600 
    172 H172        3.7594  -13.6171  -46.8413 H         1 UNK         0.0600 
    173 H173        5.2317  -12.6458  -46.8060 H         1 UNK         0.0600 
    174 H174        4.0703  -13.3132  -44.3713 H         1 UNK         0.3000 
    175 H175        5.3899  -13.5654  -41.1360 H         1 UNK         0.0600 
    176 H176        5.2963  -10.9571  -42.7501 H         1 UNK         0.0600 
    177 H177        5.2050  -11.0904  -40.9931 H         1 UNK         0.0600 
    178 H178        6.6794  -11.5413  -41.8332 H         1 UNK         0.0600 
    179 H179        3.1787  -12.0914  -42.1762 H         1 UNK         0.3000 
    180 H180        0.9127  -14.7432  -42.6904 H         1 UNK         0.0600 
    181 H181        0.9434  -12.7573  -40.3540 H         1 UNK         0.0600 
    182 H182        0.7533  -14.5013  -40.2142 H         1 UNK         0.0600 
    183 H183       -0.4846  -13.5511  -41.0192 H         1 UNK         0.0600 
    184 H184        0.6490  -11.8848  -42.6530 H         1 UNK         0.3000 
    185 H185        0.6490  -10.6291  -44.4224 H         1 UNK         0.0600 
    186 H186        3.1543  -10.5854  -44.3681 H         1 UNK         0.0600 
    187 H187        3.2032  -11.2505  -45.9960 H         1 UNK         0.0600 
    188 H188        2.5122   -9.6550  -45.7105 H         1 UNK         0.0600 
    189 H189        1.0561  -11.1461  -47.1803 H         1 UNK         0.3000 
    190 H190       -3.8021  -21.0525  -43.9278 H         1 UNK         0.3000 
    191 H191       -6.0701  -22.5463  -43.1188 H         1 UNK         0.0600 
    192 H192       -3.2282  -22.4920  -41.9713 H         1 UNK         0.0600 
    193 H193       -4.5317  -21.3833  -41.5508 H         1 UNK         0.0600 
    194 H194       -4.6574  -23.0862  -41.1353 H         1 UNK         0.0600 
    195 H195       -3.2592  -23.5491  -44.9225 H         1 UNK         0.3000 
    196 H196       -3.8243  -26.4471  -44.5963 H         1 UNK         0.0600 
    197 H197       -1.4777  -25.6616  -44.2621 H         1 UNK         0.0600 
    198 H198       -1.4653  -24.9732  -45.8808 H         1 UNK         0.0600 
    199 H199       -1.6023  -26.7149  -45.6607 H         1 UNK         0.0600 
    200 H200       -5.4990  -24.4074  -46.1575 H         1 UNK         0.3000 
    201 H201       -6.7550  -24.3085  -47.9734 H         1 UNK         0.0600 
    202 H202       -7.2863  -26.3631  -49.2343 H         1 UNK         0.0600 
    203 H203       -7.2239  -26.7187  -47.5154 H         1 UNK         0.0600 
    204 H204       -5.8888  -27.1907  -48.5654 H         1 UNK         0.0600 
    205 H205       -4.5414  -22.9702  -48.1971 H         1 UNK         0.3000 
    206 H206       -3.1689  -21.8363  -49.5240 H         1 UNK         0.0600 
    207 H207       -5.0810  -21.6084  -51.0914 H         1 UNK         0.0600 
    208 H208       -4.6254  -23.1045  -51.9027 H         1 UNK         0.0600 
    209 H209       -3.5601  -21.7108  -51.9559 H         1 UNK         0.0600 
    210 H210       -2.2440  -24.0286  -48.3205 H         1 UNK         0.3000 
    211 H211       -0.7186  -25.6403  -48.1435 H         1 UNK         0.0600 
    212 H212        0.8210  -23.7679  -48.7968 H         1 UNK         0.0600 
    213 H213        1.4346  -25.3318  -49.3099 H         1 UNK         0.0600 
    214 H214        0.6960  -24.2577  -50.4863 H         1 UNK         0.0600 
    215 H215       -2.8576  -26.6708  -49.1792 H         1 UNK         0.3000 
    216 H216       -3.9168  -28.1196  -50.4802 H         1 UNK         0.0600 
    217 H217       -2.7145  -30.1788  -51.1394 H         1 UNK         0.0600 
    218 H218       -1.1593  -29.3852  -50.9300 H         1 UNK         0.0600 
    219 H219       -2.2009  -29.6751  -49.5373 H         1 UNK         0.0600 
    220 H220       -3.5636  -25.7814  -51.6859 H         1 UNK         0.3000 
    221 H221       -3.6931  -24.5878  -53.5059 H         1 UNK         0.0600 
    222 H222       -4.0318  -27.1745  -55.1028 H         1 UNK         0.0600 
    223 H223       -5.3249  -26.3350  -54.2459 H         1 UNK         0.0600 
    224 H224       -4.5195  -25.5614  -55.5992 H         1 UNK         0.0600 
    225 H225       -0.9141  -25.9507  -52.7947 H         1 UNK         0.3000 
    226 H226        0.5529  -25.6115  -55.2983 H         1 UNK         0.0600 
    227 H227        1.2405  -27.2461  -53.4948 H         1 UNK         0.0600 
    228 H228        2.5152  -26.1265  -53.9555 H         1 UNK         0.0600 
    229 H229        1.6410  -25.8781  -52.4538 H         1 UNK         0.0600 
    230 H230       -0.4544  -23.5419  -52.6507 H         1 UNK         0.3000 
    231 H231        1.1926  -21.2583  -53.6723 H         1 UNK         0.0600 
    232 H232        1.1856  -20.4231  -51.3390 H         1 UNK         0.0600 
    233 H233        1.9447  -22.0074  -51.3972 H         1 UNK         0.0600 
    234 H234        0.2958  -21.8410  -50.7985 H         1 UNK         0.0600 
    235 H235       -0.9290  -21.7545  -55.0697 H         1 UNK         0.3000 
    236 H236       -3.4741  -20.9173  -54.1149 H         1 UNK         0.0600 
    237 H237       -3.2174  -22.4960  -55.9667 H         1 UNK         0.0600 
    238 H238       -4.0799  -21.0772  -56.5339 H         1 UNK         0.0600 
    239 H239       -2.3815  -21.2903  -56.9450 H         1 UNK         0.0600 
    240 H240       -2.7424  -18.9202  -53.0535 H         1 UNK         0.3000 
    241 H241       -3.1389  -16.7771  -52.7559 H         1 UNK         0.0600 
    242 H242        0.1806  -16.1044  -54.6083 H         1 UNK         0.3800 
    243 H243       -0.4987  -17.6499  -54.1627 H         1 UNK         0.3800 
    244 H244       -4.5378  -15.4263  -54.2657 H         1 UNK         0.0800 
    245 H245       -4.2894  -16.5457  -55.5741 H         1 UNK         0.0800 
    246 H246       -7.5532  -16.7738  -52.4337 H         1 UNK         0.0800 
    247 H247       -6.9073  -15.4011  -53.2946 H         1 UNK         0.0800 
@<TRIPOS>BOND
     1    1    2 1    
     2    1  127 1    
     3    1  128 1    
     4    1  129 1    
     5    2    3 2    
     6    2    4 am   BACKBONE|DICT|INTERRES
     7    4    5 1    
     8    4  130 1    
     9    5    6 1    
    10    5   65 1    
    11    5  131 1    
    12    6    7 1    
    13    6  132 1    
    14    6  133 1    
    15    7    8 1    
    16    8    9 1    
    17    8  134 1    
    18    8  135 1    
    19    9   10 ar   
    20    9   14 ar   
    21   10   11 ar   
    22   10  136 1    
    23   11   12 ar   
    24   11  126 1    
    25   12   13 ar   
    26   12  137 1    
    27   13   14 ar   
    28   13   15 1    
    29   14  138 1    
    30   15   16 1    
    31   15  139 1    
    32   15  140 1    
    33   16   17 1    
    34   17   18 1    
    35   17  141 1    
    36   17  142 1    
    37   18   19 1    
    38   18   67 1    
    39   18  143 1    
    40   19   20 am   BACKBONE|DICT|INTERRES
    41   19  144 1    
    42   20   21 2    
    43   20   22 1    
    44   22   23 1    
    45   22   24 1    
    46   22  145 1    
    47   23  146 1    
    48   23  147 1    
    49   23  148 1    
    50   24   25 am   BACKBONE|DICT|INTERRES
    51   24  149 1    
    52   25   26 2    
    53   25   27 1    
    54   27   28 1    
    55   27   29 1    
    56   27  150 1    
    57   28  151 1    
    58   28  152 1    
    59   28  153 1    
    60   29   30 am   BACKBONE|DICT|INTERRES
    61   29  154 1    
    62   30   31 2    
    63   30   32 1    
    64   32   33 1    
    65   32   34 1    
    66   32  155 1    
    67   33  156 1    
    68   33  157 1    
    69   33  158 1    
    70   34   35 am   BACKBONE|DICT|INTERRES
    71   34  159 1    
    72   35   36 2    
    73   35   37 1    
    74   37   38 1    
    75   37   39 1    
    76   37  160 1    
    77   38  161 1    
    78   38  162 1    
    79   38  163 1    
    80   39   40 am   BACKBONE|DICT|INTERRES
    81   39  164 1    
    82   40   41 2    
    83   40   42 1    
    84   42   43 1    
    85   42   44 1    
    86   42  165 1    
    87   43  166 1    
    88   43  167 1    
    89   43  168 1    
    90   44   45 am   BACKBONE|DICT|INTERRES
    91   44  169 1    
    92   45   46 2    
    93   45   47 1    
    94   47   48 1    
    95   47   49 1    
    96   47  170 1    
    97   48  171 1    
    98   48  172 1    
    99   48  173 1    
   100   49   50 am   BACKBONE|DICT|INTERRES
   101   49  174 1    
   102   50   51 2    
   103   50   52 1    
   104   52   53 1    
   105   52   54 1    
   106   52  175 1    
   107   53  176 1    
   108   53  177 1    
   109   53  178 1    
   110   54   55 am   BACKBONE|DICT|INTERRES
   111   54  179 1    
   112   55   56 2    
   113   55   57 1    
   114   57   58 1    
   115   57   59 1    
   116   57  180 1    
   117   58  181 1    
   118   58  182 1    
   119   58  183 1    
   120   59   60 am   BACKBONE|DICT|INTERRES
   121   59  184 1    
   122   60   61 2    
   123   60   62 1    
   124   62   63 1    
   125   62   64 1    
   126   62  185 1    
   127   63  186 1    
   128   63  187 1    
   129   63  188 1    
   130   64   65 am   BACKBONE|DICT|INTERRES
   131   64  189 1    
   132   65   66 2    
   133   67   68 2    
   134   67   69 am   BACKBONE|DICT|INTERRES
   135   69   70 1    
   136   69  190 1    
   137   70   71 1    
   138   70   72 1    
   139   70  191 1    
   140   71  192 1    
   141   71  193 1    
   142   71  194 1    
   143   72   73 2    
   144   72   74 am   BACKBONE|DICT|INTERRES
   145   74   75 1    
   146   74  195 1    
   147   75   76 1    
   148   75   77 1    
   149   75  196 1    
   150   76  197 1    
   151   76  198 1    
   152   76  199 1    
   153   77   78 2    
   154   77   79 am   BACKBONE|DICT|INTERRES
   155   79   80 1    
   156   79  200 1    
   157   80   81 1    
   158   80   82 1    
   159   80  201 1    
   160   81  202 1    
   161   81  203 1    
   162   81  204 1    
   163   82   83 2    
   164   82   84 am   BACKBONE|DICT|INTERRES
   165   84   85 1    
   166   84  205 1    
   167   85   86 1    
   168   85   87 1    
   169   85  206 1    
   170   86  207 1    
   171   86  208 1    
   172   86  209 1    
   173   87   88 2    
   174   87   89 am   BACKBONE|DICT|INTERRES
   175   89   90 1    
   176   89  210 1    
   177   90   91 1    
   178   90   92 1    
   179   90  211 1    
   180   91  212 1    
   181   91  213 1    
   182   91  214 1    
   183   92   93 2    
   184   92   94 am   BACKBONE|DICT|INTERRES
   185   94   95 1    
   186   94  215 1    
   187   95   96 1    
   188   95   97 1    
   189   95  216 1    
   190   96  217 1    
   191   96  218 1    
   192   96  219 1    
   193   97   98 2    
   194   97   99 am   BACKBONE|DICT|INTERRES
   195   99  100 1    
   196   99  220 1    
   197  100  101 1    
   198  100  102 1    
   199  100  221 1    
   200  101  222 1    
   201  101  223 1    
   202  101  224 1    
   203  102  103 2    
   204  102  104 am   BACKBONE|DICT|INTERRES
   205  104  105 1    
   206  104  225 1    
   207  105  106 1    
   208  105  107 1    
   209  105  226 1    
   210  106  227 1    
   211  106  228 1    
   212  106  229 1    
   213  107  108 2    
   214  107  109 am   BACKBONE|DICT|INTERRES
   215  109  110 1    
   216  109  230 1    
   217  110  111 1    
   218  110  112 1    
   219  110  231 1    
   220  111  232 1    
   221  111  233 1    
   222  111  234 1    
   223  112  113 2    
   224  112  114 am   BACKBONE|DICT|INTERRES
   225  114  115 1    
   226  114  235 1    
   227  115  116 1    
   228  115  117 1    
   229  115  236 1    
   230  116  237 1    
   231  116  238 1    
   232  116  239 1    
   233  117  118 2    
   234  117  119 am   BACKBONE|DICT|INTERRES
   235  119  120 1    
   236  119  240 1    
   237  120  121 1    
   238  120  124 1    
   239  120  241 1    
   240  121  122 am   BACKBONE|DICT|INTERRES
   241  121  123 2    
   242  122  242 1    
   243  122  243 1    
   244  124  125 1    
   245  124  244 1    
   246  124  245 1    
   247  125  126 1    
   248  126  246 1    
   249  126  247 1    
@<TRIPOS>SUBSTRUCTURE
     1 UNK         1 GROUP             0       ****    0 ROOT    
