@<TRIPOS>MOLECULE
3R540
247   249    1
SMALL
USER_CHARGES


@<TRIPOS>ATOM
      1 CA          0.1755  -10.6667  -49.8542 C.3       0 UNK        -0.1800 
      2 C          -0.2744  -11.6264  -48.7617 C.2       0 UNK         0.5000 
      3 O          -1.3526  -12.2065  -48.8766 O.2       0 UNK        -0.5000 
      4 N           0.5505  -11.7741  -47.7134 N.am      1 UNK        -0.5000 
      5 CA          0.3932  -12.6555  -46.5437 C.3       1 UNK         0.1400 
      6 C6          0.8617  -14.1174  -46.7958 C.3       23 UNK        -0.0398 
      7 S7         -0.2176  -15.1676  -47.8300 S.3       23 UNK        -0.2404 
      8 C8          0.7755  -15.3180  -49.3444 C.3       23 UNK        -0.0205 
      9 C9          0.1376  -16.2808  -50.3330 C.ar      23 UNK        -0.0193 
     10 C10        -0.3115  -15.8224  -51.5751 C.ar      23 UNK        -0.1150 
     11 C11        -0.8804  -16.7075  -52.4955 C.ar      23 UNK        -0.0193 
     12 C12        -1.0075  -18.0570  -52.1580 C.ar      23 UNK        -0.1150 
     13 C13        -0.5849  -18.5250  -50.9109 C.ar      23 UNK        -0.0193 
     14 C14         0.0038  -17.6351  -50.0091 C.ar      23 UNK        -0.1150 
     15 C15        -0.7638  -19.9912  -50.5501 C.3       23 UNK        -0.0205 
     16 S16        -2.3607  -20.2935  -49.7200 S.3       23 UNK        -0.2404 
     17 C17        -1.8677  -20.2171  -47.9655 C.3       23 UNK        -0.0398 
     18 CA         -1.5408  -21.6273  -47.4022 C.3       11 UNK         0.1400 
     19 N          -0.2854  -21.6600  -46.6448 N.am      11 UNK        -0.5000 
     20 C           0.3494  -22.7907  -46.3003 C.2       10 UNK         0.5000 
     21 O          -0.0460  -23.9140  -46.6112 O.2       10 UNK        -0.5000 
     22 CA          1.6086  -22.6511  -45.4254 C.3       10 UNK         0.1400 
     23 CB          2.8261  -22.2608  -46.2758 C.3       10 UNK        -0.1800 
     24 N           1.4339  -21.6884  -44.3377 N.am      10 UNK        -0.5000 
     25 C           0.5484  -21.8231  -43.3405 C.2       9 UNK         0.5000 
     26 O          -0.1813  -22.8034  -43.2036 O.2       9 UNK        -0.5000 
     27 CA          0.4120  -20.6424  -42.3639 C.3       9 UNK         0.1400 
     28 CB          1.4854  -20.7021  -41.2669 C.3       9 UNK        -0.1800 
     29 N           0.4701  -19.3499  -43.0451 N.am      9 UNK        -0.5000 
     30 C          -0.4386  -18.9139  -43.9298 C.2       8 UNK         0.5000 
     31 O          -1.4457  -19.5443  -44.2521 O.2       8 UNK        -0.5000 
     32 CA         -0.1337  -17.5667  -44.6031 C.3       8 UNK         0.1400 
     33 CB         -0.4706  -16.4090  -43.6506 C.3       8 UNK        -0.1800 
     34 N           1.2658  -17.4840  -45.0285 N.am      8 UNK        -0.5000 
     35 C           1.7944  -18.2451  -46.0010 C.2       7 UNK         0.5000 
     36 O           1.1429  -19.0515  -46.6636 O.2       7 UNK        -0.5000 
     37 CA          3.3126  -18.1404  -46.2417 C.3       7 UNK         0.1400 
     38 CB          3.6292  -17.0669  -47.2900 C.3       7 UNK        -0.1800 
     39 N           4.0710  -17.8662  -45.0230 N.am      7 UNK        -0.5000 
     40 C           4.1440  -18.6913  -43.9695 C.2       6 UNK         0.5000 
     41 O           3.6073  -19.7981  -43.9358 O.2       6 UNK        -0.5000 
     42 CA          4.9119  -18.1823  -42.7347 C.3       6 UNK         0.1400 
     43 CB          6.3337  -18.7625  -42.7114 C.3       6 UNK        -0.1800 
     44 N           4.9872  -16.7193  -42.6510 N.am      6 UNK        -0.5000 
     45 C           3.9346  -15.9080  -42.4801 C.2       5 UNK         0.5000 
     46 O           2.7765  -16.3191  -42.3787 O.2       5 UNK        -0.5000 
     47 CA          4.2559  -14.4005  -42.4399 C.3       5 UNK         0.1400 
     48 CB          4.6561  -13.8766  -43.8360 C.3       5 UNK        -0.1800 
     49 N           3.1862  -13.5897  -41.8443 N.am      5 UNK        -0.5000 
     50 C           1.9822  -13.2948  -42.3532 C.2       4 UNK         0.5000 
     51 O           1.5959  -13.6061  -43.4824 O.2       4 UNK        -0.5000 
     52 CA          1.0621  -12.4712  -41.4437 C.3       4 UNK         0.1400 
     53 CB          1.3974  -10.9716  -41.5339 C.3       4 UNK        -0.1800 
     54 N          -0.3205  -12.6884  -41.8489 N.am      4 UNK        -0.5000 
     55 C          -1.3945  -12.5530  -41.0637 C.2       3 UNK         0.5000 
     56 O          -1.3326  -12.2353  -39.8742 O.2       3 UNK        -0.5000 
     57 CA         -2.7614  -12.8154  -41.7315 C.3       3 UNK         0.1400 
     58 CB         -3.9540  -12.2839  -40.9087 C.3       3 UNK        -0.1800 
     59 N          -2.8169  -12.3255  -43.1136 N.am      3 UNK        -0.5000 
     60 C          -2.6893  -11.0625  -43.5440 C.2       2 UNK         0.5000 
     61 O          -2.5337  -10.0901  -42.8029 O.2       2 UNK        -0.5000 
     62 CA         -2.7074  -10.8744  -45.0757 C.3       2 UNK         0.1400 
     63 CB         -3.0326   -9.4272  -45.4867 C.3       2 UNK        -0.1800 
     64 N          -1.4378  -11.2596  -45.6940 N.am      2 UNK        -0.5000 
     65 C          -0.9648  -12.5089  -45.8121 C.2       1 UNK         0.5000 
     66 O          -1.5566  -13.4955  -45.3708 O.2       1 UNK        -0.5000 
     67 C          -2.7162  -22.2233  -46.5973 C.2       11 UNK         0.5000 
     68 O          -3.5227  -22.9649  -47.1600 O.2       11 UNK        -0.5000 
     69 N          -2.7660  -21.9359  -45.2878 N.am      12 UNK        -0.5000 
     70 CA         -3.7335  -22.5075  -44.3493 C.3       12 UNK         0.1400 
     71 CB         -3.6419  -21.7823  -42.9989 C.3       12 UNK        -0.1800 
     72 C          -3.5628  -24.0278  -44.1714 C.2       12 UNK         0.5000 
     73 O          -4.5597  -24.7496  -44.1729 O.2       12 UNK        -0.5000 
     74 N          -2.3104  -24.4986  -44.0774 N.am      13 UNK        -0.5000 
     75 CA         -1.9519  -25.9204  -44.0274 C.3       13 UNK         0.1400 
     76 CB         -0.4553  -26.0647  -43.7140 C.3       13 UNK        -0.1800 
     77 C          -2.3148  -26.6783  -45.3199 C.2       13 UNK         0.5000 
     78 O          -2.6829  -27.8513  -45.2551 O.2       13 UNK        -0.5000 
     79 N          -2.2600  -25.9779  -46.4604 N.am      14 UNK        -0.5000 
     80 CA         -2.7301  -26.4391  -47.7679 C.3       14 UNK         0.1400 
     81 CB         -1.9829  -25.6611  -48.8650 C.3       14 UNK        -0.1800 
     82 C          -4.2605  -26.3164  -47.9480 C.2       14 UNK         0.5000 
     83 O          -4.7497  -26.5423  -49.0551 O.2       14 UNK        -0.5000 
     84 N          -4.9926  -25.9311  -46.8897 N.am      15 UNK        -0.5000 
     85 CA         -6.4486  -25.7500  -46.8264 C.3       15 UNK         0.1400 
     86 CB         -7.1671  -27.1081  -46.9671 C.3       15 UNK        -0.1800 
     87 C          -6.9767  -24.6890  -47.8150 C.2       15 UNK         0.5000 
     88 O          -8.1080  -24.7983  -48.2903 O.2       15 UNK        -0.5000 
     89 N          -6.1285  -23.6971  -48.1253 N.am      16 UNK        -0.5000 
     90 CA         -6.3130  -22.6278  -49.1084 C.3       16 UNK         0.1400 
     91 CB         -7.4870  -21.7064  -48.7199 C.3       16 UNK        -0.1800 
     92 C          -6.4025  -23.1145  -50.5712 C.2       16 UNK         0.5000 
     93 O          -6.7283  -22.3128  -51.4454 O.2       16 UNK        -0.5000 
     94 N          -6.0668  -24.3848  -50.8503 N.am      17 UNK        -0.5000 
     95 CA         -6.0111  -24.9299  -52.2122 C.3       17 UNK         0.1400 
     96 CB         -5.9082  -26.4607  -52.1535 C.3       17 UNK        -0.1800 
     97 C          -4.8424  -24.3378  -53.0221 C.2       17 UNK         0.5000 
     98 O          -4.9552  -24.1650  -54.2361 O.2       17 UNK        -0.5000 
     99 N          -3.7582  -23.9880  -52.3165 N.am      18 UNK        -0.5000 
    100 CA        -2.5745  -23.3234  -52.8562 C.3       18 UNK         0.1400 
    101 CB        -1.4277  -23.4549  -51.8425 C.3       18 UNK        -0.1800 
    102 C         -2.8083  -21.8478  -53.2396 C.2       18 UNK         0.5000 
    103 O         -1.9581  -21.2762  -53.9226 O.2       18 UNK        -0.5000 
    104 N         -3.9428  -21.2542  -52.8328 N.am      19 UNK        -0.5000 
    105 CA        -4.3223  -19.8741  -53.1550 C.3       19 UNK         0.1400 
    106 CB        -5.5766  -19.4760  -52.3655 C.3       19 UNK        -0.1800 
    107 C         -4.5362  -19.6460  -54.6626 C.2       19 UNK         0.5000 
    108 O         -4.2454  -18.5590  -55.1618 O.2       19 UNK        -0.5000 
    109 N         -5.0136  -20.6865  -55.3596 N.am      20 UNK        -0.5000 
    110 CA        -5.1893  -20.7024  -56.8109 C.3       20 UNK         0.1400 
    111 CB        -6.1569  -21.8374  -57.1794 C.3       20 UNK        -0.1800 
    112 C         -3.8582  -20.8620  -57.5709 C.2       20 UNK         0.5000 
    113 O         -3.7609  -20.4144  -58.7141 O.2       20 UNK        -0.5000 
    114 N         -2.8671  -21.5022  -56.9353 N.am      21 UNK        -0.5000 
    115 CA        -1.5344  -21.7240  -57.4910 C.3       21 UNK         0.1400 
    116 CB        -0.9124  -22.9796  -56.8568 C.3       21 UNK        -0.1800 
    117 C         -0.6384  -20.4923  -57.2874 C.2       21 UNK         0.5000 
    118 O         -0.0836  -19.9789  -58.2596 O.2       21 UNK        -0.5000 
    119 N         -0.5302  -20.0367  -56.0308 N.am      22 UNK        -0.5000 
    120 CA         0.2702  -18.8767  -55.6021 C.3       22 UNK         0.1400 
    121 C          1.8092  -19.0277  -55.8290 C.2       22 UNK         0.5000 
    122 N          2.3439  -20.2431  -55.8555 N.am      22 UNK        -0.7600 
    123 O          2.5365  -18.0483  -55.9680 O.2       22 UNK        -0.5000 
    124 C124       -0.3329  -17.5437  -56.1293 C.3       23 UNK        -0.0398 
    125 S125       -0.0110  -16.1017  -55.0536 S.3       23 UNK        -0.2404 
    126 C126       -1.3690  -16.1967  -53.8431 C.3       23 UNK        -0.0205 
    127 H127       -0.5525   -9.8639  -49.9716 H         1 UNK         0.0600 
    128 H128        0.2586  -11.1945  -50.8044 H         1 UNK         0.0600 
    129 H129        1.1434  -10.2178  -49.6296 H         1 UNK         0.0600 
    130 H130        1.4042  -11.2333  -47.7110 H         1 UNK         0.3000 
    131 H131        1.1080  -12.2518  -45.8250 H         1 UNK         0.0600 
    132 H132        0.9833  -14.6285  -45.8418 H         1 UNK         0.0800 
    133 H133        1.8622  -14.0981  -47.2278 H         1 UNK         0.0800 
    134 H134        1.7758  -15.6713  -49.1000 H         1 UNK         0.0800 
    135 H135        0.8962  -14.3288  -49.7882 H         1 UNK         0.0800 
    136 H136       -0.2128  -14.7768  -51.8314 H         1 UNK         0.1150 
    137 H137       -1.4333  -18.7475  -52.8691 H         1 UNK         0.1150 
    138 H138        0.3464  -17.9894  -49.0471 H         1 UNK         0.1150 
    139 H139       -0.7187  -20.5926  -51.4577 H         1 UNK         0.0800 
    140 H140        0.0615  -20.3349  -49.9243 H         1 UNK         0.0800 
    141 H141       -2.6582  -19.7207  -47.3993 H         1 UNK         0.0800 
    142 H142       -1.0109  -19.5513  -47.8862 H         1 UNK         0.0800 
    143 H143       -1.3817  -22.3031  -48.2456 H         1 UNK         0.0600 
    144 H144        0.1227  -20.7661  -46.3898 H         1 UNK         0.3000 
    145 H145        1.8100  -23.6249  -44.9744 H         1 UNK         0.0600 
    146 H146        3.7264  -22.1834  -45.6659 H         1 UNK         0.0600 
    147 H147        3.0170  -23.0085  -47.0464 H         1 UNK         0.0600 
    148 H148        2.6779  -21.3054  -46.7780 H         1 UNK         0.0600 
    149 H149        2.0468  -20.8783  -44.3371 H         1 UNK         0.3000 
    150 H150       -0.5652  -20.7205  -41.8832 H         1 UNK         0.0600 
    151 H151        1.4247  -21.6416  -40.7162 H         1 UNK         0.0600 
    152 H152        1.3580  -19.8944  -40.5460 H         1 UNK         0.0600 
    153 H153        2.4925  -20.6295  -41.6772 H         1 UNK         0.0600 
    154 H154        1.2812  -18.7757  -42.8662 H         1 UNK         0.3000 
    155 H155       -0.7662  -17.4767  -45.4891 H         1 UNK         0.0600 
    156 H156        0.1265  -16.4414  -42.7391 H         1 UNK         0.0600 
    157 H157       -1.5203  -16.4399  -43.3564 H         1 UNK         0.0600 
    158 H158       -0.2996  -15.4450  -44.1234 H         1 UNK         0.0600 
    159 H159        1.8694  -16.8793  -44.4870 H         1 UNK         0.3000 
    160 H160        3.6528  -19.1014  -46.6320 H         1 UNK         0.0600 
    161 H161        3.2897  -16.0806  -46.9734 H         1 UNK         0.0600 
    162 H162        3.1427  -17.3036  -48.2364 H         1 UNK         0.0600 
    163 H163        4.7000  -17.0080  -47.4856 H         1 UNK         0.0600 
    164 H164        4.5458  -16.9779  -44.9691 H         1 UNK         0.3000 
    165 H165        4.3806  -18.5430  -41.8514 H         1 UNK         0.0600 
    166 H166        6.8608  -18.4798  -41.8000 H         1 UNK         0.0600 
    167 H167        6.3112  -19.8527  -42.7467 H         1 UNK         0.0600 
    168 H168        6.9231  -18.4187  -43.5624 H         1 UNK         0.0600 
    169 H169        5.9100  -16.3152  -42.7244 H         1 UNK         0.3000 
    170 H170        5.1154  -14.2766  -41.7793 H         1 UNK         0.0600 
    171 H171        5.5787  -14.3444  -44.1807 H         1 UNK         0.0600 
    172 H172        3.8926  -14.0820  -44.5869 H         1 UNK         0.0600 
    173 H173        4.8287  -12.8005  -43.8193 H         1 UNK         0.0600 
    174 H174        3.3770  -13.2806  -40.9015 H         1 UNK         0.3000 
    175 H175        1.1962  -12.8170  -40.4164 H         1 UNK         0.0600 
    176 H176        1.2603  -10.5922  -42.5475 H         1 UNK         0.0600 
    177 H177        0.7639  -10.3834  -40.8696 H         1 UNK         0.0600 
    178 H178        2.4322  -10.7809  -41.2473 H         1 UNK         0.0600 
    179 H179       -0.4305  -13.0033  -42.8049 H         1 UNK         0.3000 
    180 H180       -2.8626  -13.9000  -41.7906 H         1 UNK         0.0600 
    181 H181       -4.9009  -12.4945  -41.4058 H         1 UNK         0.0600 
    182 H182       -3.8905  -11.2071  -40.7494 H         1 UNK         0.0600 
    183 H183       -3.9925  -12.7569  -39.9267 H         1 UNK         0.0600 
    184 H184       -2.8207  -13.0441  -43.8307 H         1 UNK         0.3000 
    185 H185       -3.4941  -11.5157  -45.4789 H         1 UNK         0.0600 
    186 H186       -3.1288   -9.3377  -46.5690 H         1 UNK         0.0600 
    187 H187       -3.9771   -9.1004  -45.0497 H         1 UNK         0.0600 
    188 H188       -2.2601   -8.7298  -45.1601 H         1 UNK         0.0600 
    189 H189       -0.8840  -10.5068  -46.0754 H         1 UNK         0.3000 
    190 H190       -2.0992  -21.2722  -44.9040 H         1 UNK         0.3000 
    191 H191       -4.7315  -22.3335  -44.7571 H         1 UNK         0.0600 
    192 H192       -4.3839  -22.1672  -42.2984 H         1 UNK         0.0600 
    193 H193       -3.8248  -20.7136  -43.1124 H         1 UNK         0.0600 
    194 H194       -2.6618  -21.9064  -42.5391 H         1 UNK         0.0600 
    195 H195       -1.5415  -23.8361  -44.0121 H         1 UNK         0.3000 
    196 H196       -2.5147  -26.3761  -43.2103 H         1 UNK         0.0600 
    197 H197        0.1638  -25.6029  -44.4832 H         1 UNK         0.0600 
    198 H198       -0.2060  -25.5995  -42.7602 H         1 UNK         0.0600 
    199 H199       -0.1689  -27.1150  -43.6481 H         1 UNK         0.0600 
    200 H200       -1.8874  -25.0360  -46.4255 H         1 UNK         0.3000 
    201 H201       -2.4797  -27.4961  -47.8762 H         1 UNK         0.0600 
    202 H202       -2.2317  -24.6005  -48.8480 H         1 UNK         0.0600 
    203 H203       -2.2326  -26.0410  -49.8564 H         1 UNK         0.0600 
    204 H204       -0.9028  -25.7519  -48.7478 H         1 UNK         0.0600 
    205 H205       -4.5052  -25.7139  -46.0285 H         1 UNK         0.3000 
    206 H206       -6.6657  -25.3649  -45.8295 H         1 UNK         0.0600 
    207 H207       -6.7784  -27.8347  -46.2536 H         1 UNK         0.0600 
    208 H208       -8.2361  -27.0082  -46.7757 H         1 UNK         0.0600 
    209 H209       -7.0519  -27.5256  -47.9679 H         1 UNK         0.0600 
    210 H210       -5.2148  -23.6942  -47.6771 H         1 UNK         0.3000 
    211 H211       -5.4033  -22.0276  -49.0585 H         1 UNK         0.0600 
    212 H212       -7.5149  -20.8203  -49.3553 H         1 UNK         0.0600 
    213 H213       -7.3930  -21.3616  -47.6902 H         1 UNK         0.0600 
    214 H214       -8.4493  -22.2084  -48.8211 H         1 UNK         0.0600 
    215 H215       -5.7967  -25.0085  -50.0974 H         1 UNK         0.3000 
    216 H216       -6.9403  -24.6703  -52.7239 H         1 UNK         0.0600 
    217 H217       -4.9677  -26.7856  -51.7075 H         1 UNK         0.0600 
    218 H218       -5.9608  -26.8918  -53.1540 H         1 UNK         0.0600 
    219 H219       -6.7226  -26.8902  -51.5697 H         1 UNK         0.0600 
    220 H220       -3.7644  -24.1660  -51.3233 H         1 UNK         0.3000 
    221 H221       -2.2788  -23.8450  -53.7688 H         1 UNK         0.0600 
    222 H222       -1.1813  -24.5013  -51.6627 H         1 UNK         0.0600 
    223 H223       -1.6812  -23.0021  -50.8840 H         1 UNK         0.0600 
    224 H224       -0.5211  -22.9713  -52.2083 H         1 UNK         0.0600 
    225 H225       -4.6104  -21.7881  -52.2936 H         1 UNK         0.3000 
    226 H226       -3.5171  -19.2205  -52.8278 H         1 UNK         0.0600 
    227 H227       -6.4546  -20.0313  -52.6963 H         1 UNK         0.0600 
    228 H228       -5.4459  -19.6514  -51.2973 H         1 UNK         0.0600 
    229 H229       -5.7954  -18.4156  -52.4965 H         1 UNK         0.0600 
    230 H230       -5.2242  -21.5431  -54.8662 H         1 UNK         0.3000 
    231 H231       -5.6383  -19.7560  -57.1199 H         1 UNK         0.0600 
    232 H232       -5.7687  -22.8112  -56.8771 H         1 UNK         0.0600 
    233 H233       -6.3285  -21.8713  -58.2561 H         1 UNK         0.0600 
    234 H234       -7.1266  -21.6998  -56.7007 H         1 UNK         0.0600 
    235 H235       -3.0135  -21.7866  -55.9782 H         1 UNK         0.3000 
    236 H236       -1.6206  -21.9049  -58.5648 H         1 UNK         0.0600 
    237 H237       -1.5266  -23.8600  -57.0469 H         1 UNK         0.0600 
    238 H238        0.0751  -23.1770  -57.2755 H         1 UNK         0.0600 
    239 H239       -0.7962  -22.8820  -55.7774 H         1 UNK         0.0600 
    240 H240       -1.0303  -20.5226  -55.2885 H         1 UNK         0.3000 
    241 H241        0.1701  -18.8727  -54.5189 H         1 UNK         0.0600 
    242 H242        3.3364  -20.3449  -55.9986 H         1 UNK         0.3800 
    243 H243        1.7674  -21.0605  -55.7368 H         1 UNK         0.3800 
    244 H244       -1.4138  -17.6371  -56.2453 H         1 UNK         0.0800 
    245 H245        0.0448  -17.3255  -57.1293 H         1 UNK         0.0800 
    246 H246       -1.7952  -15.2001  -53.7191 H         1 UNK         0.0800 
    247 H247       -2.1802  -16.8232  -54.2170 H         1 UNK         0.0800 
@<TRIPOS>BOND
     1    1    2 1    
     2    1  127 1    
     3    1  128 1    
     4    1  129 1    
     5    2    3 2    
     6    2    4 am   BACKBONE|DICT|INTERRES
     7    4    5 1    
     8    4  130 1    
     9    5    6 1    
    10    5   65 1    
    11    5  131 1    
    12    6    7 1    
    13    6  132 1    
    14    6  133 1    
    15    7    8 1    
    16    8    9 1    
    17    8  134 1    
    18    8  135 1    
    19    9   10 ar   
    20    9   14 ar   
    21   10   11 ar   
    22   10  136 1    
    23   11   12 ar   
    24   11  126 1    
    25   12   13 ar   
    26   12  137 1    
    27   13   14 ar   
    28   13   15 1    
    29   14  138 1    
    30   15   16 1    
    31   15  139 1    
    32   15  140 1    
    33   16   17 1    
    34   17   18 1    
    35   17  141 1    
    36   17  142 1    
    37   18   19 1    
    38   18   67 1    
    39   18  143 1    
    40   19   20 am   BACKBONE|DICT|INTERRES
    41   19  144 1    
    42   20   21 2    
    43   20   22 1    
    44   22   23 1    
    45   22   24 1    
    46   22  145 1    
    47   23  146 1    
    48   23  147 1    
    49   23  148 1    
    50   24   25 am   BACKBONE|DICT|INTERRES
    51   24  149 1    
    52   25   26 2    
    53   25   27 1    
    54   27   28 1    
    55   27   29 1    
    56   27  150 1    
    57   28  151 1    
    58   28  152 1    
    59   28  153 1    
    60   29   30 am   BACKBONE|DICT|INTERRES
    61   29  154 1    
    62   30   31 2    
    63   30   32 1    
    64   32   33 1    
    65   32   34 1    
    66   32  155 1    
    67   33  156 1    
    68   33  157 1    
    69   33  158 1    
    70   34   35 am   BACKBONE|DICT|INTERRES
    71   34  159 1    
    72   35   36 2    
    73   35   37 1    
    74   37   38 1    
    75   37   39 1    
    76   37  160 1    
    77   38  161 1    
    78   38  162 1    
    79   38  163 1    
    80   39   40 am   BACKBONE|DICT|INTERRES
    81   39  164 1    
    82   40   41 2    
    83   40   42 1    
    84   42   43 1    
    85   42   44 1    
    86   42  165 1    
    87   43  166 1    
    88   43  167 1    
    89   43  168 1    
    90   44   45 am   BACKBONE|DICT|INTERRES
    91   44  169 1    
    92   45   46 2    
    93   45   47 1    
    94   47   48 1    
    95   47   49 1    
    96   47  170 1    
    97   48  171 1    
    98   48  172 1    
    99   48  173 1    
   100   49   50 am   BACKBONE|DICT|INTERRES
   101   49  174 1    
   102   50   51 2    
   103   50   52 1    
   104   52   53 1    
   105   52   54 1    
   106   52  175 1    
   107   53  176 1    
   108   53  177 1    
   109   53  178 1    
   110   54   55 am   BACKBONE|DICT|INTERRES
   111   54  179 1    
   112   55   56 2    
   113   55   57 1    
   114   57   58 1    
   115   57   59 1    
   116   57  180 1    
   117   58  181 1    
   118   58  182 1    
   119   58  183 1    
   120   59   60 am   BACKBONE|DICT|INTERRES
   121   59  184 1    
   122   60   61 2    
   123   60   62 1    
   124   62   63 1    
   125   62   64 1    
   126   62  185 1    
   127   63  186 1    
   128   63  187 1    
   129   63  188 1    
   130   64   65 am   BACKBONE|DICT|INTERRES
   131   64  189 1    
   132   65   66 2    
   133   67   68 2    
   134   67   69 am   BACKBONE|DICT|INTERRES
   135   69   70 1    
   136   69  190 1    
   137   70   71 1    
   138   70   72 1    
   139   70  191 1    
   140   71  192 1    
   141   71  193 1    
   142   71  194 1    
   143   72   73 2    
   144   72   74 am   BACKBONE|DICT|INTERRES
   145   74   75 1    
   146   74  195 1    
   147   75   76 1    
   148   75   77 1    
   149   75  196 1    
   150   76  197 1    
   151   76  198 1    
   152   76  199 1    
   153   77   78 2    
   154   77   79 am   BACKBONE|DICT|INTERRES
   155   79   80 1    
   156   79  200 1    
   157   80   81 1    
   158   80   82 1    
   159   80  201 1    
   160   81  202 1    
   161   81  203 1    
   162   81  204 1    
   163   82   83 2    
   164   82   84 am   BACKBONE|DICT|INTERRES
   165   84   85 1    
   166   84  205 1    
   167   85   86 1    
   168   85   87 1    
   169   85  206 1    
   170   86  207 1    
   171   86  208 1    
   172   86  209 1    
   173   87   88 2    
   174   87   89 am   BACKBONE|DICT|INTERRES
   175   89   90 1    
   176   89  210 1    
   177   90   91 1    
   178   90   92 1    
   179   90  211 1    
   180   91  212 1    
   181   91  213 1    
   182   91  214 1    
   183   92   93 2    
   184   92   94 am   BACKBONE|DICT|INTERRES
   185   94   95 1    
   186   94  215 1    
   187   95   96 1    
   188   95   97 1    
   189   95  216 1    
   190   96  217 1    
   191   96  218 1    
   192   96  219 1    
   193   97   98 2    
   194   97   99 am   BACKBONE|DICT|INTERRES
   195   99  100 1    
   196   99  220 1    
   197  100  101 1    
   198  100  102 1    
   199  100  221 1    
   200  101  222 1    
   201  101  223 1    
   202  101  224 1    
   203  102  103 2    
   204  102  104 am   BACKBONE|DICT|INTERRES
   205  104  105 1    
   206  104  225 1    
   207  105  106 1    
   208  105  107 1    
   209  105  226 1    
   210  106  227 1    
   211  106  228 1    
   212  106  229 1    
   213  107  108 2    
   214  107  109 am   BACKBONE|DICT|INTERRES
   215  109  110 1    
   216  109  230 1    
   217  110  111 1    
   218  110  112 1    
   219  110  231 1    
   220  111  232 1    
   221  111  233 1    
   222  111  234 1    
   223  112  113 2    
   224  112  114 am   BACKBONE|DICT|INTERRES
   225  114  115 1    
   226  114  235 1    
   227  115  116 1    
   228  115  117 1    
   229  115  236 1    
   230  116  237 1    
   231  116  238 1    
   232  116  239 1    
   233  117  118 2    
   234  117  119 am   BACKBONE|DICT|INTERRES
   235  119  120 1    
   236  119  240 1    
   237  120  121 1    
   238  120  124 1    
   239  120  241 1    
   240  121  122 am   BACKBONE|DICT|INTERRES
   241  121  123 2    
   242  122  242 1    
   243  122  243 1    
   244  124  125 1    
   245  124  244 1    
   246  124  245 1    
   247  125  126 1    
   248  126  246 1    
   249  126  247 1    
@<TRIPOS>SUBSTRUCTURE
     1 UNK         1 GROUP             0       ****    0 ROOT    
