@<TRIPOS>MOLECULE
3R540
247   249    1
SMALL
USER_CHARGES


@<TRIPOS>ATOM
      1 CA         -6.4065  -12.1018  -49.2566 C.3       0 UNK        -0.1800 
      2 C          -5.0727  -12.2693  -49.9703 C.2       0 UNK         0.5000 
      3 O          -4.8068  -11.5662  -50.9448 O.2       0 UNK        -0.5000 
      4 N          -4.2340  -13.1930  -49.4849 N.am      1 UNK        -0.5000 
      5 CA         -2.9114  -13.5094  -50.0412 C.3       1 UNK         0.1400 
      6 C6         -2.4989  -14.9688  -49.7389 C.3       23 UNK        -0.0398 
      7 S7         -2.4864  -15.4121  -47.9670 S.3       23 UNK        -0.2404 
      8 C8         -2.6680  -17.2220  -48.0597 C.3       23 UNK        -0.0205 
      9 C9         -1.3691  -17.8970  -48.4743 C.ar      23 UNK        -0.0193 
     10 C10        -1.0238  -17.9969  -49.8250 C.ar      23 UNK        -0.1150 
     11 C11         0.1804  -18.5952  -50.2137 C.ar      23 UNK        -0.0193 
     12 C12         1.0339  -19.1032  -49.2301 C.ar      23 UNK        -0.1150 
     13 C13         0.6980  -19.0185  -47.8765 C.ar      23 UNK        -0.0193 
     14 C14        -0.5072  -18.4159  -47.5053 C.ar      23 UNK        -0.1150 
     15 C15         1.6593  -19.5407  -46.8164 C.3       23 UNK        -0.0205 
     16 S16         1.7878  -21.3568  -46.8218 S.3       23 UNK        -0.2404 
     17 C17         0.0408  -21.8361  -46.6486 C.3       23 UNK        -0.0398 
     18 CA         -0.1245  -23.2545  -46.0673 C.3       11 UNK         0.1400 
     19 N           0.3633  -23.3654  -44.6904 N.am      11 UNK        -0.5000 
     20 C           0.5069  -24.5250  -44.0347 C.2       10 UNK         0.5000 
     21 O           0.2831  -25.6258  -44.5371 O.2       10 UNK        -0.5000 
     22 CA          0.9058  -24.4341  -42.5538 C.3       10 UNK         0.1400 
     23 CB          2.4239  -24.2558  -42.4003 C.3       10 UNK        -0.1800 
     24 N           0.2028  -23.3412  -41.8819 N.am      10 UNK        -0.5000 
     25 C          -1.1008  -23.3692  -41.5696 C.2       9 UNK         0.5000 
     26 O          -1.8302  -24.3395  -41.7779 O.2       9 UNK        -0.5000 
     27 CA         -1.6982  -22.0840  -40.9631 C.3       9 UNK         0.1400 
     28 CB         -1.4554  -22.0376  -39.4473 C.3       9 UNK        -0.1800 
     29 N          -1.1716  -20.8622  -41.5765 N.am      9 UNK        -0.5000 
     30 C          -1.3688  -20.5166  -42.8563 C.2       8 UNK         0.5000 
     31 O          -2.0506  -21.1729  -43.6391 O.2       8 UNK        -0.5000 
     32 CA         -0.6524  -19.2570  -43.3753 C.3       8 UNK         0.1400 
     33 CB         -1.5675  -18.0315  -43.2356 C.3       8 UNK        -0.1800 
     34 N           0.6541  -18.9904  -42.7611 N.am      8 UNK        -0.5000 
     35 C           1.6784  -19.8582  -42.7118 C.2       7 UNK         0.5000 
     36 O           1.6180  -20.9989  -43.1749 O.2       7 UNK        -0.5000 
     37 CA          2.9596  -19.3777  -41.9950 C.3       7 UNK         0.1400 
     38 CB          4.1640  -20.3189  -42.2105 C.3       7 UNK        -0.1800 
     39 N           3.3005  -17.9855  -42.3112 N.am      7 UNK        -0.5000 
     40 C           3.6457  -17.4953  -43.5101 C.2       6 UNK         0.5000 
     41 O           3.8119  -18.1799  -44.5206 O.2       6 UNK        -0.5000 
     42 CA          3.7872  -15.9628  -43.6023 C.3       6 UNK         0.1400 
     43 CB          5.1789  -15.5567  -44.1123 C.3       6 UNK        -0.1800 
     44 N           2.7707  -15.4132  -44.4968 N.am      6 UNK        -0.5000 
     45 C           1.4500  -15.4916  -44.2909 C.2       5 UNK         0.5000 
     46 O           0.9696  -15.8832  -43.2254 O.2       5 UNK        -0.5000 
     47 CA          0.4983  -15.0781  -45.4388 C.3       5 UNK         0.1400 
     48 CB         -0.5701  -14.0971  -44.9286 C.3       5 UNK        -0.1800 
     49 N           1.1343  -14.5103  -46.6357 N.am      5 UNK        -0.5000 
     50 C           1.9263  -15.1710  -47.4961 C.2       4 UNK         0.5000 
     51 O           2.3021  -16.3256  -47.3134 O.2       4 UNK        -0.5000 
     52 CA          2.4169  -14.4323  -48.7575 C.3       4 UNK         0.1400 
     53 CB          1.7467  -15.0038  -50.0137 C.3       4 UNK        -0.1800 
     54 N           2.2031  -12.9862  -48.7129 N.am      4 UNK        -0.5000 
     55 C           2.9343  -12.1400  -47.9739 C.2       3 UNK         0.5000 
     56 O           3.8933  -12.4948  -47.2873 O.2       3 UNK        -0.5000 
     57 CA          2.5255  -10.6528  -47.9814 C.3       3 UNK         0.1400 
     58 CB          3.4619   -9.8441  -48.8925 C.3       3 UNK        -0.1800 
     59 N           1.1397  -10.3996  -48.3863 N.am      3 UNK        -0.5000 
     60 C           0.0465  -10.8427  -47.7507 C.2       2 UNK         0.5000 
     61 O           0.0891  -11.5687  -46.7575 O.2       2 UNK        -0.5000 
     62 CA         -1.3258  -10.4165  -48.3113 C.3       2 UNK         0.1400 
     63 CB         -1.2501   -9.3668  -49.4435 C.3       2 UNK        -0.1800 
     64 N          -2.1320  -11.5612  -48.7423 N.am      2 UNK        -0.5000 
     65 C          -1.8125  -12.4899  -49.6578 C.2       1 UNK         0.5000 
     66 O          -0.7157  -12.5497  -50.2186 O.2       1 UNK        -0.5000 
     67 C          -1.5849  -23.7288  -46.2084 C.2       11 UNK         0.5000 
     68 O          -1.9177  -24.3335  -47.2257 O.2       11 UNK        -0.5000 
     69 N          -2.4300  -23.4693  -45.2022 N.am      12 UNK        -0.5000 
     70 CA         -3.8078  -23.9552  -45.1302 C.3       12 UNK         0.1400 
     71 CB         -4.5627  -23.2282  -44.0083 C.3       12 UNK        -0.1800 
     72 C          -3.8786  -25.4794  -44.9476 C.2       12 UNK         0.5000 
     73 O          -4.6767  -26.1271  -45.6243 O.2       12 UNK        -0.5000 
     74 N          -3.0114  -26.0319  -44.0864 N.am      13 UNK        -0.5000 
     75 CA         -2.8626  -27.4750  -43.8742 C.3       13 UNK         0.1400 
     76 CB         -1.9341  -27.7264  -42.6766 C.3       13 UNK        -0.1800 
     77 C          -2.3573  -28.2147  -45.1296 C.2       13 UNK         0.5000 
     78 O          -2.8187  -29.3205  -45.4132 O.2       13 UNK        -0.5000 
     79 N          -1.4519  -27.5714  -45.8788 N.am      14 UNK        -0.5000 
     80 CA         -0.9389  -28.0369  -47.1693 C.3       14 UNK         0.1400 
     81 CB          0.3771  -27.2991  -47.4645 C.3       14 UNK        -0.1800 
     82 C          -1.9283  -27.8436  -48.3391 C.2       14 UNK         0.5000 
     83 O          -1.6840  -28.3804  -49.4201 O.2       14 UNK        -0.5000 
     84 N          -2.9978  -27.0631  -48.1180 N.am      15 UNK        -0.5000 
     85 CA         -4.0088  -26.6184  -49.0864 C.3       15 UNK         0.1400 
     86 CB         -4.8079  -27.8112  -49.6501 C.3       15 UNK        -0.1800 
     87 C          -3.4427  -25.6958  -50.1902 C.2       15 UNK         0.5000 
     88 O          -4.0330  -25.5837  -51.2652 O.2       15 UNK        -0.5000 
     89 N          -2.3219  -25.0273  -49.8937 N.am      16 UNK        -0.5000 
     90 CA         -1.6648  -24.0454  -50.7519 C.3       16 UNK         0.1400 
     91 CB         -0.1750  -23.9725  -50.3825 C.3       16 UNK        -0.1800 
     92 C          -2.3190  -22.6609  -50.6227 C.2       16 UNK         0.5000 
     93 O          -2.4562  -21.9601  -51.6248 O.2       16 UNK        -0.5000 
     94 N          -2.7518  -22.3062  -49.4011 N.am      17 UNK        -0.5000 
     95 CA         -3.3917  -21.0214  -49.0895 C.3       17 UNK         0.1400 
     96 CB         -3.5725  -20.8794  -47.5707 C.3       17 UNK        -0.1800 
     97 C          -4.7411  -20.8149  -49.8010 C.2       17 UNK         0.5000 
     98 O          -5.1363  -19.6728  -50.0341 O.2       17 UNK        -0.5000 
     99 N          -5.4004  -21.9253  -50.1604 N.am      18 UNK        -0.5000 
    100 CA        -6.6625  -21.9756  -50.8976 C.3       18 UNK         0.1400 
    101 CB        -7.1517  -23.4318  -50.9334 C.3       18 UNK        -0.1800 
    102 C         -6.5827  -21.3964  -52.3249 C.2       18 UNK         0.5000 
    103 O         -7.6218  -21.0344  -52.8783 O.2       18 UNK        -0.5000 
    104 N         -5.3704  -21.3048  -52.8949 N.am      19 UNK        -0.5000 
    105 CA        -5.1192  -20.6620  -54.1857 C.3       19 UNK         0.1400 
    106 CB        -3.6975  -20.9998  -54.6585 C.3       19 UNK        -0.1800 
    107 C         -5.3190  -19.1355  -54.1330 C.2       19 UNK         0.5000 
    108 O         -5.7867  -18.5580  -55.1150 O.2       19 UNK        -0.5000 
    109 N         -4.9683  -18.5248  -52.9890 N.am      20 UNK        -0.5000 
    110 CA        -5.0649  -17.1086  -52.6059 C.3       20 UNK         0.1400 
    111 CB        -6.5339  -16.6566  -52.5292 C.3       20 UNK        -0.1800 
    112 C         -4.2305  -16.1327  -53.4609 C.2       20 UNK         0.5000 
    113 O         -3.4880  -15.3219  -52.9068 O.2       20 UNK        -0.5000 
    114 N         -4.3377  -16.2408  -54.7904 N.am      21 UNK        -0.5000 
    115 CA        -3.6707  -15.4130  -55.8000 C.3       21 UNK         0.1400 
    116 CB        -4.1993  -15.8115  -57.1864 C.3       21 UNK        -0.1800 
    117 C         -2.1308  -15.4831  -55.7681 C.2       21 UNK         0.5000 
    118 O         -1.4734  -14.5981  -56.3175 O.2       21 UNK        -0.5000 
    119 N         -1.5872  -16.5156  -55.1133 N.am      22 UNK        -0.5000 
    120 CA        -0.1664  -16.6491  -54.7724 C.3       22 UNK         0.1400 
    121 C          0.3515  -15.6176  -53.7215 C.2       22 UNK         0.5000 
    122 N         -0.5082  -14.9230  -52.9816 N.am      22 UNK        -0.7600 
    123 O          1.5586  -15.4377  -53.5899 O.2       22 UNK        -0.5000 
    124 C124        0.1776  -18.1104  -54.3812 C.3       23 UNK        -0.0398 
    125 S125       -0.7144  -18.7104  -52.9000 S.3       23 UNK        -0.2404 
    126 C126        0.6331  -18.6311  -51.6705 C.3       23 UNK        -0.0205 
    127 H127       -6.5029  -12.7836  -48.4112 H         1 UNK         0.0600 
    128 H128       -7.2277  -12.2977  -49.9461 H         1 UNK         0.0600 
    129 H129       -6.5079  -11.0823  -48.8846 H         1 UNK         0.0600 
    130 H130       -4.5010  -13.7384  -48.6769 H         1 UNK         0.3000 
    131 H131       -2.9923  -13.4330  -51.1272 H         1 UNK         0.0600 
    132 H132       -3.1989  -15.6326  -50.2451 H         1 UNK         0.0800 
    133 H133       -1.5259  -15.1922  -50.1733 H         1 UNK         0.0800 
    134 H134       -3.4702  -17.4875  -48.7503 H         1 UNK         0.0800 
    135 H135       -2.9805  -17.5883  -47.0808 H         1 UNK         0.0800 
    136 H136       -1.6869  -17.5854  -50.5711 H         1 UNK         0.1150 
    137 H137        1.9768  -19.5493  -49.5132 H         1 UNK         0.1150 
    138 H138       -0.7677  -18.3296  -46.4613 H         1 UNK         0.1150 
    139 H139        1.3706  -19.1988  -45.8228 H         1 UNK         0.0800 
    140 H140        2.6489  -19.1181  -46.9959 H         1 UNK         0.0800 
    141 H141       -0.4070  -21.7667  -47.6417 H         1 UNK         0.0800 
    142 H142       -0.4743  -21.1087  -46.0221 H         1 UNK         0.0800 
    143 H143        0.4786  -23.9315  -46.6760 H         1 UNK         0.0600 
    144 H144        0.6191  -22.5040  -44.2194 H         1 UNK         0.3000 
    145 H145        0.6262  -25.3730  -42.0710 H         1 UNK         0.0600 
    146 H146        2.9580  -25.1012  -42.8355 H         1 UNK         0.0600 
    147 H147        2.7106  -24.1954  -41.3504 H         1 UNK         0.0600 
    148 H148        2.7816  -23.3548  -42.8987 H         1 UNK         0.0600 
    149 H149        0.7161  -22.4774  -41.7690 H         1 UNK         0.3000 
    150 H150       -2.7765  -22.1085  -41.1345 H         1 UNK         0.0600 
    151 H151       -0.3922  -21.9825  -39.2100 H         1 UNK         0.0600 
    152 H152       -1.8547  -22.9288  -38.9611 H         1 UNK         0.0600 
    153 H153       -1.9460  -21.1753  -38.9956 H         1 UNK         0.0600 
    154 H154       -0.5985  -20.2665  -40.9977 H         1 UNK         0.3000 
    155 H155       -0.4776  -19.4189  -44.4373 H         1 UNK         0.0600 
    156 H156       -1.1974  -17.1929  -43.8223 H         1 UNK         0.0600 
    157 H157       -1.6540  -17.7084  -42.1978 H         1 UNK         0.0600 
    158 H158       -2.5737  -18.2469  -43.5985 H         1 UNK         0.0600 
    159 H159        0.7977  -18.0518  -42.4104 H         1 UNK         0.3000 
    160 H160        2.7266  -19.3946  -40.9295 H         1 UNK         0.0600 
    161 H161        4.4057  -20.4371  -43.2671 H         1 UNK         0.0600 
    162 H162        3.9558  -21.3131  -41.8137 H         1 UNK         0.0600 
    163 H163        5.0529  -19.9470  -41.7012 H         1 UNK         0.0600 
    164 H164        3.1710  -17.3291  -41.5536 H         1 UNK         0.3000 
    165 H165        3.6450  -15.5248  -42.6122 H         1 UNK         0.0600 
    166 H166        5.2888  -14.4723  -44.1374 H         1 UNK         0.0600 
    167 H167        5.9616  -15.9491  -43.4619 H         1 UNK         0.0600 
    168 H168        5.3662  -15.9353  -45.1181 H         1 UNK         0.0600 
    169 H169        3.0812  -15.1452  -45.4192 H         1 UNK         0.3000 
    170 H170       -0.0139  -15.9884  -45.7549 H         1 UNK         0.0600 
    171 H171       -1.2660  -13.8183  -45.7195 H         1 UNK         0.0600 
    172 H172       -0.1188  -13.1823  -44.5430 H         1 UNK         0.0600 
    173 H173       -1.1598  -14.5372  -44.1236 H         1 UNK         0.0600 
    174 H174        0.8971  -13.5463  -46.8413 H         1 UNK         0.3000 
    175 H175        3.4899  -14.6176  -48.8417 H         1 UNK         0.0600 
    176 H176        1.9419  -16.0724  -50.1085 H         1 UNK         0.0600 
    177 H177        0.6677  -14.8724  -49.9818 H         1 UNK         0.0600 
    178 H178        2.1198  -14.5233  -50.9181 H         1 UNK         0.0600 
    179 H179        1.4128  -12.6260  -49.2339 H         1 UNK         0.3000 
    180 H180        2.6410  -10.2843  -46.9600 H         1 UNK         0.0600 
    181 H181        3.3688  -10.1493  -49.9355 H         1 UNK         0.0600 
    182 H182        4.5047   -9.9801  -48.6025 H         1 UNK         0.0600 
    183 H183        3.2472   -8.7769  -48.8330 H         1 UNK         0.0600 
    184 H184        1.0116   -9.8317  -49.2110 H         1 UNK         0.3000 
    185 H185       -1.8608   -9.9602  -47.4774 H         1 UNK         0.0600 
    186 H186       -0.7229   -8.4693  -49.1173 H         1 UNK         0.0600 
    187 H187       -0.7447   -9.7508  -50.3305 H         1 UNK         0.0600 
    188 H188       -2.2493   -9.0546  -49.7478 H         1 UNK         0.0600 
    189 H189       -3.0460  -11.6328  -48.3196 H         1 UNK         0.3000 
    190 H190       -2.1257  -22.8622  -44.4458 H         1 UNK         0.3000 
    191 H191       -4.3016  -23.7203  -46.0745 H         1 UNK         0.0600 
    192 H192       -4.5950  -22.1538  -44.1899 H         1 UNK         0.0600 
    193 H193       -5.5938  -23.5772  -43.9403 H         1 UNK         0.0600 
    194 H194       -4.0957  -23.3892  -43.0366 H         1 UNK         0.0600 
    195 H195       -2.4109  -25.4260  -43.5387 H         1 UNK         0.3000 
    196 H196       -3.8475  -27.8776  -43.6282 H         1 UNK         0.0600 
    197 H197       -1.8429  -28.7936  -42.4714 H         1 UNK         0.0600 
    198 H198       -2.3189  -27.2526  -41.7734 H         1 UNK         0.0600 
    199 H199       -0.9306  -27.3401  -42.8543 H         1 UNK         0.0600 
    200 H200       -1.0607  -26.7044  -45.5226 H         1 UNK         0.3000 
    201 H201       -0.7238  -29.1047  -47.0934 H         1 UNK         0.0600 
    202 H202        0.8285  -27.6554  -48.3912 H         1 UNK         0.0600 
    203 H203        1.1050  -27.4552  -46.6681 H         1 UNK         0.0600 
    204 H204        0.2197  -26.2253  -47.5686 H         1 UNK         0.0600 
    205 H205       -3.0999  -26.6730  -47.1901 H         1 UNK         0.3000 
    206 H206       -4.7064  -26.0014  -48.5185 H         1 UNK         0.0600 
    207 H207       -5.1949  -28.4397  -48.8480 H         1 UNK         0.0600 
    208 H208       -5.6634  -27.4677  -50.2328 H         1 UNK         0.0600 
    209 H209       -4.1994  -28.4362  -50.3040 H         1 UNK         0.0600 
    210 H210       -1.9647  -25.1088  -48.9463 H         1 UNK         0.3000 
    211 H211       -1.7461  -24.3654  -51.7929 H         1 UNK         0.0600 
    212 H212       -0.0279  -23.6692  -49.3455 H         1 UNK         0.0600 
    213 H213        0.3484  -23.2519  -51.0125 H         1 UNK         0.0600 
    214 H214        0.3111  -24.9386  -50.5192 H         1 UNK         0.0600 
    215 H215       -2.6203  -22.9584  -48.6377 H         1 UNK         0.3000 
    216 H216       -2.7234  -20.2309  -49.4326 H         1 UNK         0.0600 
    217 H217       -4.0524  -19.9323  -47.3218 H         1 UNK         0.0600 
    218 H218       -2.6186  -20.8956  -47.0487 H         1 UNK         0.0600 
    219 H219       -4.1973  -21.6737  -47.1647 H         1 UNK         0.0600 
    220 H220       -4.9762  -22.8137  -49.9409 H         1 UNK         0.3000 
    221 H221       -7.3928  -21.3800  -50.3461 H         1 UNK         0.0600 
    222 H222       -6.4497  -24.0782  -51.4618 H         1 UNK         0.0600 
    223 H223       -7.2840  -23.8305  -49.9274 H         1 UNK         0.0600 
    224 H224       -8.1142  -23.5091  -51.4410 H         1 UNK         0.0600 
    225 H225       -4.5584  -21.6265  -52.3819 H         1 UNK         0.3000 
    226 H226       -5.8254  -21.0675  -54.9133 H         1 UNK         0.0600 
    227 H227       -3.5543  -22.0771  -54.7424 H         1 UNK         0.0600 
    228 H228       -2.9424  -20.6151  -53.9721 H         1 UNK         0.0600 
    229 H229       -3.4986  -20.5666  -55.6396 H         1 UNK         0.0600 
    230 H230       -4.6240  -19.1237  -52.2497 H         1 UNK         0.3000 
    231 H231       -4.6594  -17.0584  -51.5944 H         1 UNK         0.0600 
    232 H232       -7.0233  -16.6921  -53.5029 H         1 UNK         0.0600 
    233 H233       -6.6073  -15.6317  -52.1629 H         1 UNK         0.0600 
    234 H234       -7.1021  -17.2878  -51.8457 H         1 UNK         0.0600 
    235 H235       -4.9483  -16.9781  -55.1379 H         1 UNK         0.3000 
    236 H236       -3.9492  -14.3748  -55.6095 H         1 UNK         0.0600 
    237 H237       -3.9750  -16.8542  -57.4154 H         1 UNK         0.0600 
    238 H238       -5.2797  -15.6796  -57.2495 H         1 UNK         0.0600 
    239 H239       -3.7517  -15.1981  -57.9695 H         1 UNK         0.0600 
    240 H240       -2.2068  -17.1851  -54.6824 H         1 UNK         0.3000 
    241 H241        0.3913  -16.4322  -55.6854 H         1 UNK         0.0600 
    242 H242       -0.1565  -14.2448  -52.3251 H         1 UNK         0.3800 
    243 H243       -1.5080  -15.0687  -53.0706 H         1 UNK         0.3800 
    244 H244        1.2539  -18.2246  -54.2418 H         1 UNK         0.0800 
    245 H245       -0.0753  -18.7741  -55.2090 H         1 UNK         0.0800 
    246 H246        1.2927  -19.4841  -51.8367 H         1 UNK         0.0800 
    247 H247        1.2316  -17.7370  -51.8455 H         1 UNK         0.0800 
@<TRIPOS>BOND
     1    1    2 1    
     2    1  127 1    
     3    1  128 1    
     4    1  129 1    
     5    2    3 2    
     6    2    4 am   BACKBONE|DICT|INTERRES
     7    4    5 1    
     8    4  130 1    
     9    5    6 1    
    10    5   65 1    
    11    5  131 1    
    12    6    7 1    
    13    6  132 1    
    14    6  133 1    
    15    7    8 1    
    16    8    9 1    
    17    8  134 1    
    18    8  135 1    
    19    9   10 ar   
    20    9   14 ar   
    21   10   11 ar   
    22   10  136 1    
    23   11   12 ar   
    24   11  126 1    
    25   12   13 ar   
    26   12  137 1    
    27   13   14 ar   
    28   13   15 1    
    29   14  138 1    
    30   15   16 1    
    31   15  139 1    
    32   15  140 1    
    33   16   17 1    
    34   17   18 1    
    35   17  141 1    
    36   17  142 1    
    37   18   19 1    
    38   18   67 1    
    39   18  143 1    
    40   19   20 am   BACKBONE|DICT|INTERRES
    41   19  144 1    
    42   20   21 2    
    43   20   22 1    
    44   22   23 1    
    45   22   24 1    
    46   22  145 1    
    47   23  146 1    
    48   23  147 1    
    49   23  148 1    
    50   24   25 am   BACKBONE|DICT|INTERRES
    51   24  149 1    
    52   25   26 2    
    53   25   27 1    
    54   27   28 1    
    55   27   29 1    
    56   27  150 1    
    57   28  151 1    
    58   28  152 1    
    59   28  153 1    
    60   29   30 am   BACKBONE|DICT|INTERRES
    61   29  154 1    
    62   30   31 2    
    63   30   32 1    
    64   32   33 1    
    65   32   34 1    
    66   32  155 1    
    67   33  156 1    
    68   33  157 1    
    69   33  158 1    
    70   34   35 am   BACKBONE|DICT|INTERRES
    71   34  159 1    
    72   35   36 2    
    73   35   37 1    
    74   37   38 1    
    75   37   39 1    
    76   37  160 1    
    77   38  161 1    
    78   38  162 1    
    79   38  163 1    
    80   39   40 am   BACKBONE|DICT|INTERRES
    81   39  164 1    
    82   40   41 2    
    83   40   42 1    
    84   42   43 1    
    85   42   44 1    
    86   42  165 1    
    87   43  166 1    
    88   43  167 1    
    89   43  168 1    
    90   44   45 am   BACKBONE|DICT|INTERRES
    91   44  169 1    
    92   45   46 2    
    93   45   47 1    
    94   47   48 1    
    95   47   49 1    
    96   47  170 1    
    97   48  171 1    
    98   48  172 1    
    99   48  173 1    
   100   49   50 am   BACKBONE|DICT|INTERRES
   101   49  174 1    
   102   50   51 2    
   103   50   52 1    
   104   52   53 1    
   105   52   54 1    
   106   52  175 1    
   107   53  176 1    
   108   53  177 1    
   109   53  178 1    
   110   54   55 am   BACKBONE|DICT|INTERRES
   111   54  179 1    
   112   55   56 2    
   113   55   57 1    
   114   57   58 1    
   115   57   59 1    
   116   57  180 1    
   117   58  181 1    
   118   58  182 1    
   119   58  183 1    
   120   59   60 am   BACKBONE|DICT|INTERRES
   121   59  184 1    
   122   60   61 2    
   123   60   62 1    
   124   62   63 1    
   125   62   64 1    
   126   62  185 1    
   127   63  186 1    
   128   63  187 1    
   129   63  188 1    
   130   64   65 am   BACKBONE|DICT|INTERRES
   131   64  189 1    
   132   65   66 2    
   133   67   68 2    
   134   67   69 am   BACKBONE|DICT|INTERRES
   135   69   70 1    
   136   69  190 1    
   137   70   71 1    
   138   70   72 1    
   139   70  191 1    
   140   71  192 1    
   141   71  193 1    
   142   71  194 1    
   143   72   73 2    
   144   72   74 am   BACKBONE|DICT|INTERRES
   145   74   75 1    
   146   74  195 1    
   147   75   76 1    
   148   75   77 1    
   149   75  196 1    
   150   76  197 1    
   151   76  198 1    
   152   76  199 1    
   153   77   78 2    
   154   77   79 am   BACKBONE|DICT|INTERRES
   155   79   80 1    
   156   79  200 1    
   157   80   81 1    
   158   80   82 1    
   159   80  201 1    
   160   81  202 1    
   161   81  203 1    
   162   81  204 1    
   163   82   83 2    
   164   82   84 am   BACKBONE|DICT|INTERRES
   165   84   85 1    
   166   84  205 1    
   167   85   86 1    
   168   85   87 1    
   169   85  206 1    
   170   86  207 1    
   171   86  208 1    
   172   86  209 1    
   173   87   88 2    
   174   87   89 am   BACKBONE|DICT|INTERRES
   175   89   90 1    
   176   89  210 1    
   177   90   91 1    
   178   90   92 1    
   179   90  211 1    
   180   91  212 1    
   181   91  213 1    
   182   91  214 1    
   183   92   93 2    
   184   92   94 am   BACKBONE|DICT|INTERRES
   185   94   95 1    
   186   94  215 1    
   187   95   96 1    
   188   95   97 1    
   189   95  216 1    
   190   96  217 1    
   191   96  218 1    
   192   96  219 1    
   193   97   98 2    
   194   97   99 am   BACKBONE|DICT|INTERRES
   195   99  100 1    
   196   99  220 1    
   197  100  101 1    
   198  100  102 1    
   199  100  221 1    
   200  101  222 1    
   201  101  223 1    
   202  101  224 1    
   203  102  103 2    
   204  102  104 am   BACKBONE|DICT|INTERRES
   205  104  105 1    
   206  104  225 1    
   207  105  106 1    
   208  105  107 1    
   209  105  226 1    
   210  106  227 1    
   211  106  228 1    
   212  106  229 1    
   213  107  108 2    
   214  107  109 am   BACKBONE|DICT|INTERRES
   215  109  110 1    
   216  109  230 1    
   217  110  111 1    
   218  110  112 1    
   219  110  231 1    
   220  111  232 1    
   221  111  233 1    
   222  111  234 1    
   223  112  113 2    
   224  112  114 am   BACKBONE|DICT|INTERRES
   225  114  115 1    
   226  114  235 1    
   227  115  116 1    
   228  115  117 1    
   229  115  236 1    
   230  116  237 1    
   231  116  238 1    
   232  116  239 1    
   233  117  118 2    
   234  117  119 am   BACKBONE|DICT|INTERRES
   235  119  120 1    
   236  119  240 1    
   237  120  121 1    
   238  120  124 1    
   239  120  241 1    
   240  121  122 am   BACKBONE|DICT|INTERRES
   241  121  123 2    
   242  122  242 1    
   243  122  243 1    
   244  124  125 1    
   245  124  244 1    
   246  124  245 1    
   247  125  126 1    
   248  126  246 1    
   249  126  247 1    
@<TRIPOS>SUBSTRUCTURE
     1 UNK         1 GROUP             0       ****    0 ROOT    
