@<TRIPOS>MOLECULE
3R540
247   249    1
SMALL
USER_CHARGES


@<TRIPOS>ATOM
      1 CA         -4.0374   -9.0666  -46.4018 C.3       0 UNK        -0.1800 
      2 C          -3.1106   -9.9287  -47.2476 C.2       0 UNK         0.5000 
      3 O          -2.9221   -9.6468  -48.4312 O.2       0 UNK        -0.5000 
      4 N          -2.5384  -10.9804  -46.6487 N.am      1 UNK        -0.5000 
      5 CA         -1.5711  -11.8798  -47.2792 C.3       1 UNK         0.1400 
      6 C6         -1.4277  -13.1934  -46.4700 C.3       23 UNK        -0.0398 
      7 S7         -0.2312  -14.3662  -47.1890 S.3       23 UNK        -0.2404 
      8 C8         -1.2969  -15.5179  -48.1036 C.3       23 UNK        -0.0205 
      9 C9         -0.4763  -16.2723  -49.1371 C.ar      23 UNK        -0.0193 
     10 C10        -0.5817  -15.9516  -50.4939 C.ar      23 UNK        -0.1150 
     11 C11         0.2044  -16.6128  -51.4418 C.ar      23 UNK        -0.0193 
     12 C12         1.1103  -17.5911  -51.0218 C.ar      23 UNK        -0.1150 
     13 C13         1.2279  -17.9184  -49.6681 C.ar      23 UNK        -0.0193 
     14 C14         0.4211  -17.2649  -48.7316 C.ar      23 UNK        -0.1150 
     15 C15         2.2452  -18.9581  -49.2155 C.3       23 UNK        -0.0205 
     16 S16         1.8696  -20.6219  -49.8545 S.3       23 UNK        -0.2404 
     17 C17         0.2225  -20.9160  -49.1341 C.3       23 UNK        -0.0398 
     18 CA          0.1336  -22.2319  -48.3326 C.3       11 UNK         0.1400 
     19 N           1.1020  -22.2762  -47.2362 N.am      11 UNK        -0.5000 
     20 C           1.3955  -23.3658  -46.5150 C.2       10 UNK         0.5000 
     21 O           0.8880  -24.4695  -46.7081 O.2       10 UNK        -0.5000 
     22 CA          2.3814  -23.1678  -45.3466 C.3       10 UNK         0.1400 
     23 CB          3.8232  -23.4135  -45.8144 C.3       10 UNK        -0.1800 
     24 N           2.2906  -21.8380  -44.7327 N.am      10 UNK        -0.5000 
     25 C           1.1861  -21.3383  -44.1622 C.2       9 UNK         0.5000 
     26 O           0.1197  -21.9554  -44.0903 O.2       9 UNK        -0.5000 
     27 CA          1.2718  -19.8796  -43.6800 C.3       9 UNK         0.1400 
     28 CB          1.0219  -18.9277  -44.8625 C.3       9 UNK        -0.1800 
     29 N           0.3071  -19.6021  -42.6144 N.am      9 UNK        -0.5000 
     30 C           0.4244  -20.0672  -41.3602 C.2       8 UNK         0.5000 
     31 O           1.3898  -20.7320  -40.9799 O.2       8 UNK        -0.5000 
     32 CA         -0.6869  -19.7327  -40.3433 C.3       8 UNK         0.1400 
     33 CB         -0.1259  -18.9291  -39.1579 C.3       8 UNK        -0.1800 
     34 N          -1.7961  -18.9847  -40.9340 N.am      8 UNK        -0.5000 
     35 C          -2.9051  -19.5412  -41.4407 C.2       7 UNK         0.5000 
     36 O          -3.1352  -20.7502  -41.4102 O.2       7 UNK        -0.5000 
     37 CA         -3.9347  -18.5991  -42.1009 C.3       7 UNK         0.1400 
     38 CB         -5.1055  -18.3286  -41.1437 C.3       7 UNK        -0.1800 
     39 N          -3.3821  -17.3167  -42.5446 N.am      7 UNK        -0.5000 
     40 C          -2.4319  -17.1667  -43.4765 C.2       6 UNK         0.5000 
     41 O          -1.9191  -18.1086  -44.0765 O.2       6 UNK        -0.5000 
     42 CA         -1.9263  -15.7395  -43.7580 C.3       6 UNK         0.1400 
     43 CB         -2.8488  -14.6257  -43.2145 C.3       6 UNK        -0.1800 
     44 N          -0.5578  -15.5444  -43.2723 N.am      6 UNK        -0.5000 
     45 C          -0.0936  -15.7290  -42.0282 C.2       5 UNK         0.5000 
     46 O          -0.7860  -16.1507  -41.1007 O.2       5 UNK        -0.5000 
     47 CA          1.3768  -15.3508  -41.7436 C.3       5 UNK         0.1400 
     48 CB          2.3007  -16.5821  -41.8114 C.3       5 UNK        -0.1800 
     49 N           1.9041  -14.2344  -42.5467 N.am      5 UNK        -0.5000 
     50 C           2.1556  -14.1931  -43.8628 C.2       4 UNK         0.5000 
     51 O           1.9445  -15.1422  -44.6198 O.2       4 UNK        -0.5000 
     52 CA          2.6518  -12.8385  -44.4134 C.3       4 UNK         0.1400 
     53 CB          3.9205  -12.3359  -43.6912 C.3       4 UNK        -0.1800 
     54 N           2.8322  -12.8453  -45.8687 N.am      4 UNK        -0.5000 
     55 C           3.7497  -13.5071  -46.5929 C.2       3 UNK         0.5000 
     56 O           4.6834  -14.1475  -46.1072 O.2       3 UNK        -0.5000 
     57 CA          3.6076  -13.4503  -48.1298 C.3       3 UNK         0.1400 
     58 CB          3.3010  -14.8454  -48.6994 C.3       3 UNK        -0.1800 
     59 N           2.5680  -12.5205  -48.5793 N.am      3 UNK        -0.5000 
     60 C           2.7248  -11.1945  -48.6946 C.2       2 UNK         0.5000 
     61 O           3.7877  -10.6116  -48.4784 O.2       2 UNK        -0.5000 
     62 CA          1.4825  -10.3777  -49.1031 C.3       2 UNK         0.1400 
     63 CB          1.4807  -10.1267  -50.6188 C.3       2 UNK        -0.1800 
     64 N           0.2154  -11.0096  -48.7239 N.am      2 UNK        -0.5000 
     65 C          -0.2222  -11.1504  -47.4655 C.2       1 UNK         0.5000 
     66 O           0.4011  -10.7620  -46.4750 O.2       1 UNK        -0.5000 
     67 C          -1.3170  -22.4432  -47.8505 C.2       11 UNK         0.5000 
     68 O          -2.1240  -23.0133  -48.5870 O.2       11 UNK        -0.5000 
     69 N          -1.6216  -21.9710  -46.6327 N.am      12 UNK        -0.5000 
     70 CA         -2.9121  -22.1630  -45.9766 C.3       12 UNK         0.1400 
     71 CB         -3.1314  -21.0760  -44.9180 C.3       12 UNK        -0.1800 
     72 C          -3.0165  -23.5687  -45.3675 C.2       12 UNK         0.5000 
     73 O          -4.0663  -24.2003  -45.4847 O.2       12 UNK        -0.5000 
     74 N          -1.9114  -24.0536  -44.7801 N.am      13 UNK        -0.5000 
     75 CA         -1.7766  -25.4091  -44.2392 C.3       13 UNK         0.1400 
     76 CB         -0.4216  -25.5479  -43.5308 C.3       13 UNK        -0.1800 
     77 C          -1.9526  -26.5073  -45.3075 C.2       13 UNK         0.5000 
     78 O          -2.5170  -27.5601  -45.0078 O.2       13 UNK        -0.5000 
     79 N          -1.5343  -26.2216  -46.5489 N.am      14 UNK        -0.5000 
     80 CA         -1.7419  -27.0345  -47.7513 C.3       14 UNK         0.1400 
     81 CB         -0.7281  -26.5887  -48.8208 C.3       14 UNK        -0.1800 
     82 C          -3.2006  -26.9845  -48.2678 C.2       14 UNK         0.5000 
     83 O          -3.4322  -26.7209  -49.4502 O.2       14 UNK        -0.5000 
     84 N          -4.1644  -27.2076  -47.3608 N.am      15 UNK        -0.5000 
     85 CA         -5.6210  -27.2434  -47.5625 C.3       15 UNK         0.1400 
     86 CB         -6.0050  -28.5063  -48.3606 C.3       15 UNK        -0.1800 
     87 C          -6.2130  -25.9593  -48.1885 C.2       15 UNK         0.5000 
     88 O          -7.2762  -26.0142  -48.8084 O.2       15 UNK        -0.5000 
     89 N          -5.4897  -24.8385  -48.0508 N.am      16 UNK        -0.5000 
     90 CA         -5.6986  -23.5370  -48.6931 C.3       16 UNK         0.1400 
     91 CB         -6.9831  -22.8660  -48.1688 C.3       16 UNK        -0.1800 
     92 C          -5.6328  -23.5560  -50.2364 C.2       16 UNK         0.5000 
     93 O          -5.9592  -22.5465  -50.8603 O.2       16 UNK        -0.5000 
     94 N          -5.1917  -24.6698  -50.8389 N.am      17 UNK        -0.5000 
     95 CA         -5.1246  -24.8522  -52.2880 C.3       17 UNK         0.1400 
     96 CB         -4.9227  -26.3404  -52.6097 C.3       17 UNK        -0.1800 
     97 C          -4.0153  -23.9957  -52.9134 C.2       17 UNK         0.5000 
     98 O          -4.2485  -23.3226  -53.9173 O.2       17 UNK        -0.5000 
     99 N          -2.8418  -23.9919  -52.2690 N.am      18 UNK        -0.5000 
    100 CA        -1.6990  -23.1688  -52.6570 C.3       18 UNK         0.1400 
    101 CB        -0.4521  -23.6460  -51.9028 C.3       18 UNK        -0.1800 
    102 C         -1.9520  -21.6671  -52.4335 C.2       18 UNK         0.5000 
    103 O         -1.5083  -20.8599  -53.2480 O.2       18 UNK        -0.5000 
    104 N         -2.6883  -21.3265  -51.3645 N.am      19 UNK        -0.5000 
    105 CA        -3.0934  -19.9551  -51.0406 C.3       19 UNK         0.1400 
    106 CB        -3.5945  -19.8954  -49.5886 C.3       19 UNK        -0.1800 
    107 C         -4.1586  -19.3980  -52.0039 C.2       19 UNK         0.5000 
    108 O         -4.2080  -18.1869  -52.2148 O.2       19 UNK        -0.5000 
    109 N         -4.9929  -20.2795  -52.5703 N.am      20 UNK        -0.5000 
    110 CA        -5.9479  -19.9393  -53.6219 C.3       20 UNK         0.1400 
    111 CB        -7.0449  -21.0133  -53.6877 C.3       20 UNK        -0.1800 
    112 C         -5.2545  -19.7774  -54.9865 C.2       20 UNK         0.5000 
    113 O         -5.5895  -18.8542  -55.7297 O.2       20 UNK        -0.5000 
    114 N         -4.3145  -20.6821  -55.2942 N.am      21 UNK        -0.5000 
    115 CA        -3.5803  -20.7193  -56.5565 C.3       21 UNK         0.1400 
    116 CB        -2.9116  -22.0943  -56.7190 C.3       21 UNK        -0.1800 
    117 C         -2.5499  -19.5841  -56.6928 C.2       21 UNK         0.5000 
    118 O         -2.6153  -18.8238  -57.6598 O.2       21 UNK        -0.5000 
    119 N         -1.6062  -19.5106  -55.7430 N.am      22 UNK        -0.5000 
    120 CA        -0.4545  -18.5867  -55.7251 C.3       22 UNK         0.1400 
    121 C          0.5137  -18.7106  -56.9453 C.2       22 UNK         0.5000 
    122 N          0.5599  -19.8440  -57.6353 N.am      22 UNK        -0.7600 
    123 O          1.2620  -17.7876  -57.2565 O.2       22 UNK        -0.5000 
    124 C124       -0.8690  -17.1220  -55.4072 C.3       23 UNK        -0.0398 
    125 S125       -1.4012  -16.9600  -53.6705 S.3       23 UNK        -0.2404 
    126 C126        0.0979  -16.2550  -52.9158 C.3       23 UNK        -0.0205 
    127 H127       -3.6655   -8.0428  -46.3630 H         1 UNK         0.0600 
    128 H128       -4.1175   -9.4383  -45.3800 H         1 UNK         0.0600 
    129 H129       -5.0367   -9.0513  -46.8370 H         1 UNK         0.0600 
    130 H130       -2.7105  -11.1379  -45.6662 H         1 UNK         0.3000 
    131 H131       -1.9601  -12.1472  -48.2644 H         1 UNK         0.0600 
    132 H132       -2.3979  -13.6832  -46.3778 H         1 UNK         0.0800 
    133 H133       -1.1008  -12.9747  -45.4520 H         1 UNK         0.0800 
    134 H134       -2.1065  -14.9687  -48.5867 H         1 UNK         0.0800 
    135 H135       -1.7607  -16.2206  -47.4098 H         1 UNK         0.0800 
    136 H136       -1.2707  -15.1835  -50.8160 H         1 UNK         0.1150 
    137 H137        1.7301  -18.0994  -51.7471 H         1 UNK         0.1150 
    138 H138        0.5127  -17.4996  -47.6802 H         1 UNK         0.1150 
    139 H139        3.2345  -18.6606  -49.5655 H         1 UNK         0.0800 
    140 H140        2.3057  -18.9963  -48.1271 H         1 UNK         0.0800 
    141 H141       -0.4811  -20.9234  -49.9632 H         1 UNK         0.0800 
    142 H142       -0.0658  -20.0744  -48.5028 H         1 UNK         0.0800 
    143 H143        0.3805  -23.0585  -48.9989 H         1 UNK         0.0600 
    144 H144        1.5868  -21.4172  -47.0266 H         1 UNK         0.3000 
    145 H145        2.1404  -23.9049  -44.5789 H         1 UNK         0.0600 
    146 H146        4.5240  -23.3558  -44.9814 H         1 UNK         0.0600 
    147 H147        3.9262  -24.4060  -46.2554 H         1 UNK         0.0600 
    148 H148        4.1329  -22.6865  -46.5664 H         1 UNK         0.0600 
    149 H149        3.1267  -21.2723  -44.7636 H         1 UNK         0.3000 
    150 H150        2.2744  -19.6929  -43.2894 H         1 UNK         0.0600 
    151 H151        1.8299  -18.9897  -45.5916 H         1 UNK         0.0600 
    152 H152        0.9613  -17.8890  -44.5383 H         1 UNK         0.0600 
    153 H153        0.0942  -19.1656  -45.3845 H         1 UNK         0.0600 
    154 H154       -0.5371  -19.1131  -42.8896 H         1 UNK         0.3000 
    155 H155       -1.0534  -20.6835  -39.9509 H         1 UNK         0.0600 
    156 H156        0.2933  -17.9749  -39.4756 H         1 UNK         0.0600 
    157 H157        0.6656  -19.4804  -38.6488 H         1 UNK         0.0600 
    158 H158       -0.9015  -18.7236  -38.4201 H         1 UNK         0.0600 
    159 H159       -1.6698  -17.9794  -41.0060 H         1 UNK         0.3000 
    160 H160       -4.3260  -19.1120  -42.9813 H         1 UNK         0.0600 
    161 H161       -4.7789  -17.7923  -40.2518 H         1 UNK         0.0600 
    162 H162       -5.5663  -19.2614  -40.8157 H         1 UNK         0.0600 
    163 H163       -5.8830  -17.7369  -41.6272 H         1 UNK         0.0600 
    164 H164       -3.7201  -16.4924  -42.0698 H         1 UNK         0.3000 
    165 H165       -1.8883  -15.6436  -44.8430 H         1 UNK         0.0600 
    166 H166       -2.4894  -13.6419  -43.5146 H         1 UNK         0.0600 
    167 H167       -3.8622  -14.7283  -43.6050 H         1 UNK         0.0600 
    168 H168       -2.9070  -14.6301  -42.1256 H         1 UNK         0.0600 
    169 H169        0.1327  -15.3001  -43.9764 H         1 UNK         0.3000 
    170 H170        1.3964  -14.9952  -40.7123 H         1 UNK         0.0600 
    171 H171        1.9579  -17.3662  -41.1365 H         1 UNK         0.0600 
    172 H172        2.3415  -17.0119  -42.8112 H         1 UNK         0.0600 
    173 H173        3.3183  -16.3256  -41.5176 H         1 UNK         0.0600 
    174 H174        2.0658  -13.3877  -42.0195 H         1 UNK         0.3000 
    175 H175        1.8541  -12.1183  -44.2257 H         1 UNK         0.0600 
    176 H176        4.7212  -13.0756  -43.7098 H         1 UNK         0.0600 
    177 H177        4.2983  -11.4215  -44.1491 H         1 UNK         0.0600 
    178 H178        3.7165  -12.1076  -42.6450 H         1 UNK         0.0600 
    179 H179        2.1080  -12.3614  -46.3819 H         1 UNK         0.3000 
    180 H180        4.5687  -13.1264  -48.5344 H         1 UNK         0.0600 
    181 H181        3.1891  -14.8200  -49.7835 H         1 UNK         0.0600 
    182 H182        2.3850  -15.2564  -48.2770 H         1 UNK         0.0600 
    183 H183        4.1047  -15.5465  -48.4720 H         1 UNK         0.0600 
    184 H184        1.6589  -12.9193  -48.7654 H         1 UNK         0.3000 
    185 H185        1.5439   -9.4118  -48.5972 H         1 UNK         0.0600 
    186 H186        0.6497   -9.4846  -50.9116 H         1 UNK         0.0600 
    187 H187        2.3996   -9.6302  -50.9338 H         1 UNK         0.0600 
    188 H188        1.4015  -11.0579  -51.1813 H         1 UNK         0.0600 
    189 H189       -0.3629  -11.3410  -49.4827 H         1 UNK         0.3000 
    190 H190       -0.8906  -21.5654  -46.0645 H         1 UNK         0.3000 
    191 H191       -3.7046  -22.0532  -46.7160 H         1 UNK         0.0600 
    192 H192       -4.0830  -21.2185  -44.4047 H         1 UNK         0.0600 
    193 H193       -3.1543  -20.0876  -45.3761 H         1 UNK         0.0600 
    194 H194       -2.3481  -21.0767  -44.1604 H         1 UNK         0.0600 
    195 H195       -1.1093  -23.4398  -44.6806 H         1 UNK         0.3000 
    196 H196       -2.5644  -25.5424  -43.4952 H         1 UNK         0.0600 
    197 H197        0.4075  -25.4917  -44.2350 H         1 UNK         0.0600 
    198 H198       -0.2822  -24.7674  -42.7822 H         1 UNK         0.0600 
    199 H199       -0.3486  -26.5083  -43.0191 H         1 UNK         0.0600 
    200 H200       -1.0231  -25.3569  -46.6833 H         1 UNK         0.3000 
    201 H201       -1.5284  -28.0760  -47.5032 H         1 UNK         0.0600 
    202 H202       -0.8858  -25.5498  -49.1119 H         1 UNK         0.0600 
    203 H203       -0.8074  -27.2001  -49.7205 H         1 UNK         0.0600 
    204 H204        0.2953  -26.6810  -48.4568 H         1 UNK         0.0600 
    205 H205       -3.8512  -27.3919  -46.4120 H         1 UNK         0.3000 
    206 H206       -6.0645  -27.3272  -46.5696 H         1 UNK         0.0600 
    207 H207       -5.5948  -29.4045  -47.8991 H         1 UNK         0.0600 
    208 H208       -7.0874  -28.6328  -48.4033 H         1 UNK         0.0600 
    209 H209       -5.6396  -28.4598  -49.3872 H         1 UNK         0.0600 
    210 H210       -4.6652  -24.8977  -47.4655 H         1 UNK         0.3000 
    211 H211       -4.8583  -22.9181  -48.3872 H         1 UNK         0.0600 
    212 H212       -7.0660  -21.8403  -48.5301 H         1 UNK         0.0600 
    213 H213       -6.9885  -22.8255  -47.0795 H         1 UNK         0.0600 
    214 H214       -7.8784  -23.3982  -48.4908 H         1 UNK         0.0600 
    215 H215       -4.8659  -25.4406  -50.2656 H         1 UNK         0.3000 
    216 H216       -6.0771  -24.5362  -52.7191 H         1 UNK         0.0600 
    217 H217       -3.9882  -26.7216  -52.1963 H         1 UNK         0.0600 
    218 H218       -4.8978  -26.5064  -53.6874 H         1 UNK         0.0600 
    219 H219       -5.7361  -26.9434  -52.2054 H         1 UNK         0.0600 
    220 H220       -2.7434  -24.5603  -51.4394 H         1 UNK         0.3000 
    221 H221       -1.5200  -23.3123  -53.7245 H         1 UNK         0.0600 
    222 H222       -0.1440  -24.6347  -52.2433 H         1 UNK         0.0600 
    223 H223       -0.6434  -23.7118  -50.8347 H         1 UNK         0.0600 
    224 H224        0.3910  -22.9701  -52.0538 H         1 UNK         0.0600 
    225 H225       -3.0040  -22.0567  -50.7417 H         1 UNK         0.3000 
    226 H226       -2.2144  -19.3109  -51.1225 H         1 UNK         0.0600 
    227 H227       -4.4331  -20.5719  -49.4225 H         1 UNK         0.0600 
    228 H228       -2.8054  -20.1543  -48.8849 H         1 UNK         0.0600 
    229 H229       -3.9296  -18.8892  -49.3335 H         1 UNK         0.0600 
    230 H230       -4.9604  -21.2481  -52.2771 H         1 UNK         0.3000 
    231 H231       -6.4250  -18.9894  -53.3711 H         1 UNK         0.0600 
    232 H232       -6.6361  -21.9981  -53.9154 H         1 UNK         0.0600 
    233 H233       -7.7783  -20.7753  -54.4590 H         1 UNK         0.0600 
    234 H234       -7.5800  -21.0864  -52.7407 H         1 UNK         0.0600 
    235 H235       -4.1422  -21.4444  -54.6473 H         1 UNK         0.3000 
    236 H236       -4.3025  -20.6077  -57.3683 H         1 UNK         0.0600 
    237 H237       -3.6541  -22.8924  -56.7286 H         1 UNK         0.0600 
    238 H238       -2.3599  -22.1534  -57.6580 H         1 UNK         0.0600 
    239 H239       -2.2112  -22.3032  -55.9099 H         1 UNK         0.0600 
    240 H240       -1.6581  -20.1368  -54.9426 H         1 UNK         0.3000 
    241 H241        0.1627  -18.9285  -54.8932 H         1 UNK         0.0600 
    242 H242        1.1937  -19.9240  -58.4151 H         1 UNK         0.3800 
    243 H243       -0.0299  -20.6213  -57.3862 H         1 UNK         0.3800 
    244 H244       -1.6801  -16.7982  -56.0601 H         1 UNK         0.0800 
    245 H245       -0.0527  -16.4196  -55.5808 H         1 UNK         0.0800 
    246 H246        0.9819  -16.6140  -53.4453 H         1 UNK         0.0800 
    247 H247        0.0871  -15.1707  -53.0354 H         1 UNK         0.0800 
@<TRIPOS>BOND
     1    1    2 1    
     2    1  127 1    
     3    1  128 1    
     4    1  129 1    
     5    2    3 2    
     6    2    4 am   BACKBONE|DICT|INTERRES
     7    4    5 1    
     8    4  130 1    
     9    5    6 1    
    10    5   65 1    
    11    5  131 1    
    12    6    7 1    
    13    6  132 1    
    14    6  133 1    
    15    7    8 1    
    16    8    9 1    
    17    8  134 1    
    18    8  135 1    
    19    9   10 ar   
    20    9   14 ar   
    21   10   11 ar   
    22   10  136 1    
    23   11   12 ar   
    24   11  126 1    
    25   12   13 ar   
    26   12  137 1    
    27   13   14 ar   
    28   13   15 1    
    29   14  138 1    
    30   15   16 1    
    31   15  139 1    
    32   15  140 1    
    33   16   17 1    
    34   17   18 1    
    35   17  141 1    
    36   17  142 1    
    37   18   19 1    
    38   18   67 1    
    39   18  143 1    
    40   19   20 am   BACKBONE|DICT|INTERRES
    41   19  144 1    
    42   20   21 2    
    43   20   22 1    
    44   22   23 1    
    45   22   24 1    
    46   22  145 1    
    47   23  146 1    
    48   23  147 1    
    49   23  148 1    
    50   24   25 am   BACKBONE|DICT|INTERRES
    51   24  149 1    
    52   25   26 2    
    53   25   27 1    
    54   27   28 1    
    55   27   29 1    
    56   27  150 1    
    57   28  151 1    
    58   28  152 1    
    59   28  153 1    
    60   29   30 am   BACKBONE|DICT|INTERRES
    61   29  154 1    
    62   30   31 2    
    63   30   32 1    
    64   32   33 1    
    65   32   34 1    
    66   32  155 1    
    67   33  156 1    
    68   33  157 1    
    69   33  158 1    
    70   34   35 am   BACKBONE|DICT|INTERRES
    71   34  159 1    
    72   35   36 2    
    73   35   37 1    
    74   37   38 1    
    75   37   39 1    
    76   37  160 1    
    77   38  161 1    
    78   38  162 1    
    79   38  163 1    
    80   39   40 am   BACKBONE|DICT|INTERRES
    81   39  164 1    
    82   40   41 2    
    83   40   42 1    
    84   42   43 1    
    85   42   44 1    
    86   42  165 1    
    87   43  166 1    
    88   43  167 1    
    89   43  168 1    
    90   44   45 am   BACKBONE|DICT|INTERRES
    91   44  169 1    
    92   45   46 2    
    93   45   47 1    
    94   47   48 1    
    95   47   49 1    
    96   47  170 1    
    97   48  171 1    
    98   48  172 1    
    99   48  173 1    
   100   49   50 am   BACKBONE|DICT|INTERRES
   101   49  174 1    
   102   50   51 2    
   103   50   52 1    
   104   52   53 1    
   105   52   54 1    
   106   52  175 1    
   107   53  176 1    
   108   53  177 1    
   109   53  178 1    
   110   54   55 am   BACKBONE|DICT|INTERRES
   111   54  179 1    
   112   55   56 2    
   113   55   57 1    
   114   57   58 1    
   115   57   59 1    
   116   57  180 1    
   117   58  181 1    
   118   58  182 1    
   119   58  183 1    
   120   59   60 am   BACKBONE|DICT|INTERRES
   121   59  184 1    
   122   60   61 2    
   123   60   62 1    
   124   62   63 1    
   125   62   64 1    
   126   62  185 1    
   127   63  186 1    
   128   63  187 1    
   129   63  188 1    
   130   64   65 am   BACKBONE|DICT|INTERRES
   131   64  189 1    
   132   65   66 2    
   133   67   68 2    
   134   67   69 am   BACKBONE|DICT|INTERRES
   135   69   70 1    
   136   69  190 1    
   137   70   71 1    
   138   70   72 1    
   139   70  191 1    
   140   71  192 1    
   141   71  193 1    
   142   71  194 1    
   143   72   73 2    
   144   72   74 am   BACKBONE|DICT|INTERRES
   145   74   75 1    
   146   74  195 1    
   147   75   76 1    
   148   75   77 1    
   149   75  196 1    
   150   76  197 1    
   151   76  198 1    
   152   76  199 1    
   153   77   78 2    
   154   77   79 am   BACKBONE|DICT|INTERRES
   155   79   80 1    
   156   79  200 1    
   157   80   81 1    
   158   80   82 1    
   159   80  201 1    
   160   81  202 1    
   161   81  203 1    
   162   81  204 1    
   163   82   83 2    
   164   82   84 am   BACKBONE|DICT|INTERRES
   165   84   85 1    
   166   84  205 1    
   167   85   86 1    
   168   85   87 1    
   169   85  206 1    
   170   86  207 1    
   171   86  208 1    
   172   86  209 1    
   173   87   88 2    
   174   87   89 am   BACKBONE|DICT|INTERRES
   175   89   90 1    
   176   89  210 1    
   177   90   91 1    
   178   90   92 1    
   179   90  211 1    
   180   91  212 1    
   181   91  213 1    
   182   91  214 1    
   183   92   93 2    
   184   92   94 am   BACKBONE|DICT|INTERRES
   185   94   95 1    
   186   94  215 1    
   187   95   96 1    
   188   95   97 1    
   189   95  216 1    
   190   96  217 1    
   191   96  218 1    
   192   96  219 1    
   193   97   98 2    
   194   97   99 am   BACKBONE|DICT|INTERRES
   195   99  100 1    
   196   99  220 1    
   197  100  101 1    
   198  100  102 1    
   199  100  221 1    
   200  101  222 1    
   201  101  223 1    
   202  101  224 1    
   203  102  103 2    
   204  102  104 am   BACKBONE|DICT|INTERRES
   205  104  105 1    
   206  104  225 1    
   207  105  106 1    
   208  105  107 1    
   209  105  226 1    
   210  106  227 1    
   211  106  228 1    
   212  106  229 1    
   213  107  108 2    
   214  107  109 am   BACKBONE|DICT|INTERRES
   215  109  110 1    
   216  109  230 1    
   217  110  111 1    
   218  110  112 1    
   219  110  231 1    
   220  111  232 1    
   221  111  233 1    
   222  111  234 1    
   223  112  113 2    
   224  112  114 am   BACKBONE|DICT|INTERRES
   225  114  115 1    
   226  114  235 1    
   227  115  116 1    
   228  115  117 1    
   229  115  236 1    
   230  116  237 1    
   231  116  238 1    
   232  116  239 1    
   233  117  118 2    
   234  117  119 am   BACKBONE|DICT|INTERRES
   235  119  120 1    
   236  119  240 1    
   237  120  121 1    
   238  120  124 1    
   239  120  241 1    
   240  121  122 am   BACKBONE|DICT|INTERRES
   241  121  123 2    
   242  122  242 1    
   243  122  243 1    
   244  124  125 1    
   245  124  244 1    
   246  124  245 1    
   247  125  126 1    
   248  126  246 1    
   249  126  247 1    
@<TRIPOS>SUBSTRUCTURE
     1 UNK         1 GROUP             0       ****    0 ROOT    
