@<TRIPOS>MOLECULE
3R540
247   249    1
SMALL
USER_CHARGES


@<TRIPOS>ATOM
      1 CA         -2.5390  -16.6456  -46.2743 C.3       0 UNK        -0.1800 
      2 C          -1.6175  -17.3296  -45.2755 C.2       0 UNK         0.5000 
      3 O          -1.5243  -16.8814  -44.1379 O.2       0 UNK        -0.5000 
      4 N          -0.9715  -18.4301  -45.6831 N.am      1 UNK        -0.5000 
      5 CA          0.0103  -19.2339  -44.9330 C.3       1 UNK         0.1400 
      6 C6          0.4530  -20.4478  -45.7857 C.3       23 UNK        -0.0398 
      7 S7          2.0020  -21.2453  -45.2342 S.3       23 UNK        -0.2404 
      8 C8          3.2347  -20.5736  -46.3991 C.3       23 UNK        -0.0205 
      9 C9          2.8835  -20.8465  -47.8559 C.ar      23 UNK        -0.0193 
     10 C10         2.7494  -19.7823  -48.7498 C.ar      23 UNK        -0.1150 
     11 C11         2.3895  -20.0073  -50.0803 C.ar      23 UNK        -0.0193 
     12 C12         2.1489  -21.3132  -50.5144 C.ar      23 UNK        -0.1150 
     13 C13         2.2584  -22.3860  -49.6233 C.ar      23 UNK        -0.0193 
     14 C14         2.6524  -22.1497  -48.3039 C.ar      23 UNK        -0.1150 
     15 C15         1.8909  -23.7946  -50.0616 C.3       23 UNK        -0.0205 
     16 S16         0.2436  -24.2699  -49.4367 S.3       23 UNK        -0.2404 
     17 C17        -0.8217  -23.0415  -50.2649 C.3       23 UNK        -0.0398 
     18 CA         -1.2306  -21.8638  -49.3376 C.3       11 UNK         0.1400 
     19 N          -1.3232  -20.6088  -50.0951 N.am      11 UNK        -0.5000 
     20 C          -1.2866  -19.3701  -49.5929 C.2       10 UNK         0.5000 
     21 O          -1.2366  -19.1167  -48.3862 O.2       10 UNK        -0.5000 
     22 CA         -1.3464  -18.2220  -50.6016 C.3       10 UNK         0.1400 
     23 CB         -2.7909  -17.9651  -51.0627 C.3       10 UNK        -0.1800 
     24 N          -0.7869  -17.0201  -49.9936 N.am      10 UNK        -0.5000 
     25 C          -0.2689  -15.9868  -50.6667 C.2       9 UNK         0.5000 
     26 O          -0.1945  -15.9445  -51.8960 O.2       9 UNK        -0.5000 
     27 CA          0.3203  -14.8441  -49.8277 C.3       9 UNK         0.1400 
     28 CB         -0.7047  -14.2636  -48.8395 C.3       9 UNK        -0.1800 
     29 N           1.4766  -15.3388  -49.0871 N.am      9 UNK        -0.5000 
     30 C           2.7505  -15.0111  -49.3210 C.2       8 UNK         0.5000 
     31 O           3.0957  -14.1835  -50.1660 O.2       8 UNK        -0.5000 
     32 CA          3.8144  -15.7485  -48.4766 C.3       8 UNK         0.1400 
     33 CB          5.2490  -15.2967  -48.8032 C.3       8 UNK        -0.1800 
     34 N           3.6050  -15.6250  -47.0320 N.am      8 UNK        -0.5000 
     35 C           2.6424  -16.2024  -46.3000 C.2       7 UNK         0.5000 
     36 O           1.7721  -16.9319  -46.7779 O.2       7 UNK        -0.5000 
     37 CA          2.6503  -15.9223  -44.7809 C.3       7 UNK         0.1400 
     38 CB          4.0350  -15.5119  -44.2349 C.3       7 UNK        -0.1800 
     39 N           1.6386  -14.9456  -44.3693 N.am      7 UNK        -0.5000 
     40 C           1.4566  -13.7043  -44.8478 C.2       6 UNK         0.5000 
     41 O           2.1191  -13.2037  -45.7567 O.2       6 UNK        -0.5000 
     42 CA          0.3814  -12.8552  -44.1541 C.3       6 UNK         0.1400 
     43 CB         -1.0321  -13.3722  -44.4582 C.3       6 UNK        -0.1800 
     44 N           0.5993  -12.8366  -42.7085 N.am      6 UNK        -0.5000 
     45 C           1.2656  -11.8729  -42.0566 C.2       5 UNK         0.5000 
     46 O           1.7285  -10.8712  -42.6039 O.2       5 UNK        -0.5000 
     47 CA          1.4422  -12.0394  -40.5336 C.3       5 UNK         0.1400 
     48 CB          0.3342  -11.2862  -39.7814 C.3       5 UNK        -0.1800 
     49 N           1.4399  -13.4366  -40.1021 N.am      5 UNK        -0.5000 
     50 C           2.4344  -14.3076  -40.3219 C.2       4 UNK         0.5000 
     51 O           3.5062  -14.0018  -40.8446 O.2       4 UNK        -0.5000 
     52 CA          2.1840  -15.7711  -39.9015 C.3       4 UNK         0.1400 
     53 CB          2.8553  -16.0650  -38.5513 C.3       4 UNK        -0.1800 
     54 N           0.7644  -16.1374  -39.8188 N.am      4 UNK        -0.5000 
     55 C          -0.0794  -16.1501  -40.8582 C.2       3 UNK         0.5000 
     56 O           0.2464  -15.8104  -41.9976 O.2       3 UNK        -0.5000 
     57 CA         -1.5293  -16.5611  -40.5683 C.3       3 UNK         0.1400 
     58 CB         -2.4915  -15.4042  -40.8832 C.3       3 UNK        -0.1800 
     59 N          -1.8661  -17.7037  -41.4086 N.am      3 UNK        -0.5000 
     60 C          -2.1752  -18.9302  -40.9648 C.2       2 UNK         0.5000 
     61 O          -2.2871  -19.2125  -39.7710 O.2       2 UNK        -0.5000 
     62 CA         -2.3914  -20.0441  -42.0151 C.3       2 UNK         0.1400 
     63 CB         -3.8902  -20.2934  -42.2439 C.3       2 UNK        -0.1800 
     64 N          -1.7624  -19.7746  -43.3077 N.am      2 UNK        -0.5000 
     65 C          -0.4433  -19.6743  -43.5192 C.2       1 UNK         0.5000 
     66 O           0.3980  -19.8846  -42.6448 O.2       1 UNK        -0.5000 
     67 C          -2.4976  -22.1670  -48.4982 C.2       11 UNK         0.5000 
     68 O          -3.0278  -23.2769  -48.5477 O.2       11 UNK        -0.5000 
     69 N          -2.9722  -21.1811  -47.7253 N.am      12 UNK        -0.5000 
     70 CA         -4.1906  -21.2185  -46.9079 C.3       12 UNK         0.1400 
     71 CB         -4.3940  -19.8494  -46.2460 C.3       12 UNK        -0.1800 
     72 C          -4.2317  -22.3393  -45.8531 C.2       12 UNK         0.5000 
     73 O          -5.3178  -22.7555  -45.4530 O.2       12 UNK        -0.5000 
     74 N          -3.0517  -22.8221  -45.4495 N.am      13 UNK        -0.5000 
     75 CA         -2.8696  -23.9344  -44.5225 C.3       13 UNK         0.1400 
     76 CB         -1.4190  -23.9027  -44.0146 C.3       13 UNK        -0.1800 
     77 C          -3.2074  -25.3169  -45.1238 C.2       13 UNK         0.5000 
     78 O          -3.3805  -26.2611  -44.3516 O.2       13 UNK        -0.5000 
     79 N          -3.2786  -25.4321  -46.4603 N.am      14 UNK        -0.5000 
     80 CA         -3.4905  -26.7031  -47.1615 C.3       14 UNK         0.1400 
     81 CB         -2.1473  -27.2049  -47.7168 C.3       14 UNK        -0.1800 
     82 C          -4.5362  -26.6061  -48.2846 C.2       14 UNK         0.5000 
     83 O          -5.3749  -27.4998  -48.4047 O.2       14 UNK        -0.5000 
     84 N          -4.4709  -25.5409  -49.0917 N.am      15 UNK        -0.5000 
     85 CA         -5.3030  -25.3291  -50.2793 C.3       15 UNK         0.1400 
     86 CB         -4.4044  -24.7982  -51.4098 C.3       15 UNK        -0.1800 
     87 C          -6.4650  -24.3517  -50.0248 C.2       15 UNK         0.5000 
     88 O          -7.2029  -24.0422  -50.9612 O.2       15 UNK        -0.5000 
     89 N          -6.5818  -23.8324  -48.7914 N.am      16 UNK        -0.5000 
     90 CA         -7.5940  -22.8701  -48.3243 C.3       16 UNK         0.1400 
     91 CB         -8.9893  -23.5280  -48.3066 C.3       16 UNK        -0.1800 
     92 C          -7.5915  -21.5276  -49.0941 C.2       16 UNK         0.5000 
     93 O          -8.5922  -20.8106  -49.0799 O.2       16 UNK        -0.5000 
     94 N          -6.4671  -21.2302  -49.7655 N.am      17 UNK        -0.5000 
     95 CA         -6.2212  -20.1031  -50.6707 C.3       17 UNK         0.1400 
     96 CB         -6.3189  -18.7551  -49.9278 C.3       17 UNK        -0.1800 
     97 C          -7.0690  -20.1408  -51.9622 C.2       17 UNK         0.5000 
     98 O          -7.1341  -19.1371  -52.6733 O.2       17 UNK        -0.5000 
     99 N          -7.6708  -21.2991  -52.2739 N.am      18 UNK        -0.5000 
    100 CA        -8.3944  -21.5495  -53.5232 C.3       18 UNK         0.1400 
    101 CB        -9.3850  -22.7031  -53.3022 C.3       18 UNK        -0.1800 
    102 C         -7.4411  -21.8692  -54.6923 C.2       18 UNK         0.5000 
    103 O         -7.8446  -21.7776  -55.8524 O.2       18 UNK        -0.5000 
    104 N         -6.1972  -22.2301  -54.3641 N.am      19 UNK        -0.5000 
    105 CA        -5.0938  -22.5097  -55.2694 C.3       19 UNK         0.1400 
    106 CB        -5.1780  -23.9718  -55.7462 C.3       19 UNK        -0.1800 
    107 C         -3.7811  -22.2328  -54.5188 C.2       19 UNK         0.5000 
    108 O         -3.8081  -21.9860  -53.3082 O.2       19 UNK        -0.5000 
    109 N         -2.6618  -22.3014  -55.2534 N.am      20 UNK        -0.5000 
    110 CA        -1.2837  -22.1542  -54.7724 C.3       20 UNK         0.1400 
    111 CB        -0.8935  -23.3459  -53.8754 C.3       20 UNK        -0.1800 
    112 C         -1.0202  -20.7787  -54.1258 C.2       20 UNK         0.5000 
    113 O         -0.6369  -20.6901  -52.9565 O.2       20 UNK        -0.5000 
    114 N         -1.2516  -19.7245  -54.9174 N.am      21 UNK        -0.5000 
    115 CA        -0.8767  -18.3491  -54.5984 C.3       21 UNK         0.1400 
    116 CB        -1.6769  -17.3918  -55.4940 C.3       21 UNK        -0.1800 
    117 C          0.6368  -18.1407  -54.7952 C.2       21 UNK         0.5000 
    118 O          1.2084  -18.6978  -55.7361 O.2       21 UNK        -0.5000 
    119 N          1.2450  -17.3206  -53.9328 N.am      22 UNK        -0.5000 
    120 CA         2.6538  -16.8975  -54.0336 C.3       22 UNK         0.1400 
    121 C          2.8368  -15.5690  -54.8269 C.2       22 UNK         0.5000 
    122 N          1.7793  -14.8674  -55.2185 N.am      22 UNK        -0.7600 
    123 O          3.9642  -15.1739  -55.1108 O.2       22 UNK        -0.5000 
    124 C124        3.3203  -16.8071  -52.6356 C.3       23 UNK        -0.0398 
    125 S125        3.7337  -18.4362  -51.9213 S.3       23 UNK        -0.2404 
    126 C126        2.2070  -18.8340  -51.0273 C.3       23 UNK        -0.0205 
    127 H127       -2.3911  -17.0113  -47.2893 H         1 UNK         0.0600 
    128 H128       -3.5788  -16.8174  -45.9973 H         1 UNK         0.0600 
    129 H129       -2.3649  -15.5706  -46.2680 H         1 UNK         0.0600 
    130 H130       -1.0739  -18.6974  -46.6599 H         1 UNK         0.3000 
    131 H131        0.8767  -18.5879  -44.7918 H         1 UNK         0.0600 
    132 H132       -0.3311  -21.2050  -45.8122 H         1 UNK         0.0800 
    133 H133        0.5828  -20.1326  -46.8195 H         1 UNK         0.0800 
    134 H134        3.3354  -19.5022  -46.2178 H         1 UNK         0.0800 
    135 H135        4.2069  -21.0171  -46.1809 H         1 UNK         0.0800 
    136 H136        2.9036  -18.7747  -48.3994 H         1 UNK         0.1150 
    137 H137        1.8405  -21.4870  -51.5361 H         1 UNK         0.1150 
    138 H138        2.7296  -22.9763  -47.6115 H         1 UNK         0.1150 
    139 H139        1.9093  -23.8811  -51.1492 H         1 UNK         0.0800 
    140 H140        2.6328  -24.4998  -49.6843 H         1 UNK         0.0800 
    141 H141       -1.6886  -23.5505  -50.6860 H         1 UNK         0.0800 
    142 H142       -0.2739  -22.6662  -51.1277 H         1 UNK         0.0800 
    143 H143       -0.4261  -21.7160  -48.6145 H         1 UNK         0.0600 
    144 H144       -1.3322  -20.7102  -51.1066 H         1 UNK         0.3000 
    145 H145       -0.7327  -18.5045  -51.4532 H         1 UNK         0.0600 
    146 H146       -2.8385  -17.1538  -51.7892 H         1 UNK         0.0600 
    147 H147       -3.2113  -18.8496  -51.5426 H         1 UNK         0.0600 
    148 H148       -3.4361  -17.7009  -50.2241 H         1 UNK         0.0600 
    149 H149       -0.7608  -17.0403  -48.9830 H         1 UNK         0.3000 
    150 H150        0.6099  -14.0476  -50.5163 H         1 UNK         0.0600 
    151 H151       -1.6226  -13.9693  -49.3500 H         1 UNK         0.0600 
    152 H152       -0.3072  -13.3769  -48.3451 H         1 UNK         0.0600 
    153 H153       -0.9693  -14.9790  -48.0628 H         1 UNK         0.0600 
    154 H154        1.3040  -16.0160  -48.3483 H         1 UNK         0.3000 
    155 H155        3.7467  -16.8019  -48.7443 H         1 UNK         0.0600 
    156 H156        5.9828  -15.8802  -48.2467 H         1 UNK         0.0600 
    157 H157        5.4039  -14.2441  -48.5629 H         1 UNK         0.0600 
    158 H158        5.4703  -15.4300  -49.8631 H         1 UNK         0.0600 
    159 H159        4.2270  -14.9890  -46.5547 H         1 UNK         0.3000 
    160 H160        2.3802  -16.8609  -44.2965 H         1 UNK         0.0600 
    161 H161        4.0259  -15.4836  -43.1455 H         1 UNK         0.0600 
    162 H162        4.3437  -14.5260  -44.5838 H         1 UNK         0.0600 
    163 H163        4.8038  -16.2278  -44.5288 H         1 UNK         0.0600 
    164 H164        1.0226  -15.2623  -43.6231 H         1 UNK         0.3000 
    165 H165        0.4487  -11.8425  -44.5575 H         1 UNK         0.0600 
    166 H166       -1.2087  -14.3477  -44.0091 H         1 UNK         0.0600 
    167 H167       -1.7893  -12.6898  -44.0723 H         1 UNK         0.0600 
    168 H168       -1.1932  -13.4654  -45.5329 H         1 UNK         0.0600 
    169 H169        0.3149  -13.6648  -42.2008 H         1 UNK         0.3000 
    170 H170        2.4024  -11.5962  -40.2609 H         1 UNK         0.0600 
    171 H171        0.3224  -10.2310  -40.0577 H         1 UNK         0.0600 
    172 H172       -0.6527  -11.6945  -40.0031 H         1 UNK         0.0600 
    173 H173        0.4848  -11.3363  -38.7028 H         1 UNK         0.0600 
    174 H174        0.6037  -13.7717  -39.6479 H         1 UNK         0.3000 
    175 H175        2.6470  -16.4069  -40.6593 H         1 UNK         0.0600 
    176 H176        2.7640  -17.1184  -38.2857 H         1 UNK         0.0600 
    177 H177        3.9204  -15.8317  -38.5849 H         1 UNK         0.0600 
    178 H178        2.4153  -15.4748  -37.7465 H         1 UNK         0.0600 
    179 H179        0.4277  -16.4204  -38.9095 H         1 UNK         0.3000 
    180 H180       -1.6259  -16.8087  -39.5094 H         1 UNK         0.0600 
    181 H181       -2.4517  -15.1206  -41.9359 H         1 UNK         0.0600 
    182 H182       -2.2484  -14.5194  -40.2937 H         1 UNK         0.0600 
    183 H183       -3.5210  -15.6776  -40.6520 H         1 UNK         0.0600 
    184 H184       -1.7385  -17.5469  -42.4074 H         1 UNK         0.3000 
    185 H185       -1.9507  -20.9590  -41.6138 H         1 UNK         0.0600 
    186 H186       -4.3965  -20.5220  -41.3052 H         1 UNK         0.0600 
    187 H187       -4.3810  -19.4213  -42.6779 H         1 UNK         0.0600 
    188 H188       -4.0528  -21.1391  -42.9123 H         1 UNK         0.0600 
    189 H189       -2.3793  -19.5287  -44.0656 H         1 UNK         0.3000 
    190 H190       -2.4780  -20.2944  -47.7729 H         1 UNK         0.3000 
    191 H191       -5.0252  -21.3936  -47.5814 H         1 UNK         0.0600 
    192 H192       -4.4158  -19.0503  -46.9865 H         1 UNK         0.0600 
    193 H193       -5.3393  -19.8139  -45.7026 H         1 UNK         0.0600 
    194 H194       -3.6005  -19.6282  -45.5348 H         1 UNK         0.0600 
    195 H195       -2.2163  -22.4353  -45.8583 H         1 UNK         0.3000 
    196 H196       -3.5325  -23.7803  -43.6683 H         1 UNK         0.0600 
    197 H197       -1.2409  -24.6959  -43.2874 H         1 UNK         0.0600 
    198 H198       -1.1932  -22.9566  -43.5217 H         1 UNK         0.0600 
    199 H199       -0.7044  -24.0367  -44.8279 H         1 UNK         0.0600 
    200 H200       -3.1383  -24.6092  -47.0351 H         1 UNK         0.3000 
    201 H201       -3.8645  -27.4577  -46.4664 H         1 UNK         0.0600 
    202 H202       -1.4284  -27.3734  -46.9148 H         1 UNK         0.0600 
    203 H203       -1.7087  -26.4898  -48.4137 H         1 UNK         0.0600 
    204 H204       -2.2700  -28.1498  -48.2477 H         1 UNK         0.0600 
    205 H205       -3.7777  -24.8161  -48.9136 H         1 UNK         0.3000 
    206 H206       -5.7389  -26.2742  -50.6089 H         1 UNK         0.0600 
    207 H207       -3.5596  -25.4626  -51.5917 H         1 UNK         0.0600 
    208 H208       -4.9574  -24.7150  -52.3462 H         1 UNK         0.0600 
    209 H209       -4.0098  -23.8087  -51.1776 H         1 UNK         0.0600 
    210 H210       -5.9193  -24.1457  -48.0961 H         1 UNK         0.3000 
    211 H211       -7.3346  -22.6261  -47.2938 H         1 UNK         0.0600 
    212 H212       -9.3526  -23.7346  -49.3139 H         1 UNK         0.0600 
    213 H213       -9.7224  -22.8826  -47.8214 H         1 UNK         0.0600 
    214 H214       -8.9743  -24.4685  -47.7559 H         1 UNK         0.0600 
    215 H215       -5.7251  -21.9137  -49.7243 H         1 UNK         0.3000 
    216 H216       -5.1877  -20.2164  -51.0008 H         1 UNK         0.0600 
    217 H217       -5.6876  -18.7482  -49.0400 H         1 UNK         0.0600 
    218 H218       -7.3400  -18.5341  -49.6170 H         1 UNK         0.0600 
    219 H219       -5.9894  -17.9328  -50.5637 H         1 UNK         0.0600 
    220 H220       -7.5652  -22.0943  -51.6528 H         1 UNK         0.3000 
    221 H221       -8.9644  -20.6574  -53.7908 H         1 UNK         0.0600 
    222 H222       -8.8710  -23.6368  -53.0709 H         1 UNK         0.0600 
    223 H223      -10.0692  -22.4847  -52.4821 H         1 UNK         0.0600 
    224 H224       -9.9892  -22.8744  -54.1939 H         1 UNK         0.0600 
    225 H225       -5.9272  -22.2235  -53.3887 H         1 UNK         0.3000 
    226 H226       -5.1465  -21.8348  -56.1261 H         1 UNK         0.0600 
    227 H227       -6.1198  -24.1664  -56.2596 H         1 UNK         0.0600 
    228 H228       -4.3764  -24.2086  -56.4463 H         1 UNK         0.0600 
    229 H229       -5.1032  -24.6699  -54.9116 H         1 UNK         0.0600 
    230 H230       -2.7537  -22.4962  -56.2406 H         1 UNK         0.3000 
    231 H231       -0.6407  -22.1964  -55.6529 H         1 UNK         0.0600 
    232 H232       -0.9459  -24.2835  -54.4288 H         1 UNK         0.0600 
    233 H233       -1.5543  -23.4367  -53.0152 H         1 UNK         0.0600 
    234 H234        0.1278  -23.2456  -53.5058 H         1 UNK         0.0600 
    235 H235       -1.5550  -19.8934  -55.8650 H         1 UNK         0.3000 
    236 H236       -1.1421  -18.1376  -53.5646 H         1 UNK         0.0600 
    237 H237       -1.4508  -16.3525  -55.2530 H         1 UNK         0.0600 
    238 H238       -1.4505  -17.5419  -56.5505 H         1 UNK         0.0600 
    239 H239       -2.7498  -17.5291  -55.3570 H         1 UNK         0.0600 
    240 H240        0.6970  -16.8599  -53.2084 H         1 UNK         0.3000 
    241 H241        3.2080  -17.6432  -54.6068 H         1 UNK         0.0600 
    242 H242        0.8468  -15.1713  -54.9912 H         1 UNK         0.3800 
    243 H243        1.9159  -14.0143  -55.7380 H         1 UNK         0.3800 
    244 H244        4.2617  -16.2569  -52.6865 H         1 UNK         0.0800 
    245 H245        2.6883  -16.2436  -51.9505 H         1 UNK         0.0800 
    246 H246        1.8739  -17.9625  -50.4658 H         1 UNK         0.0800 
    247 H247        1.4293  -19.0657  -51.7541 H         1 UNK         0.0800 
@<TRIPOS>BOND
     1    1    2 1    
     2    1  127 1    
     3    1  128 1    
     4    1  129 1    
     5    2    3 2    
     6    2    4 am   BACKBONE|DICT|INTERRES
     7    4    5 1    
     8    4  130 1    
     9    5    6 1    
    10    5   65 1    
    11    5  131 1    
    12    6    7 1    
    13    6  132 1    
    14    6  133 1    
    15    7    8 1    
    16    8    9 1    
    17    8  134 1    
    18    8  135 1    
    19    9   10 ar   
    20    9   14 ar   
    21   10   11 ar   
    22   10  136 1    
    23   11   12 ar   
    24   11  126 1    
    25   12   13 ar   
    26   12  137 1    
    27   13   14 ar   
    28   13   15 1    
    29   14  138 1    
    30   15   16 1    
    31   15  139 1    
    32   15  140 1    
    33   16   17 1    
    34   17   18 1    
    35   17  141 1    
    36   17  142 1    
    37   18   19 1    
    38   18   67 1    
    39   18  143 1    
    40   19   20 am   BACKBONE|DICT|INTERRES
    41   19  144 1    
    42   20   21 2    
    43   20   22 1    
    44   22   23 1    
    45   22   24 1    
    46   22  145 1    
    47   23  146 1    
    48   23  147 1    
    49   23  148 1    
    50   24   25 am   BACKBONE|DICT|INTERRES
    51   24  149 1    
    52   25   26 2    
    53   25   27 1    
    54   27   28 1    
    55   27   29 1    
    56   27  150 1    
    57   28  151 1    
    58   28  152 1    
    59   28  153 1    
    60   29   30 am   BACKBONE|DICT|INTERRES
    61   29  154 1    
    62   30   31 2    
    63   30   32 1    
    64   32   33 1    
    65   32   34 1    
    66   32  155 1    
    67   33  156 1    
    68   33  157 1    
    69   33  158 1    
    70   34   35 am   BACKBONE|DICT|INTERRES
    71   34  159 1    
    72   35   36 2    
    73   35   37 1    
    74   37   38 1    
    75   37   39 1    
    76   37  160 1    
    77   38  161 1    
    78   38  162 1    
    79   38  163 1    
    80   39   40 am   BACKBONE|DICT|INTERRES
    81   39  164 1    
    82   40   41 2    
    83   40   42 1    
    84   42   43 1    
    85   42   44 1    
    86   42  165 1    
    87   43  166 1    
    88   43  167 1    
    89   43  168 1    
    90   44   45 am   BACKBONE|DICT|INTERRES
    91   44  169 1    
    92   45   46 2    
    93   45   47 1    
    94   47   48 1    
    95   47   49 1    
    96   47  170 1    
    97   48  171 1    
    98   48  172 1    
    99   48  173 1    
   100   49   50 am   BACKBONE|DICT|INTERRES
   101   49  174 1    
   102   50   51 2    
   103   50   52 1    
   104   52   53 1    
   105   52   54 1    
   106   52  175 1    
   107   53  176 1    
   108   53  177 1    
   109   53  178 1    
   110   54   55 am   BACKBONE|DICT|INTERRES
   111   54  179 1    
   112   55   56 2    
   113   55   57 1    
   114   57   58 1    
   115   57   59 1    
   116   57  180 1    
   117   58  181 1    
   118   58  182 1    
   119   58  183 1    
   120   59   60 am   BACKBONE|DICT|INTERRES
   121   59  184 1    
   122   60   61 2    
   123   60   62 1    
   124   62   63 1    
   125   62   64 1    
   126   62  185 1    
   127   63  186 1    
   128   63  187 1    
   129   63  188 1    
   130   64   65 am   BACKBONE|DICT|INTERRES
   131   64  189 1    
   132   65   66 2    
   133   67   68 2    
   134   67   69 am   BACKBONE|DICT|INTERRES
   135   69   70 1    
   136   69  190 1    
   137   70   71 1    
   138   70   72 1    
   139   70  191 1    
   140   71  192 1    
   141   71  193 1    
   142   71  194 1    
   143   72   73 2    
   144   72   74 am   BACKBONE|DICT|INTERRES
   145   74   75 1    
   146   74  195 1    
   147   75   76 1    
   148   75   77 1    
   149   75  196 1    
   150   76  197 1    
   151   76  198 1    
   152   76  199 1    
   153   77   78 2    
   154   77   79 am   BACKBONE|DICT|INTERRES
   155   79   80 1    
   156   79  200 1    
   157   80   81 1    
   158   80   82 1    
   159   80  201 1    
   160   81  202 1    
   161   81  203 1    
   162   81  204 1    
   163   82   83 2    
   164   82   84 am   BACKBONE|DICT|INTERRES
   165   84   85 1    
   166   84  205 1    
   167   85   86 1    
   168   85   87 1    
   169   85  206 1    
   170   86  207 1    
   171   86  208 1    
   172   86  209 1    
   173   87   88 2    
   174   87   89 am   BACKBONE|DICT|INTERRES
   175   89   90 1    
   176   89  210 1    
   177   90   91 1    
   178   90   92 1    
   179   90  211 1    
   180   91  212 1    
   181   91  213 1    
   182   91  214 1    
   183   92   93 2    
   184   92   94 am   BACKBONE|DICT|INTERRES
   185   94   95 1    
   186   94  215 1    
   187   95   96 1    
   188   95   97 1    
   189   95  216 1    
   190   96  217 1    
   191   96  218 1    
   192   96  219 1    
   193   97   98 2    
   194   97   99 am   BACKBONE|DICT|INTERRES
   195   99  100 1    
   196   99  220 1    
   197  100  101 1    
   198  100  102 1    
   199  100  221 1    
   200  101  222 1    
   201  101  223 1    
   202  101  224 1    
   203  102  103 2    
   204  102  104 am   BACKBONE|DICT|INTERRES
   205  104  105 1    
   206  104  225 1    
   207  105  106 1    
   208  105  107 1    
   209  105  226 1    
   210  106  227 1    
   211  106  228 1    
   212  106  229 1    
   213  107  108 2    
   214  107  109 am   BACKBONE|DICT|INTERRES
   215  109  110 1    
   216  109  230 1    
   217  110  111 1    
   218  110  112 1    
   219  110  231 1    
   220  111  232 1    
   221  111  233 1    
   222  111  234 1    
   223  112  113 2    
   224  112  114 am   BACKBONE|DICT|INTERRES
   225  114  115 1    
   226  114  235 1    
   227  115  116 1    
   228  115  117 1    
   229  115  236 1    
   230  116  237 1    
   231  116  238 1    
   232  116  239 1    
   233  117  118 2    
   234  117  119 am   BACKBONE|DICT|INTERRES
   235  119  120 1    
   236  119  240 1    
   237  120  121 1    
   238  120  124 1    
   239  120  241 1    
   240  121  122 am   BACKBONE|DICT|INTERRES
   241  121  123 2    
   242  122  242 1    
   243  122  243 1    
   244  124  125 1    
   245  124  244 1    
   246  124  245 1    
   247  125  126 1    
   248  126  246 1    
   249  126  247 1    
@<TRIPOS>SUBSTRUCTURE
     1 UNK         1 GROUP             0       ****    0 ROOT    
