@<TRIPOS>MOLECULE
3R540
247   249    1
SMALL
USER_CHARGES


@<TRIPOS>ATOM
      1 CA          1.7948  -14.7216  -52.7161 C.3       0 UNK        -0.1800 
      2 C           0.5911  -14.4780  -51.8182 C.2       0 UNK         0.5000 
      3 O           0.1942  -13.3275  -51.6316 O.2       0 UNK        -0.5000 
      4 N           0.0270  -15.5562  -51.2561 N.am      1 UNK        -0.5000 
      5 CA         -1.1240  -15.5745  -50.3397 C.3       1 UNK         0.1400 
      6 C6         -2.4504  -15.1133  -51.0055 C.3       23 UNK        -0.0398 
      7 S7         -2.8970  -16.0813  -52.4893 S.3       23 UNK        -0.2404 
      8 C8         -4.4138  -16.9312  -51.9521 C.3       23 UNK        -0.0205 
      9 C9         -4.1205  -18.2688  -51.2924 C.ar      23 UNK        -0.0193 
     10 C10        -4.2892  -19.4515  -52.0171 C.ar      23 UNK        -0.1150 
     11 C11        -4.0761  -20.6948  -51.4165 C.ar      23 UNK        -0.0193 
     12 C12        -3.6564  -20.7456  -50.0839 C.ar      23 UNK        -0.1150 
     13 C13        -3.4701  -19.5698  -49.3517 C.ar      23 UNK        -0.0193 
     14 C14        -3.7137  -18.3337  -49.9568 C.ar      23 UNK        -0.1150 
     15 C15        -3.0150  -19.6421  -47.9049 C.3       23 UNK        -0.0205 
     16 S16        -1.2019  -19.6104  -47.7932 S.3       23 UNK        -0.2404 
     17 C17        -0.9638  -20.0626  -46.0443 C.3       23 UNK        -0.0398 
     18 CA         -0.4001  -21.4926  -45.8499 C.3       11 UNK         0.1400 
     19 N           0.3265  -21.6194  -44.5788 N.am      11 UNK        -0.5000 
     20 C           1.0874  -22.6685  -44.2279 C.2       10 UNK         0.5000 
     21 O           1.2478  -23.6660  -44.9276 O.2       10 UNK        -0.5000 
     22 CA          1.7063  -22.6304  -42.8227 C.3       10 UNK         0.1400 
     23 CB          2.9979  -21.7991  -42.8138 C.3       10 UNK        -0.1800 
     24 N           0.7687  -22.0791  -41.8499 N.am      10 UNK        -0.5000 
     25 C          -0.3231  -22.7014  -41.3883 C.2       9 UNK         0.5000 
     26 O          -0.6262  -23.8518  -41.7062 O.2       9 UNK        -0.5000 
     27 CA         -1.2538  -21.8835  -40.4659 C.3       9 UNK         0.1400 
     28 CB         -1.9116  -22.7443  -39.3686 C.3       9 UNK        -0.1800 
     29 N          -0.6171  -20.6848  -39.9043 N.am      9 UNK        -0.5000 
     30 C           0.4026  -20.6222  -39.0330 C.2       8 UNK         0.5000 
     31 O           0.9097  -21.6093  -38.4996 O.2       8 UNK        -0.5000 
     32 CA          0.9940  -19.2278  -38.7354 C.3       8 UNK         0.1400 
     33 CB          2.3985  -19.1104  -39.3496 C.3       8 UNK        -0.1800 
     34 N           0.1738  -18.1206  -39.2326 N.am      8 UNK        -0.5000 
     35 C          -0.9723  -17.7057  -38.6763 C.2       7 UNK         0.5000 
     36 O          -1.4376  -18.1754  -37.6375 O.2       7 UNK        -0.5000 
     37 CA         -1.7481  -16.6086  -39.4298 C.3       7 UNK         0.1400 
     38 CB         -1.2323  -15.2160  -39.0374 C.3       7 UNK        -0.1800 
     39 N          -1.6902  -16.7583  -40.8869 N.am      7 UNK        -0.5000 
     40 C          -2.1957  -17.7933  -41.5736 C.2       6 UNK         0.5000 
     41 O          -2.7828  -18.7398  -41.0503 O.2       6 UNK        -0.5000 
     42 CA         -1.9494  -17.8100  -43.0927 C.3       6 UNK         0.1400 
     43 CB         -2.9091  -16.8677  -43.8329 C.3       6 UNK        -0.1800 
     44 N          -0.5665  -17.4758  -43.4300 N.am      6 UNK        -0.5000 
     45 C           0.4879  -18.2451  -43.1286 C.2       5 UNK         0.5000 
     46 O           0.3916  -19.3623  -42.6223 O.2       5 UNK        -0.5000 
     47 CA          1.8814  -17.6784  -43.4403 C.3       5 UNK         0.1400 
     48 CB          2.2881  -18.0047  -44.8853 C.3       5 UNK        -0.1800 
     49 N           1.9491  -16.2354  -43.2129 N.am      5 UNK        -0.5000 
     50 C           1.8978  -15.6643  -42.0004 C.2       4 UNK         0.5000 
     51 O           1.8203  -16.2984  -40.9486 O.2       4 UNK        -0.5000 
     52 CA          1.8769  -14.1259  -41.9637 C.3       4 UNK         0.1400 
     53 CB          3.2971  -13.5587  -42.1065 C.3       4 UNK        -0.1800 
     54 N           1.0175  -13.5570  -43.0026 N.am      4 UNK        -0.5000 
     55 C          -0.3131  -13.7130  -43.0527 C.2       3 UNK         0.5000 
     56 O          -0.9621  -14.3184  -42.2015 O.2       3 UNK        -0.5000 
     57 CA         -1.0336  -13.1391  -44.2849 C.3       3 UNK         0.1400 
     58 CB         -1.4341  -11.6764  -44.0430 C.3       3 UNK        -0.1800 
     59 N          -0.2389  -13.2296  -45.5118 N.am      3 UNK        -0.5000 
     60 C           0.1431  -14.3752  -46.0917 C.2       2 UNK         0.5000 
     61 O          -0.0956  -15.4934  -45.6300 O.2       2 UNK        -0.5000 
     62 CA          0.9687  -14.2389  -47.3840 C.3       2 UNK         0.1400 
     63 CB          2.4142  -14.7077  -47.1559 C.3       2 UNK        -0.1800 
     64 N           0.4035  -14.9733  -48.5154 N.am      2 UNK        -0.5000 
     65 C          -0.8201  -14.7953  -49.0365 C.2       1 UNK         0.5000 
     66 O          -1.6579  -14.0243  -48.5640 O.2       1 UNK        -0.5000 
     67 C          -1.4969  -22.5716  -46.0154 C.2       11 UNK         0.5000 
     68 O          -1.8063  -22.9624  -47.1401 O.2       11 UNK        -0.5000 
     69 N          -2.0482  -23.0548  -44.8922 N.am      12 UNK        -0.5000 
     70 CA         -3.0060  -24.1598  -44.8582 C.3       12 UNK         0.1400 
     71 CB         -3.7531  -24.1403  -43.5157 C.3       12 UNK        -0.1800 
     72 C          -2.3396  -25.5302  -45.0935 C.2       12 UNK         0.5000 
     73 O          -2.9884  -26.4280  -45.6316 O.2       12 UNK        -0.5000 
     74 N          -1.0679  -25.6717  -44.6922 N.am      13 UNK        -0.5000 
     75 CA         -0.2695  -26.8814  -44.8887 C.3       13 UNK         0.1400 
     76 CB          0.8537  -26.9361  -43.8407 C.3       13 UNK        -0.1800 
     77 C           0.2977  -26.9624  -46.3169 C.2       13 UNK         0.5000 
     78 O           0.2184  -28.0215  -46.9408 O.2       13 UNK        -0.5000 
     79 N           0.8365  -25.8441  -46.8161 N.am      14 UNK        -0.5000 
     80 CA          1.3549  -25.6913  -48.1709 C.3       14 UNK         0.1400 
     81 CB          2.8207  -26.1554  -48.2350 C.3       14 UNK        -0.1800 
     82 C           1.2069  -24.2190  -48.5701 C.2       14 UNK         0.5000 
     83 O           1.7749  -23.3545  -47.9021 O.2       14 UNK        -0.5000 
     84 N           0.4287  -23.9607  -49.6283 N.am      15 UNK        -0.5000 
     85 CA          0.0537  -22.6250  -50.0953 C.3       15 UNK         0.1400 
     86 CB         -0.8748  -22.7655  -51.3094 C.3       15 UNK        -0.1800 
     87 C           1.2565  -21.7320  -50.4486 C.2       15 UNK         0.5000 
     88 O           2.1796  -22.1834  -51.1311 O.2       15 UNK        -0.5000 
     89 N           1.1986  -20.4708  -50.0062 N.am      16 UNK        -0.5000 
     90 CA          2.1592  -19.4211  -50.3283 C.3       16 UNK         0.1400 
     91 CB          2.0186  -18.2863  -49.2967 C.3       16 UNK        -0.1800 
     92 C           1.9072  -18.9291  -51.7628 C.2       16 UNK         0.5000 
     93 O           1.0580  -18.0616  -51.9649 O.2       16 UNK        -0.5000 
     94 N           2.5854  -19.5520  -52.7351 N.am      17 UNK        -0.5000 
     95 CA          2.5185  -19.3419  -54.1911 C.3       17 UNK         0.1400 
     96 CB          2.8585  -17.8864  -54.5639 C.3       17 UNK        -0.1800 
     97 C           1.2008  -19.7847  -54.8655 C.2       17 UNK         0.5000 
     98 O           1.2228  -20.0920  -56.0582 O.2       17 UNK        -0.5000 
     99 N           0.0995  -19.8320  -54.1047 N.am      18 UNK        -0.5000 
    100 CA        -1.2643  -20.1616  -54.5230 C.3       18 UNK         0.1400 
    101 CB        -1.3559  -21.6219  -55.0250 C.3       18 UNK        -0.1800 
    102 C         -1.8438  -19.1162  -55.5018 C.2       18 UNK         0.5000 
    103 O         -1.5090  -17.9346  -55.3933 O.2       18 UNK        -0.5000 
    104 N         -2.7290  -19.5642  -56.4057 N.am      19 UNK        -0.5000 
    105 CA        -3.5925  -18.7562  -57.2763 C.3       19 UNK         0.1400 
    106 CB        -2.7623  -17.9064  -58.2637 C.3       19 UNK        -0.1800 
    107 C         -4.6144  -17.9348  -56.4588 C.2       19 UNK         0.5000 
    108 O         -4.8843  -18.2826  -55.3064 O.2       19 UNK        -0.5000 
    109 N         -5.2060  -16.9000  -57.0760 N.am      20 UNK        -0.5000 
    110 CA        -6.2307  -16.0078  -56.5173 C.3       20 UNK         0.1400 
    111 CB        -5.6004  -15.0473  -55.4850 C.3       20 UNK        -0.1800 
    112 C         -7.4419  -16.8006  -55.9810 C.2       20 UNK         0.5000 
    113 O         -8.2131  -17.3288  -56.7836 O.2       20 UNK        -0.5000 
    114 N         -7.5510  -16.9317  -54.6513 N.am      21 UNK        -0.5000 
    115 CA        -8.5392  -17.7568  -53.9487 C.3       21 UNK         0.1400 
    116 CB        -8.3560  -17.5682  -52.4347 C.3       21 UNK        -0.1800 
    117 C         -8.4798  -19.2572  -54.3103 C.2       21 UNK         0.5000 
    118 O         -9.5117  -19.9282  -54.2638 O.2       21 UNK        -0.5000 
    119 N         -7.2903  -19.7415  -54.6871 N.am      22 UNK        -0.5000 
    120 CA        -7.0466  -21.0900  -55.2215 C.3       22 UNK         0.1400 
    121 C         -7.0106  -21.1317  -56.7799 C.2       22 UNK         0.5000 
    122 N         -7.3421  -20.0642  -57.4977 N.am      22 UNK        -0.7600 
    123 O         -6.6887  -22.1640  -57.3614 O.2       22 UNK        -0.5000 
    124 C124       -5.7731  -21.7226  -54.5999 C.3       23 UNK        -0.0398 
    125 S125       -5.9950  -22.1326  -52.8344 S.3       23 UNK        -0.2404 
    126 C126       -4.2935  -21.9828  -52.1995 C.3       23 UNK        -0.0205 
    127 H127        2.3085  -15.6450  -52.4489 H         1 UNK         0.0600 
    128 H128        2.5099  -13.9041  -52.6246 H         1 UNK         0.0600 
    129 H129        1.4795  -14.7869  -53.7573 H         1 UNK         0.0600 
    130 H130        0.3919  -16.4760  -51.5036 H         1 UNK         0.3000 
    131 H131       -1.2505  -16.6161  -50.0406 H         1 UNK         0.0600 
    132 H132       -3.2699  -15.1634  -50.2878 H         1 UNK         0.0800 
    133 H133       -2.3837  -14.0653  -51.3007 H         1 UNK         0.0800 
    134 H134       -4.9990  -16.2982  -51.2841 H         1 UNK         0.0800 
    135 H135       -5.0390  -17.0909  -52.8303 H         1 UNK         0.0800 
    136 H136       -4.6099  -19.4057  -53.0463 H         1 UNK         0.1150 
    137 H137       -3.4740  -21.7007  -49.6106 H         1 UNK         0.1150 
    138 H138       -3.5855  -17.4246  -49.3874 H         1 UNK         0.1150 
    139 H139       -3.4292  -18.8094  -47.3342 H         1 UNK         0.0800 
    140 H140       -3.3977  -20.5547  -47.4454 H         1 UNK         0.0800 
    141 H141       -1.8860  -19.9151  -45.4812 H         1 UNK         0.0800 
    142 H142       -0.2564  -19.3327  -45.6561 H         1 UNK         0.0800 
    143 H143        0.3366  -21.6642  -46.6352 H         1 UNK         0.0600 
    144 H144        0.2408  -20.8550  -43.9171 H         1 UNK         0.3000 
    145 H145        1.9518  -23.6536  -42.5299 H         1 UNK         0.0600 
    146 H146        3.4613  -21.8038  -41.8270 H         1 UNK         0.0600 
    147 H147        3.7260  -22.2038  -43.5178 H         1 UNK         0.0600 
    148 H148        2.8146  -20.7609  -43.0914 H         1 UNK         0.0600 
    149 H149        0.8771  -21.0972  -41.6258 H         1 UNK         0.3000 
    150 H150       -2.0533  -21.5147  -41.1097 H         1 UNK         0.0600 
    151 H151       -2.5276  -23.5303  -39.8070 H         1 UNK         0.0600 
    152 H152       -2.5603  -22.1425  -38.7321 H         1 UNK         0.0600 
    153 H153       -1.1714  -23.2300  -38.7327 H         1 UNK         0.0600 
    154 H154       -0.9623  -19.8098  -40.2784 H         1 UNK         0.3000 
    155 H155        1.0848  -19.1346  -37.6514 H         1 UNK         0.0600 
    156 H156        2.3688  -19.1895  -40.4368 H         1 UNK         0.0600 
    157 H157        3.0576  -19.8974  -38.9810 H         1 UNK         0.0600 
    158 H158        2.8612  -18.1566  -39.0957 H         1 UNK         0.0600 
    159 H159        0.5265  -17.6267  -40.0457 H         1 UNK         0.3000 
    160 H160       -2.7957  -16.6801  -39.1303 H         1 UNK         0.0600 
    161 H161       -0.1974  -15.0686  -39.3480 H         1 UNK         0.0600 
    162 H162       -1.2761  -15.0716  -37.9572 H         1 UNK         0.0600 
    163 H163       -1.8334  -14.4301  -39.4950 H         1 UNK         0.0600 
    164 H164       -1.2616  -15.9924  -41.4011 H         1 UNK         0.3000 
    165 H165       -2.1450  -18.8257  -43.4397 H         1 UNK         0.0600 
    166 H166       -2.7456  -16.9063  -44.9104 H         1 UNK         0.0600 
    167 H167       -3.9471  -17.1473  -43.6494 H         1 UNK         0.0600 
    168 H168       -2.7879  -15.8333  -43.5131 H         1 UNK         0.0600 
    169 H169       -0.4087  -16.6040  -43.9241 H         1 UNK         0.3000 
    170 H170        2.5952  -18.1619  -42.7703 H         1 UNK         0.0600 
    171 H171        2.3129  -19.0829  -45.0493 H         1 UNK         0.0600 
    172 H172        1.5905  -17.5829  -45.6090 H         1 UNK         0.0600 
    173 H173        3.2824  -17.6202  -45.1128 H         1 UNK         0.0600 
    174 H174        1.9567  -15.6448  -44.0308 H         1 UNK         0.3000 
    175 H175        1.4826  -13.8209  -40.9920 H         1 UNK         0.0600 
    176 H176        3.7371  -13.8067  -43.0732 H         1 UNK         0.0600 
    177 H177        3.2997  -12.4733  -42.0047 H         1 UNK         0.0600 
    178 H178        3.9555  -13.9579  -41.3337 H         1 UNK         0.0600 
    179 H179        1.4704  -13.0405  -43.7419 H         1 UNK         0.3000 
    180 H180       -1.9449  -13.7209  -44.4358 H         1 UNK         0.0600 
    181 H181       -0.5617  -11.0345  -43.9142 H         1 UNK         0.0600 
    182 H182       -2.0460  -11.5831  -43.1447 H         1 UNK         0.0600 
    183 H183       -2.0200  -11.2851  -44.8750 H         1 UNK         0.0600 
    184 H184       -0.0054  -12.3545  -45.9583 H         1 UNK         0.3000 
    185 H185        0.9982  -13.1851  -47.6685 H         1 UNK         0.0600 
    186 H186        2.4641  -15.7784  -46.9574 H         1 UNK         0.0600 
    187 H187        3.0365  -14.5021  -48.0271 H         1 UNK         0.0600 
    188 H188        2.8665  -14.1932  -46.3070 H         1 UNK         0.0600 
    189 H189        1.0218  -15.6215  -48.9780 H         1 UNK         0.3000 
    190 H190       -1.7300  -22.7017  -44.0027 H         1 UNK         0.3000 
    191 H191       -3.7393  -24.0070  -45.6531 H         1 UNK         0.0600 
    192 H192       -4.2586  -23.1875  -43.3578 H         1 UNK         0.0600 
    193 H193       -4.5145  -24.9206  -43.4840 H         1 UNK         0.0600 
    194 H194       -3.0804  -24.3078  -42.6745 H         1 UNK         0.0600 
    195 H195       -0.5914  -24.8790  -44.2849 H         1 UNK         0.3000 
    196 H196       -0.9092  -27.7527  -44.7319 H         1 UNK         0.0600 
    197 H197        1.4256  -27.8600  -43.9335 H         1 UNK         0.0600 
    198 H198        0.4495  -26.9032  -42.8287 H         1 UNK         0.0600 
    199 H199        1.5538  -26.1076  -43.9469 H         1 UNK         0.0600 
    200 H200        0.8906  -25.0094  -46.2340 H         1 UNK         0.3000 
    201 H201        0.7636  -26.3021  -48.8567 H         1 UNK         0.0600 
    202 H202        2.9113  -27.2145  -47.9939 H         1 UNK         0.0600 
    203 H203        3.4483  -25.5985  -47.5380 H         1 UNK         0.0600 
    204 H204        3.2309  -26.0121  -49.2353 H         1 UNK         0.0600 
    205 H205        0.0198  -24.7345  -50.1304 H         1 UNK         0.3000 
    206 H206       -0.5090  -22.1474  -49.2924 H         1 UNK         0.0600 
    207 H207       -1.7723  -23.3278  -51.0537 H         1 UNK         0.0600 
    208 H208       -1.1930  -21.7877  -51.6729 H         1 UNK         0.0600 
    209 H209       -0.3797  -23.2790  -52.1343 H         1 UNK         0.0600 
    210 H210        0.3939  -20.1796  -49.4666 H         1 UNK         0.3000 
    211 H211        3.1734  -19.8205  -50.2606 H         1 UNK         0.0600 
    212 H212        1.0067  -17.8806  -49.2753 H         1 UNK         0.0600 
    213 H213        2.7002  -17.4655  -49.5232 H         1 UNK         0.0600 
    214 H214        2.2543  -18.6376  -48.2918 H         1 UNK         0.0600 
    215 H215        3.1761  -20.3235  -52.4527 H         1 UNK         0.3000 
    216 H216        3.3023  -19.9761  -54.6081 H         1 UNK         0.0600 
    217 H217        3.0095  -17.7886  -55.6395 H         1 UNK         0.0600 
    218 H218        3.7722  -17.5500  -54.0740 H         1 UNK         0.0600 
    219 H219        2.0538  -17.2044  -54.2911 H         1 UNK         0.0600 
    220 H220        0.1864  -19.4349  -53.1767 H         1 UNK         0.3000 
    221 H221       -1.8710  -20.0871  -53.6199 H         1 UNK         0.0600 
    222 H222       -0.8678  -21.7525  -55.9913 H         1 UNK         0.0600 
    223 H223       -0.8828  -22.3078  -54.3234 H         1 UNK         0.0600 
    224 H224       -2.3915  -21.9445  -55.1331 H         1 UNK         0.0600 
    225 H225       -2.9247  -20.5541  -56.4124 H         1 UNK         0.3000 
    226 H226       -4.1761  -19.4685  -57.8611 H         1 UNK         0.0600 
    227 H227       -1.9840  -18.5046  -58.7378 H         1 UNK         0.0600 
    228 H228       -3.3857  -17.5057  -59.0633 H         1 UNK         0.0600 
    229 H229       -2.2790  -17.0626  -57.7702 H         1 UNK         0.0600 
    230 H230       -4.9530  -16.7155  -58.0361 H         1 UNK         0.3000 
    231 H231       -6.6056  -15.4019  -57.3434 H         1 UNK         0.0600 
    232 H232       -5.1100  -15.5775  -54.6697 H         1 UNK         0.0600 
    233 H233       -6.3501  -14.3840  -55.0517 H         1 UNK         0.0600 
    234 H234       -4.8484  -14.4148  -55.9566 H         1 UNK         0.0600 
    235 H235       -6.8486  -16.4897  -54.0781 H         1 UNK         0.3000 
    236 H236       -9.5300  -17.3908  -54.2250 H         1 UNK         0.0600 
    237 H237       -8.4528  -16.5203  -52.1503 H         1 UNK         0.0600 
    238 H238       -9.1107  -18.1259  -51.8786 H         1 UNK         0.0600 
    239 H239       -7.3789  -17.9203  -52.1011 H         1 UNK         0.0600 
    240 H240       -6.4971  -19.1072  -54.7343 H         1 UNK         0.3000 
    241 H241       -7.8857  -21.7344  -54.9540 H         1 UNK         0.0600 
    242 H242       -7.6643  -19.2064  -57.0633 H         1 UNK         0.3800 
    243 H243       -7.3297  -20.1319  -58.5029 H         1 UNK         0.3800 
    244 H244       -4.9215  -21.0537  -54.7280 H         1 UNK         0.0800 
    245 H245       -5.5079  -22.6537  -55.1035 H         1 UNK         0.0800 
    246 H246       -3.5705  -22.0455  -53.0119 H         1 UNK         0.0800 
    247 H247       -4.1048  -22.8472  -51.5618 H         1 UNK         0.0800 
@<TRIPOS>BOND
     1    1    2 1    
     2    1  127 1    
     3    1  128 1    
     4    1  129 1    
     5    2    3 2    
     6    2    4 am   BACKBONE|DICT|INTERRES
     7    4    5 1    
     8    4  130 1    
     9    5    6 1    
    10    5   65 1    
    11    5  131 1    
    12    6    7 1    
    13    6  132 1    
    14    6  133 1    
    15    7    8 1    
    16    8    9 1    
    17    8  134 1    
    18    8  135 1    
    19    9   10 ar   
    20    9   14 ar   
    21   10   11 ar   
    22   10  136 1    
    23   11   12 ar   
    24   11  126 1    
    25   12   13 ar   
    26   12  137 1    
    27   13   14 ar   
    28   13   15 1    
    29   14  138 1    
    30   15   16 1    
    31   15  139 1    
    32   15  140 1    
    33   16   17 1    
    34   17   18 1    
    35   17  141 1    
    36   17  142 1    
    37   18   19 1    
    38   18   67 1    
    39   18  143 1    
    40   19   20 am   BACKBONE|DICT|INTERRES
    41   19  144 1    
    42   20   21 2    
    43   20   22 1    
    44   22   23 1    
    45   22   24 1    
    46   22  145 1    
    47   23  146 1    
    48   23  147 1    
    49   23  148 1    
    50   24   25 am   BACKBONE|DICT|INTERRES
    51   24  149 1    
    52   25   26 2    
    53   25   27 1    
    54   27   28 1    
    55   27   29 1    
    56   27  150 1    
    57   28  151 1    
    58   28  152 1    
    59   28  153 1    
    60   29   30 am   BACKBONE|DICT|INTERRES
    61   29  154 1    
    62   30   31 2    
    63   30   32 1    
    64   32   33 1    
    65   32   34 1    
    66   32  155 1    
    67   33  156 1    
    68   33  157 1    
    69   33  158 1    
    70   34   35 am   BACKBONE|DICT|INTERRES
    71   34  159 1    
    72   35   36 2    
    73   35   37 1    
    74   37   38 1    
    75   37   39 1    
    76   37  160 1    
    77   38  161 1    
    78   38  162 1    
    79   38  163 1    
    80   39   40 am   BACKBONE|DICT|INTERRES
    81   39  164 1    
    82   40   41 2    
    83   40   42 1    
    84   42   43 1    
    85   42   44 1    
    86   42  165 1    
    87   43  166 1    
    88   43  167 1    
    89   43  168 1    
    90   44   45 am   BACKBONE|DICT|INTERRES
    91   44  169 1    
    92   45   46 2    
    93   45   47 1    
    94   47   48 1    
    95   47   49 1    
    96   47  170 1    
    97   48  171 1    
    98   48  172 1    
    99   48  173 1    
   100   49   50 am   BACKBONE|DICT|INTERRES
   101   49  174 1    
   102   50   51 2    
   103   50   52 1    
   104   52   53 1    
   105   52   54 1    
   106   52  175 1    
   107   53  176 1    
   108   53  177 1    
   109   53  178 1    
   110   54   55 am   BACKBONE|DICT|INTERRES
   111   54  179 1    
   112   55   56 2    
   113   55   57 1    
   114   57   58 1    
   115   57   59 1    
   116   57  180 1    
   117   58  181 1    
   118   58  182 1    
   119   58  183 1    
   120   59   60 am   BACKBONE|DICT|INTERRES
   121   59  184 1    
   122   60   61 2    
   123   60   62 1    
   124   62   63 1    
   125   62   64 1    
   126   62  185 1    
   127   63  186 1    
   128   63  187 1    
   129   63  188 1    
   130   64   65 am   BACKBONE|DICT|INTERRES
   131   64  189 1    
   132   65   66 2    
   133   67   68 2    
   134   67   69 am   BACKBONE|DICT|INTERRES
   135   69   70 1    
   136   69  190 1    
   137   70   71 1    
   138   70   72 1    
   139   70  191 1    
   140   71  192 1    
   141   71  193 1    
   142   71  194 1    
   143   72   73 2    
   144   72   74 am   BACKBONE|DICT|INTERRES
   145   74   75 1    
   146   74  195 1    
   147   75   76 1    
   148   75   77 1    
   149   75  196 1    
   150   76  197 1    
   151   76  198 1    
   152   76  199 1    
   153   77   78 2    
   154   77   79 am   BACKBONE|DICT|INTERRES
   155   79   80 1    
   156   79  200 1    
   157   80   81 1    
   158   80   82 1    
   159   80  201 1    
   160   81  202 1    
   161   81  203 1    
   162   81  204 1    
   163   82   83 2    
   164   82   84 am   BACKBONE|DICT|INTERRES
   165   84   85 1    
   166   84  205 1    
   167   85   86 1    
   168   85   87 1    
   169   85  206 1    
   170   86  207 1    
   171   86  208 1    
   172   86  209 1    
   173   87   88 2    
   174   87   89 am   BACKBONE|DICT|INTERRES
   175   89   90 1    
   176   89  210 1    
   177   90   91 1    
   178   90   92 1    
   179   90  211 1    
   180   91  212 1    
   181   91  213 1    
   182   91  214 1    
   183   92   93 2    
   184   92   94 am   BACKBONE|DICT|INTERRES
   185   94   95 1    
   186   94  215 1    
   187   95   96 1    
   188   95   97 1    
   189   95  216 1    
   190   96  217 1    
   191   96  218 1    
   192   96  219 1    
   193   97   98 2    
   194   97   99 am   BACKBONE|DICT|INTERRES
   195   99  100 1    
   196   99  220 1    
   197  100  101 1    
   198  100  102 1    
   199  100  221 1    
   200  101  222 1    
   201  101  223 1    
   202  101  224 1    
   203  102  103 2    
   204  102  104 am   BACKBONE|DICT|INTERRES
   205  104  105 1    
   206  104  225 1    
   207  105  106 1    
   208  105  107 1    
   209  105  226 1    
   210  106  227 1    
   211  106  228 1    
   212  106  229 1    
   213  107  108 2    
   214  107  109 am   BACKBONE|DICT|INTERRES
   215  109  110 1    
   216  109  230 1    
   217  110  111 1    
   218  110  112 1    
   219  110  231 1    
   220  111  232 1    
   221  111  233 1    
   222  111  234 1    
   223  112  113 2    
   224  112  114 am   BACKBONE|DICT|INTERRES
   225  114  115 1    
   226  114  235 1    
   227  115  116 1    
   228  115  117 1    
   229  115  236 1    
   230  116  237 1    
   231  116  238 1    
   232  116  239 1    
   233  117  118 2    
   234  117  119 am   BACKBONE|DICT|INTERRES
   235  119  120 1    
   236  119  240 1    
   237  120  121 1    
   238  120  124 1    
   239  120  241 1    
   240  121  122 am   BACKBONE|DICT|INTERRES
   241  121  123 2    
   242  122  242 1    
   243  122  243 1    
   244  124  125 1    
   245  124  244 1    
   246  124  245 1    
   247  125  126 1    
   248  126  246 1    
   249  126  247 1    
@<TRIPOS>SUBSTRUCTURE
     1 UNK         1 GROUP             0       ****    0 ROOT    
