@<TRIPOS>MOLECULE
3R540
247   249    1
SMALL
USER_CHARGES


@<TRIPOS>ATOM
      1 CA          0.9579   -9.6825  -48.3812 C.3       0 UNK        -0.1800 
      2 C           1.6146  -10.7293  -47.4940 C.2       0 UNK         0.5000 
      3 O           1.7133  -10.5304  -46.2842 O.2       0 UNK        -0.5000 
      4 N           2.0485  -11.8502  -48.0848 N.am      1 UNK        -0.5000 
      5 CA          2.6971  -12.9847  -47.4124 C.3       1 UNK         0.1400 
      6 C6          3.1661  -14.0791  -48.4115 C.3       23 UNK        -0.0398 
      7 S7          1.9041  -14.5450  -49.6514 S.3       23 UNK        -0.2404 
      8 C8          1.3740  -16.1986  -49.1018 C.3       23 UNK        -0.0205 
      9 C9          2.1581  -17.3195  -49.7731 C.ar      23 UNK        -0.0193 
     10 C10         2.0782  -17.4876  -51.1592 C.ar      23 UNK        -0.1150 
     11 C11         2.7641  -18.5268  -51.7926 C.ar      23 UNK        -0.0193 
     12 C12         3.5257  -19.4123  -51.0259 C.ar      23 UNK        -0.1150 
     13 C13         3.6156  -19.2607  -49.6396 C.ar      23 UNK        -0.0193 
     14 C14         2.9333  -18.2075  -49.0187 C.ar      23 UNK        -0.1150 
     15 C15         4.4824  -20.2202  -48.8335 C.3       23 UNK        -0.0205 
     16 S16         3.6491  -21.8093  -48.5036 S.3       23 UNK        -0.2404 
     17 C17         2.6263  -21.3633  -47.0635 C.3       23 UNK        -0.0398 
     18 CA          1.2741  -22.1080  -46.9547 C.3       11 UNK         0.1400 
     19 N           0.6516  -21.8599  -45.6489 N.am      11 UNK        -0.5000 
     20 C          -0.4778  -22.4210  -45.1935 C.2       10 UNK         0.5000 
     21 O          -1.1032  -23.2905  -45.7977 O.2       10 UNK        -0.5000 
     22 CA         -1.0314  -21.8792  -43.8609 C.3       10 UNK         0.1400 
     23 CB         -0.3428  -22.5465  -42.6613 C.3       10 UNK        -0.1800 
     24 N          -0.9113  -20.4234  -43.7547 N.am      10 UNK        -0.5000 
     25 C          -1.5467  -19.5521  -44.5519 C.2       9 UNK         0.5000 
     26 O          -2.3570  -19.8865  -45.4143 O.2       9 UNK        -0.5000 
     27 CA         -1.1685  -18.0666  -44.4064 C.3       9 UNK         0.1400 
     28 CB         -1.9200  -17.4177  -43.2358 C.3       9 UNK        -0.1800 
     29 N           0.2764  -17.8831  -44.2490 N.am      9 UNK        -0.5000 
     30 C           1.1684  -18.1691  -45.2080 C.2       8 UNK         0.5000 
     31 O           0.8463  -18.5048  -46.3461 O.2       8 UNK        -0.5000 
     32 CA          2.6610  -18.1425  -44.8277 C.3       8 UNK         0.1400 
     33 CB          3.2907  -16.7730  -45.0862 C.3       8 UNK        -0.1800 
     34 N           2.8867  -18.5256  -43.4376 N.am      8 UNK        -0.5000 
     35 C           2.7953  -19.7812  -42.9816 C.2       7 UNK         0.5000 
     36 O           2.5637  -20.7510  -43.7024 O.2       7 UNK        -0.5000 
     37 CA          2.9331  -19.9700  -41.4598 C.3       7 UNK         0.1400 
     38 CB          4.4115  -20.0819  -41.0596 C.3       7 UNK        -0.1800 
     39 N           2.3073  -18.8782  -40.7101 N.am      7 UNK        -0.5000 
     40 C           0.9897  -18.6292  -40.7002 C.2       6 UNK         0.5000 
     41 O           0.1621  -19.3447  -41.2629 O.2       6 UNK        -0.5000 
     42 CA          0.5267  -17.3423  -39.9913 C.3       6 UNK         0.1400 
     43 CB          0.1831  -17.6308  -38.5228 C.3       6 UNK        -0.1800 
     44 N           1.5216  -16.2677  -40.0558 N.am      6 UNK        -0.5000 
     45 C           1.8718  -15.6190  -41.1747 C.2       5 UNK         0.5000 
     46 O           1.3785  -15.8441  -42.2812 O.2       5 UNK        -0.5000 
     47 CA          3.0239  -14.6173  -41.0377 C.3       5 UNK         0.1400 
     48 CB          4.3667  -15.2985  -41.3605 C.3       5 UNK        -0.1800 
     49 N           2.8281  -13.4655  -41.9161 N.am      5 UNK        -0.5000 
     50 C           3.3436  -12.2520  -41.6742 C.2       4 UNK         0.5000 
     51 O           4.0235  -11.9899  -40.6802 O.2       4 UNK        -0.5000 
     52 CA          3.0695  -11.1325  -42.6945 C.3       4 UNK         0.1400 
     53 CB          4.1614  -11.1053  -43.7757 C.3       4 UNK        -0.1800 
     54 N           1.7575  -11.2243  -43.3307 N.am      4 UNK        -0.5000 
     55 C           0.5924  -10.9451  -42.7296 C.2       3 UNK         0.5000 
     56 O           0.4958  -10.6093  -41.5485 O.2       3 UNK        -0.5000 
     57 CA         -0.6798  -11.0492  -43.5917 C.3       3 UNK         0.1400 
     58 CB         -1.0131   -9.6965  -44.2403 C.3       3 UNK        -0.1800 
     59 N          -0.5455  -12.0680  -44.6328 N.am      3 UNK        -0.5000 
     60 C          -0.7559  -13.3746  -44.4238 C.2       2 UNK         0.5000 
     61 O          -1.2005  -13.8248  -43.3688 O.2       2 UNK        -0.5000 
     62 CA         -0.4089  -14.3447  -45.5719 C.3       2 UNK         0.1400 
     63 CB         -1.6751  -14.7846  -46.3218 C.3       2 UNK        -0.1800 
     64 N           0.5517  -13.8062  -46.5377 N.am      2 UNK        -0.5000 
     65 C           1.8421  -13.5680  -46.2683 C.2       1 UNK         0.5000 
     66 O           2.3437  -13.7286  -45.1573 O.2       1 UNK        -0.5000 
     67 C           0.3217  -21.7617  -48.1218 C.2       11 UNK         0.5000 
     68 O           0.1795  -22.5621  -49.0462 O.2       11 UNK        -0.5000 
     69 N          -0.3478  -20.6041  -48.0311 N.am      12 UNK        -0.5000 
     70 CA         -1.3637  -20.1557  -48.9826 C.3       12 UNK         0.1400 
     71 CB         -1.7475  -18.7035  -48.6594 C.3       12 UNK        -0.1800 
     72 C          -2.6120  -21.0573  -48.9833 C.2       12 UNK         0.5000 
     73 O          -3.0824  -21.4612  -50.0491 O.2       12 UNK        -0.5000 
     74 N          -3.1133  -21.3683  -47.7797 N.am      13 UNK        -0.5000 
     75 CA         -4.3067  -22.1804  -47.5444 C.3       13 UNK         0.1400 
     76 CB         -4.6993  -22.0860  -46.0631 C.3       13 UNK        -0.1800 
     77 C          -4.1700  -23.6542  -47.9665 C.2       13 UNK         0.5000 
     78 O          -5.1929  -24.2905  -48.2144 O.2       13 UNK        -0.5000 
     79 N          -2.9329  -24.1674  -48.0494 N.am      14 UNK        -0.5000 
     80 CA         -2.5948  -25.5595  -48.3678 C.3       14 UNK         0.1400 
     81 CB         -1.0695  -25.7359  -48.3264 C.3       14 UNK        -0.1800 
     82 C          -3.1522  -26.0758  -49.7090 C.2       14 UNK         0.5000 
     83 O          -3.3899  -27.2783  -49.8390 O.2       14 UNK        -0.5000 
     84 N          -3.3936  -25.1714  -50.6680 N.am      15 UNK        -0.5000 
     85 CA         -4.0935  -25.4425  -51.9241 C.3       15 UNK         0.1400 
     86 CB         -3.7371  -24.3416  -52.9356 C.3       15 UNK        -0.1800 
     87 C          -5.6149  -25.5601  -51.6894 C.2       15 UNK         0.5000 
     88 O          -6.3779  -24.6952  -52.1264 O.2       15 UNK        -0.5000 
     89 N          -6.0157  -26.6028  -50.9495 N.am      16 UNK        -0.5000 
     90 CA         -7.3587  -26.9382  -50.4589 C.3       16 UNK         0.1400 
     91 CB         -8.3500  -27.1635  -51.6176 C.3       16 UNK        -0.1800 
     92 C          -7.9031  -25.9319  -49.4255 C.2       16 UNK         0.5000 
     93 O          -8.1617  -26.3126  -48.2830 O.2       16 UNK        -0.5000 
     94 N          -8.0530  -24.6738  -49.8470 N.am      17 UNK        -0.5000 
     95 CA         -8.4672  -23.5243  -49.0457 C.3       17 UNK         0.1400 
     96 CB         -9.9815  -23.5889  -48.7555 C.3       17 UNK        -0.1800 
     97 C          -8.0478  -22.2302  -49.7689 C.2       17 UNK         0.5000 
     98 O          -8.8386  -21.2898  -49.8558 O.2       17 UNK        -0.5000 
     99 N          -6.8252  -22.2337  -50.3260 N.am      18 UNK        -0.5000 
    100 CA        -6.2714  -21.2366  -51.2558 C.3       18 UNK         0.1400 
    101 CB        -6.0628  -19.8727  -50.5636 C.3       18 UNK        -0.1800 
    102 C         -7.1021  -21.1369  -52.5552 C.2       18 UNK         0.5000 
    103 O         -7.3734  -20.0405  -53.0479 O.2       18 UNK        -0.5000 
    104 N         -7.5214  -22.3018  -53.0646 N.am      19 UNK        -0.5000 
    105 CA        -8.4294  -22.4513  -54.2006 C.3       19 UNK         0.1400 
    106 CB        -9.2504  -23.7339  -53.9911 C.3       19 UNK        -0.1800 
    107 C         -7.6980  -22.5014  -55.5540 C.2       19 UNK         0.5000 
    108 O         -8.3504  -22.3907  -56.5933 O.2       19 UNK        -0.5000 
    109 N         -6.3734  -22.6795  -55.5294 N.am      20 UNK        -0.5000 
    110 CA        -5.5089  -22.7683  -56.6988 C.3       20 UNK         0.1400 
    111 CB        -5.3884  -24.2399  -57.1317 C.3       20 UNK        -0.1800 
    112 C         -4.1352  -22.1789  -56.3574 C.2       20 UNK         0.5000 
    113 O         -3.7882  -22.0742  -55.1760 O.2       20 UNK        -0.5000 
    114 N         -3.3790  -21.8264  -57.4072 N.am      21 UNK        -0.5000 
    115 CA        -2.0319  -21.2496  -57.3765 C.3       21 UNK         0.1400 
    116 CB        -1.0015  -22.3170  -56.9410 C.3       21 UNK        -0.1800 
    117 C         -1.9885  -19.9570  -56.5365 C.2       21 UNK         0.5000 
    118 O         -2.4443  -18.9137  -57.0080 O.2       21 UNK        -0.5000 
    119 N         -1.4707  -20.0639  -55.3121 N.am      22 UNK        -0.5000 
    120 CA        -1.4061  -19.0075  -54.2971 C.3       22 UNK         0.1400 
    121 C         -2.0230  -19.4355  -52.9344 C.2       22 UNK         0.5000 
    122 N         -2.6874  -20.5816  -52.8240 N.am      22 UNK        -0.7600 
    123 O         -1.9133  -18.7005  -51.9594 O.2       22 UNK        -0.5000 
    124 C124        0.0333  -18.4417  -54.1593 C.3       23 UNK        -0.0398 
    125 S125        1.3065  -19.7139  -53.8305 S.3       23 UNK        -0.2404 
    126 C126        2.7099  -18.6837  -53.3046 C.3       23 UNK        -0.0205 
    127 H127        1.5156   -8.7474  -48.3316 H         1 UNK         0.0600 
    128 H128       -0.0606   -9.4915  -48.0431 H         1 UNK         0.0600 
    129 H129        0.9176  -10.0011  -49.4230 H         1 UNK         0.0600 
    130 H130        1.9207  -11.9632  -49.0809 H         1 UNK         0.3000 
    131 H131        3.5953  -12.5829  -46.9383 H         1 UNK         0.0600 
    132 H132        3.5337  -14.9658  -47.8934 H         1 UNK         0.0800 
    133 H133        4.0252  -13.6998  -48.9662 H         1 UNK         0.0800 
    134 H134        0.3237  -16.3067  -49.3703 H         1 UNK         0.0800 
    135 H135        1.4187  -16.2746  -48.0147 H         1 UNK         0.0800 
    136 H136        1.4847  -16.7996  -51.7438 H         1 UNK         0.1150 
    137 H137        4.0571  -20.2198  -51.5100 H         1 UNK         0.1150 
    138 H138        3.0003  -18.0824  -47.9485 H         1 UNK         0.1150 
    139 H139        5.4014  -20.4201  -49.3866 H         1 UNK         0.0800 
    140 H140        4.7940  -19.7627  -47.8932 H         1 UNK         0.0800 
    141 H141        2.4540  -20.2912  -47.0838 H         1 UNK         0.0800 
    142 H142        3.2284  -21.5579  -46.1752 H         1 UNK         0.0800 
    143 H143        1.4752  -23.1801  -47.0060 H         1 UNK         0.0600 
    144 H144        1.1358  -21.2105  -45.0385 H         1 UNK         0.3000 
    145 H145       -2.0934  -22.1276  -43.8175 H         1 UNK         0.0600 
    146 H146       -0.7699  -22.2004  -41.7198 H         1 UNK         0.0600 
    147 H147        0.7264  -22.3382  -42.6383 H         1 UNK         0.0600 
    148 H148       -0.4648  -23.6297  -42.6962 H         1 UNK         0.0600 
    149 H149       -0.3133  -20.0628  -43.0173 H         1 UNK         0.3000 
    150 H150       -1.4689  -17.5567  -45.3234 H         1 UNK         0.0600 
    151 H151       -2.9918  -17.3914  -43.4346 H         1 UNK         0.0600 
    152 H152       -1.5928  -16.3920  -43.0736 H         1 UNK         0.0600 
    153 H153       -1.7782  -17.9636  -42.3043 H         1 UNK         0.0600 
    154 H154        0.6086  -17.5402  -43.3560 H         1 UNK         0.3000 
    155 H155        3.1777  -18.8596  -45.4665 H         1 UNK         0.0600 
    156 H156        3.0634  -16.4190  -46.0906 H         1 UNK         0.0600 
    157 H157        4.3757  -16.8129  -44.9906 H         1 UNK         0.0600 
    158 H158        2.9229  -16.0329  -44.3791 H         1 UNK         0.0600 
    159 H159        3.0361  -17.7766  -42.7788 H         1 UNK         0.3000 
    160 H160        2.4317  -20.9023  -41.1913 H         1 UNK         0.0600 
    161 H161        4.9622  -19.1677  -41.2847 H         1 UNK         0.0600 
    162 H162        4.8987  -20.8989  -41.5937 H         1 UNK         0.0600 
    163 H163        4.5168  -20.2838  -39.9935 H         1 UNK         0.0600 
    164 H164        2.9214  -18.2545  -40.2083 H         1 UNK         0.3000 
    165 H165       -0.3794  -16.9952  -40.4920 H         1 UNK         0.0600 
    166 H166       -0.2161  -16.7442  -38.0297 H         1 UNK         0.0600 
    167 H167       -0.5743  -18.4122  -38.4459 H         1 UNK         0.0600 
    168 H168        1.0567  -17.9640  -37.9611 H         1 UNK         0.0600 
    169 H169        1.9798  -16.0305  -39.1874 H         1 UNK         0.3000 
    170 H170        3.0418  -14.2750  -40.0006 H         1 UNK         0.0600 
    171 H171        4.4155  -15.6155  -42.4027 H         1 UNK         0.0600 
    172 H172        5.2048  -14.6254  -41.1794 H         1 UNK         0.0600 
    173 H173        4.5231  -16.1807  -40.7386 H         1 UNK         0.0600 
    174 H174        2.2814  -13.6296  -42.7545 H         1 UNK         0.3000 
    175 H175        3.1123  -10.1826  -42.1573 H         1 UNK         0.0600 
    176 H176        4.1959  -12.0369  -44.3402 H         1 UNK         0.0600 
    177 H177        3.9984  -10.2910  -44.4820 H         1 UNK         0.0600 
    178 H178        5.1459  -10.9578  -43.3302 H         1 UNK         0.0600 
    179 H179        1.7520  -11.4623  -44.3151 H         1 UNK         0.3000 
    180 H180       -1.5092  -11.3131  -42.9319 H         1 UNK         0.0600 
    181 H181       -1.9278   -9.7566  -44.8302 H         1 UNK         0.0600 
    182 H182       -0.2135   -9.3502  -44.8953 H         1 UNK         0.0600 
    183 H183       -1.1665   -8.9294  -43.4803 H         1 UNK         0.0600 
    184 H184       -0.1489  -11.7700  -45.5130 H         1 UNK         0.3000 
    185 H185        0.0397  -15.2276  -45.1133 H         1 UNK         0.0600 
    186 H186       -2.1463  -13.9484  -46.8397 H         1 UNK         0.0600 
    187 H187       -1.4478  -15.5544  -47.0600 H         1 UNK         0.0600 
    188 H188       -2.4121  -15.2020  -45.6346 H         1 UNK         0.0600 
    189 H189        0.2097  -13.6168  -47.4689 H         1 UNK         0.3000 
    190 H190       -0.1334  -19.9720  -47.2663 H         1 UNK         0.3000 
    191 H191       -0.9207  -20.1858  -49.9797 H         1 UNK         0.0600 
    192 H192       -0.8719  -18.0595  -48.6821 H         1 UNK         0.0600 
    193 H193       -2.2014  -18.6066  -47.6742 H         1 UNK         0.0600 
    194 H194       -2.4624  -18.3152  -49.3850 H         1 UNK         0.0600 
    195 H195       -2.6831  -20.9560  -46.9555 H         1 UNK         0.3000 
    196 H196       -5.1186  -21.7510  -48.1316 H         1 UNK         0.0600 
    197 H197       -4.8893  -21.0534  -45.7698 H         1 UNK         0.0600 
    198 H198       -3.9150  -22.4804  -45.4168 H         1 UNK         0.0600 
    199 H199       -5.6089  -22.6531  -45.8610 H         1 UNK         0.0600 
    200 H200       -2.1607  -23.5741  -47.7720 H         1 UNK         0.3000 
    201 H201       -3.0292  -26.1790  -47.5810 H         1 UNK         0.0600 
    202 H202       -0.6612  -25.4523  -47.3566 H         1 UNK         0.0600 
    203 H203       -0.5765  -25.1330  -49.0892 H         1 UNK         0.0600 
    204 H204       -0.7914  -26.7759  -48.5018 H         1 UNK         0.0600 
    205 H205       -3.1866  -24.2029  -50.4656 H         1 UNK         0.3000 
    206 H206       -3.7464  -26.3943  -52.3314 H         1 UNK         0.0600 
    207 H207       -4.0286  -23.3537  -52.5798 H         1 UNK         0.0600 
    208 H208       -2.6658  -24.3189  -53.1356 H         1 UNK         0.0600 
    209 H209       -4.2400  -24.5111  -53.8881 H         1 UNK         0.0600 
    210 H210       -5.2736  -27.1903  -50.5822 H         1 UNK         0.3000 
    211 H211       -7.2499  -27.8914  -49.9391 H         1 UNK         0.0600 
    212 H212       -8.5274  -26.2561  -52.1937 H         1 UNK         0.0600 
    213 H213       -9.3161  -27.5001  -51.2397 H         1 UNK         0.0600 
    214 H214       -7.9852  -27.9280  -52.3035 H         1 UNK         0.0600 
    215 H215       -7.7604  -24.4740  -50.7981 H         1 UNK         0.3000 
    216 H216       -7.9277  -23.5465  -48.0968 H         1 UNK         0.0600 
    217 H217      -10.3015  -22.7414  -48.1483 H         1 UNK         0.0600 
    218 H218      -10.2461  -24.4921  -48.2062 H         1 UNK         0.0600 
    219 H219      -10.5644  -23.5750  -49.6771 H         1 UNK         0.0600 
    220 H220       -6.2575  -23.0590  -50.1871 H         1 UNK         0.3000 
    221 H221       -5.2910  -21.6067  -51.5534 H         1 UNK         0.0600 
    222 H222       -7.0088  -19.3956  -50.3071 H         1 UNK         0.0600 
    223 H223       -5.4803  -19.9734  -49.6492 H         1 UNK         0.0600 
    224 H224       -5.5178  -19.1890  -51.2156 H         1 UNK         0.0600 
    225 H225       -7.1884  -23.1669  -52.6445 H         1 UNK         0.3000 
    226 H226       -9.1189  -21.6048  -54.2263 H         1 UNK         0.0600 
    227 H227       -9.7833  -23.7124  -53.0402 H         1 UNK         0.0600 
    228 H228       -9.9950  -23.8555  -54.7788 H         1 UNK         0.0600 
    229 H229       -8.6150  -24.6203  -54.0009 H         1 UNK         0.0600 
    230 H230       -5.8898  -22.6951  -54.6412 H         1 UNK         0.3000 
    231 H231       -5.9328  -22.1808  -57.5161 H         1 UNK         0.0600 
    232 H232       -4.7476  -24.3425  -58.0081 H         1 UNK         0.0600 
    233 H233       -6.3620  -24.6552  -57.3925 H         1 UNK         0.0600 
    234 H234       -4.9634  -24.8571  -56.3392 H         1 UNK         0.0600 
    235 H235       -3.7736  -21.9335  -58.3310 H         1 UNK         0.3000 
    236 H236       -1.7899  -20.9585  -58.3998 H         1 UNK         0.0600 
    237 H237       -1.2190  -22.7305  -55.9556 H         1 UNK         0.0600 
    238 H238       -0.9854  -23.1481  -57.6461 H         1 UNK         0.0600 
    239 H239        0.0067  -21.9013  -56.9128 H         1 UNK         0.0600 
    240 H240       -1.1403  -20.9678  -55.0068 H         1 UNK         0.3000 
    241 H241       -2.0417  -18.1799  -54.6164 H         1 UNK         0.0600 
    242 H242       -3.0093  -20.8630  -51.9044 H         1 UNK         0.3800 
    243 H243       -2.9008  -21.1502  -53.6369 H         1 UNK         0.3800 
    244 H244        0.0699  -17.6771  -53.3829 H         1 UNK         0.0800 
    245 H245        0.3062  -17.9328  -55.0845 H         1 UNK         0.0800 
    246 H246        2.6633  -17.7064  -53.7875 H         1 UNK         0.0800 
    247 H247        3.6317  -19.1478  -53.6585 H         1 UNK         0.0800 
@<TRIPOS>BOND
     1    1    2 1    
     2    1  127 1    
     3    1  128 1    
     4    1  129 1    
     5    2    3 2    
     6    2    4 am   BACKBONE|DICT|INTERRES
     7    4    5 1    
     8    4  130 1    
     9    5    6 1    
    10    5   65 1    
    11    5  131 1    
    12    6    7 1    
    13    6  132 1    
    14    6  133 1    
    15    7    8 1    
    16    8    9 1    
    17    8  134 1    
    18    8  135 1    
    19    9   10 ar   
    20    9   14 ar   
    21   10   11 ar   
    22   10  136 1    
    23   11   12 ar   
    24   11  126 1    
    25   12   13 ar   
    26   12  137 1    
    27   13   14 ar   
    28   13   15 1    
    29   14  138 1    
    30   15   16 1    
    31   15  139 1    
    32   15  140 1    
    33   16   17 1    
    34   17   18 1    
    35   17  141 1    
    36   17  142 1    
    37   18   19 1    
    38   18   67 1    
    39   18  143 1    
    40   19   20 am   BACKBONE|DICT|INTERRES
    41   19  144 1    
    42   20   21 2    
    43   20   22 1    
    44   22   23 1    
    45   22   24 1    
    46   22  145 1    
    47   23  146 1    
    48   23  147 1    
    49   23  148 1    
    50   24   25 am   BACKBONE|DICT|INTERRES
    51   24  149 1    
    52   25   26 2    
    53   25   27 1    
    54   27   28 1    
    55   27   29 1    
    56   27  150 1    
    57   28  151 1    
    58   28  152 1    
    59   28  153 1    
    60   29   30 am   BACKBONE|DICT|INTERRES
    61   29  154 1    
    62   30   31 2    
    63   30   32 1    
    64   32   33 1    
    65   32   34 1    
    66   32  155 1    
    67   33  156 1    
    68   33  157 1    
    69   33  158 1    
    70   34   35 am   BACKBONE|DICT|INTERRES
    71   34  159 1    
    72   35   36 2    
    73   35   37 1    
    74   37   38 1    
    75   37   39 1    
    76   37  160 1    
    77   38  161 1    
    78   38  162 1    
    79   38  163 1    
    80   39   40 am   BACKBONE|DICT|INTERRES
    81   39  164 1    
    82   40   41 2    
    83   40   42 1    
    84   42   43 1    
    85   42   44 1    
    86   42  165 1    
    87   43  166 1    
    88   43  167 1    
    89   43  168 1    
    90   44   45 am   BACKBONE|DICT|INTERRES
    91   44  169 1    
    92   45   46 2    
    93   45   47 1    
    94   47   48 1    
    95   47   49 1    
    96   47  170 1    
    97   48  171 1    
    98   48  172 1    
    99   48  173 1    
   100   49   50 am   BACKBONE|DICT|INTERRES
   101   49  174 1    
   102   50   51 2    
   103   50   52 1    
   104   52   53 1    
   105   52   54 1    
   106   52  175 1    
   107   53  176 1    
   108   53  177 1    
   109   53  178 1    
   110   54   55 am   BACKBONE|DICT|INTERRES
   111   54  179 1    
   112   55   56 2    
   113   55   57 1    
   114   57   58 1    
   115   57   59 1    
   116   57  180 1    
   117   58  181 1    
   118   58  182 1    
   119   58  183 1    
   120   59   60 am   BACKBONE|DICT|INTERRES
   121   59  184 1    
   122   60   61 2    
   123   60   62 1    
   124   62   63 1    
   125   62   64 1    
   126   62  185 1    
   127   63  186 1    
   128   63  187 1    
   129   63  188 1    
   130   64   65 am   BACKBONE|DICT|INTERRES
   131   64  189 1    
   132   65   66 2    
   133   67   68 2    
   134   67   69 am   BACKBONE|DICT|INTERRES
   135   69   70 1    
   136   69  190 1    
   137   70   71 1    
   138   70   72 1    
   139   70  191 1    
   140   71  192 1    
   141   71  193 1    
   142   71  194 1    
   143   72   73 2    
   144   72   74 am   BACKBONE|DICT|INTERRES
   145   74   75 1    
   146   74  195 1    
   147   75   76 1    
   148   75   77 1    
   149   75  196 1    
   150   76  197 1    
   151   76  198 1    
   152   76  199 1    
   153   77   78 2    
   154   77   79 am   BACKBONE|DICT|INTERRES
   155   79   80 1    
   156   79  200 1    
   157   80   81 1    
   158   80   82 1    
   159   80  201 1    
   160   81  202 1    
   161   81  203 1    
   162   81  204 1    
   163   82   83 2    
   164   82   84 am   BACKBONE|DICT|INTERRES
   165   84   85 1    
   166   84  205 1    
   167   85   86 1    
   168   85   87 1    
   169   85  206 1    
   170   86  207 1    
   171   86  208 1    
   172   86  209 1    
   173   87   88 2    
   174   87   89 am   BACKBONE|DICT|INTERRES
   175   89   90 1    
   176   89  210 1    
   177   90   91 1    
   178   90   92 1    
   179   90  211 1    
   180   91  212 1    
   181   91  213 1    
   182   91  214 1    
   183   92   93 2    
   184   92   94 am   BACKBONE|DICT|INTERRES
   185   94   95 1    
   186   94  215 1    
   187   95   96 1    
   188   95   97 1    
   189   95  216 1    
   190   96  217 1    
   191   96  218 1    
   192   96  219 1    
   193   97   98 2    
   194   97   99 am   BACKBONE|DICT|INTERRES
   195   99  100 1    
   196   99  220 1    
   197  100  101 1    
   198  100  102 1    
   199  100  221 1    
   200  101  222 1    
   201  101  223 1    
   202  101  224 1    
   203  102  103 2    
   204  102  104 am   BACKBONE|DICT|INTERRES
   205  104  105 1    
   206  104  225 1    
   207  105  106 1    
   208  105  107 1    
   209  105  226 1    
   210  106  227 1    
   211  106  228 1    
   212  106  229 1    
   213  107  108 2    
   214  107  109 am   BACKBONE|DICT|INTERRES
   215  109  110 1    
   216  109  230 1    
   217  110  111 1    
   218  110  112 1    
   219  110  231 1    
   220  111  232 1    
   221  111  233 1    
   222  111  234 1    
   223  112  113 2    
   224  112  114 am   BACKBONE|DICT|INTERRES
   225  114  115 1    
   226  114  235 1    
   227  115  116 1    
   228  115  117 1    
   229  115  236 1    
   230  116  237 1    
   231  116  238 1    
   232  116  239 1    
   233  117  118 2    
   234  117  119 am   BACKBONE|DICT|INTERRES
   235  119  120 1    
   236  119  240 1    
   237  120  121 1    
   238  120  124 1    
   239  120  241 1    
   240  121  122 am   BACKBONE|DICT|INTERRES
   241  121  123 2    
   242  122  242 1    
   243  122  243 1    
   244  124  125 1    
   245  124  244 1    
   246  124  245 1    
   247  125  126 1    
   248  126  246 1    
   249  126  247 1    
@<TRIPOS>SUBSTRUCTURE
     1 UNK         1 GROUP             0       ****    0 ROOT    
