@<TRIPOS>MOLECULE
3R540
247   249    1
SMALL
USER_CHARGES


@<TRIPOS>ATOM
      1 CA         -0.5645  -18.5168  -44.8245 C.3       0 UNK        -0.1800 
      2 C          -1.1398  -17.4242  -45.7102 C.2       0 UNK         0.5000 
      3 O          -2.3581  -17.3260  -45.8523 O.2       0 UNK        -0.5000 
      4 N          -0.2656  -16.6047  -46.3019 N.am      1 UNK        -0.5000 
      5 CA         -0.6207  -15.4249  -47.0894 C.3       1 UNK         0.1400 
      6 C6          0.5399  -14.9338  -47.9914 C.3       23 UNK        -0.0398 
      7 S7          1.2444  -16.2374  -49.0574 S.3       23 UNK        -0.2404 
      8 C8         -0.0984  -16.5105  -50.2514 C.3       23 UNK        -0.0205 
      9 C9          0.2257  -17.6749  -51.1716 C.ar      23 UNK        -0.0193 
     10 C10         0.8450  -17.4476  -52.4027 C.ar      23 UNK        -0.1150 
     11 C11         1.1295  -18.5070  -53.2692 C.ar      23 UNK        -0.0193 
     12 C12         0.7923  -19.8106  -52.8766 C.ar      23 UNK        -0.1150 
     13 C13         0.1858  -20.0567  -51.6403 C.ar      23 UNK        -0.0193 
     14 C14        -0.1047  -18.9798  -50.7971 C.ar      23 UNK        -0.1150 
     15 C15        -0.1742  -21.4845  -51.2422 C.3       23 UNK        -0.0205 
     16 S16         0.6543  -22.0198  -49.7055 S.3       23 UNK        -0.2404 
     17 C17        -0.5749  -21.5701  -48.4336 C.3       23 UNK        -0.0398 
     18 CA         -0.8531  -22.7373  -47.4569 C.3       11 UNK         0.1400 
     19 N           0.2959  -23.0478  -46.6032 N.am      11 UNK        -0.5000 
     20 C           0.4376  -24.1878  -45.9113 C.2       10 UNK         0.5000 
     21 O          -0.3940  -25.0940  -45.9286 O.2       10 UNK        -0.5000 
     22 CA          1.6824  -24.3327  -45.0128 C.3       10 UNK         0.1400 
     23 CB          2.8084  -25.0452  -45.7756 C.3       10 UNK        -0.1800 
     24 N           2.1870  -23.0621  -44.4913 N.am      10 UNK        -0.5000 
     25 C           1.4926  -22.2082  -43.7263 C.2       9 UNK         0.5000 
     26 O           0.3512  -22.4332  -43.3196 O.2       9 UNK        -0.5000 
     27 CA          2.1589  -20.8475  -43.4288 C.3       9 UNK         0.1400 
     28 CB          2.9195  -20.9022  -42.0964 C.3       9 UNK        -0.1800 
     29 N           3.0633  -20.3555  -44.4814 N.am      9 UNK        -0.5000 
     30 C           2.7475  -20.2102  -45.7777 C.2       8 UNK         0.5000 
     31 O           1.6559  -20.5325  -46.2450 O.2       8 UNK        -0.5000 
     32 CA          3.8351  -19.6131  -46.6952 C.3       8 UNK         0.1400 
     33 CB          3.3568  -19.4679  -48.1551 C.3       8 UNK        -0.1800 
     34 N           4.3749  -18.3351  -46.2135 N.am      8 UNK        -0.5000 
     35 C           3.6791  -17.2279  -45.9186 C.2       7 UNK         0.5000 
     36 O           2.4483  -17.1548  -45.9162 O.2       7 UNK        -0.5000 
     37 CA          4.4991  -15.9736  -45.5948 C.3       7 UNK         0.1400 
     38 CB          5.0250  -15.3128  -46.8818 C.3       7 UNK        -0.1800 
     39 N           3.6298  -15.0473  -44.8839 N.am      7 UNK        -0.5000 
     40 C           4.0138  -14.0668  -44.0642 C.2       6 UNK         0.5000 
     41 O           5.1908  -13.7733  -43.8497 O.2       6 UNK        -0.5000 
     42 CA          2.8924  -13.2845  -43.3550 C.3       6 UNK         0.1400 
     43 CB          2.5805  -11.9844  -44.1120 C.3       6 UNK        -0.1800 
     44 N           1.6475  -14.0391  -43.1925 N.am      6 UNK        -0.5000 
     45 C           1.4790  -15.1055  -42.3998 C.2       5 UNK         0.5000 
     46 O           2.3912  -15.6473  -41.7728 O.2       5 UNK        -0.5000 
     47 CA          0.0200  -15.5838  -42.2445 C.3       5 UNK         0.1400 
     48 CB         -0.1195  -16.8603  -41.3898 C.3       5 UNK        -0.1800 
     49 N          -0.8375  -14.5062  -41.7322 N.am      5 UNK        -0.5000 
     50 C          -0.6726  -13.8120  -40.5914 C.2       4 UNK         0.5000 
     51 O           0.1719  -14.0846  -39.7375 O.2       4 UNK        -0.5000 
     52 CA         -1.5696  -12.5776  -40.3630 C.3       4 UNK         0.1400 
     53 CB         -0.7595  -11.2897  -40.5853 C.3       4 UNK        -0.1800 
     54 N          -2.7438  -12.5372  -41.2313 N.am      4 UNK        -0.5000 
     55 C          -3.8562  -13.2623  -41.0577 C.2       3 UNK         0.5000 
     56 O          -4.0467  -14.0047  -40.0939 O.2       3 UNK        -0.5000 
     57 CA         -4.9289  -13.1520  -42.1618 C.3       3 UNK         0.1400 
     58 CB         -6.0241  -12.1567  -41.7491 C.3       3 UNK        -0.1800 
     59 N          -4.3975  -12.7609  -43.4748 N.am      3 UNK        -0.5000 
     60 C          -3.5140  -13.4760  -44.1848 C.2       2 UNK         0.5000 
     61 O          -3.0411  -14.5413  -43.7840 O.2       2 UNK        -0.5000 
     62 CA         -3.0940  -12.8807  -45.5461 C.3       2 UNK         0.1400 
     63 CB         -2.3385  -11.5453  -45.3722 C.3       2 UNK        -0.1800 
     64 N          -2.3289  -13.8239  -46.3727 N.am      2 UNK        -0.5000 
     65 C          -1.0980  -14.3052  -46.1450 C.2       1 UNK         0.5000 
     66 O          -0.3508  -13.9185  -45.2418 O.2       1 UNK        -0.5000 
     67 C          -2.1362  -22.4777  -46.6433 C.2       11 UNK         0.5000 
     68 O          -3.2222  -22.7037  -47.1756 O.2       11 UNK        -0.5000 
     69 N          -2.0154  -22.0434  -45.3805 N.am      12 UNK        -0.5000 
     70 CA         -3.1539  -21.9313  -44.4668 C.3       12 UNK         0.1400 
     71 CB         -2.8595  -20.9074  -43.3614 C.3       12 UNK        -0.1800 
     72 C          -3.5251  -23.2977  -43.8692 C.2       12 UNK         0.5000 
     73 O          -4.7115  -23.6010  -43.7485 O.2       12 UNK        -0.5000 
     74 N          -2.5084  -24.1074  -43.5381 N.am      13 UNK        -0.5000 
     75 CA         -2.6641  -25.4560  -42.9885 C.3       13 UNK         0.1400 
     76 CB         -1.3001  -25.9715  -42.5044 C.3       13 UNK        -0.1800 
     77 C          -3.2995  -26.4391  -43.9901 C.2       13 UNK         0.5000 
     78 O          -4.2067  -27.1852  -43.6205 O.2       13 UNK        -0.5000 
     79 N          -2.8290  -26.4025  -45.2439 N.am      14 UNK        -0.5000 
     80 CA         -3.3387  -27.2167  -46.3499 C.3       14 UNK         0.1400 
     81 CB         -2.2322  -27.3493  -47.4094 C.3       14 UNK        -0.1800 
     82 C          -4.6164  -26.6413  -46.9928 C.2       14 UNK         0.5000 
     83 O          -5.2536  -27.3386  -47.7822 O.2       14 UNK        -0.5000 
     84 N          -4.9380  -25.3753  -46.6833 N.am      15 UNK        -0.5000 
     85 CA         -6.0062  -24.5473  -47.2620 C.3       15 UNK         0.1400 
     86 CB         -7.3993  -25.1493  -46.9878 C.3       15 UNK        -0.1800 
     87 C          -5.7854  -24.2067  -48.7540 C.2       15 UNK         0.5000 
     88 O          -6.7186  -23.7813  -49.4366 O.2       15 UNK        -0.5000 
     89 N          -4.5392  -24.3546  -49.2248 N.am      16 UNK        -0.5000 
     90 CA         -4.0837  -24.0239  -50.5738 C.3       16 UNK         0.1400 
     91 CB         -2.6881  -24.6265  -50.7936 C.3       16 UNK        -0.1800 
     92 C          -4.0660  -22.5110  -50.8579 C.2       16 UNK         0.5000 
     93 O          -4.0744  -22.1260  -52.0255 O.2       16 UNK        -0.5000 
     94 N          -4.0705  -21.6768  -49.8052 N.am      17 UNK        -0.5000 
     95 CA         -4.1292  -20.2117  -49.8775 C.3       17 UNK         0.1400 
     96 CB         -4.0695  -19.6282  -48.4564 C.3       17 UNK        -0.1800 
     97 C          -5.3654  -19.6716  -50.6262 C.2       17 UNK         0.5000 
     98 O          -5.2921  -18.5992  -51.2250 O.2       17 UNK        -0.5000 
     99 N          -6.4618  -20.4430  -50.6211 N.am      18 UNK        -0.5000 
    100 CA        -7.6854  -20.1682  -51.3765 C.3       18 UNK         0.1400 
    101 CB        -8.8034  -21.0759  -50.8405 C.3       18 UNK        -0.1800 
    102 C         -7.5286  -20.3508  -52.9023 C.2       18 UNK         0.5000 
    103 O         -8.3718  -19.8582  -53.6527 O.2       18 UNK        -0.5000 
    104 N         -6.4711  -21.0506  -53.3342 N.am      19 UNK        -0.5000 
    105 CA        -6.1510  -21.3533  -54.7291 C.3       19 UNK         0.1400 
    106 CB        -6.2513  -22.8763  -54.9300 C.3       19 UNK        -0.1800 
    107 C         -4.7591  -20.8129  -55.1171 C.2       19 UNK         0.5000 
    108 O         -4.1707  -21.2913  -56.0888 O.2       19 UNK        -0.5000 
    109 N         -4.2452  -19.8393  -54.3514 N.am      20 UNK        -0.5000 
    110 CA        -2.9481  -19.1971  -54.5592 C.3       20 UNK         0.1400 
    111 CB        -2.6715  -18.2510  -53.3828 C.3       20 UNK        -0.1800 
    112 C         -2.8796  -18.4236  -55.8892 C.2       20 UNK         0.5000 
    113 O         -3.8362  -17.7289  -56.2422 O.2       20 UNK        -0.5000 
    114 N         -1.7384  -18.5309  -56.5774 N.am      21 UNK        -0.5000 
    115 CA        -1.4376  -17.8209  -57.8188 C.3       21 UNK         0.1400 
    116 CB        -2.2027  -18.4287  -59.0112 C.3       21 UNK        -0.1800 
    117 C          0.0767  -17.8329  -58.0561 C.2       21 UNK         0.5000 
    118 O          0.6844  -16.7674  -58.1584 O.2       21 UNK        -0.5000 
    119 N          0.6566  -19.0418  -58.0988 N.am      22 UNK        -0.5000 
    120 CA         2.0975  -19.3118  -58.2839 C.3       22 UNK         0.1400 
    121 C          2.6738  -18.8873  -59.6721 C.2       22 UNK         0.5000 
    122 N          1.8515  -18.6851  -60.6946 N.am      22 UNK        -0.7600 
    123 O          3.8847  -18.7699  -59.8416 O.2       22 UNK        -0.5000 
    124 C124        2.9703  -18.8157  -57.0945 C.3       23 UNK        -0.0398 
    125 S125        2.5003  -19.5935  -55.5111 S.3       23 UNK        -0.2404 
    126 C126        1.7601  -18.1800  -54.6243 C.3       23 UNK        -0.0205 
    127 H127       -0.7627  -19.4964  -45.2570 H         1 UNK         0.0600 
    128 H128       -1.0126  -18.4719  -43.8330 H         1 UNK         0.0600 
    129 H129        0.5119  -18.4072  -44.7057 H         1 UNK         0.0600 
    130 H130        0.7332  -16.7710  -46.1820 H         1 UNK         0.3000 
    131 H131       -1.4545  -15.6993  -47.7373 H         1 UNK         0.0600 
    132 H132        0.2107  -14.1075  -48.6236 H         1 UNK         0.0800 
    133 H133        1.3560  -14.5434  -47.3800 H         1 UNK         0.0800 
    134 H134       -0.2636  -15.6006  -50.8303 H         1 UNK         0.0800 
    135 H135       -1.0307  -16.7199  -49.7268 H         1 UNK         0.0800 
    136 H136        1.0947  -16.4365  -52.6929 H         1 UNK         0.1150 
    137 H137        0.9915  -20.6454  -53.5317 H         1 UNK         0.1150 
    138 H138       -0.5824  -19.1524  -49.8444 H         1 UNK         0.1150 
    139 H139       -1.2563  -21.5772  -51.1582 H         1 UNK         0.0800 
    140 H140        0.1184  -22.1786  -52.0313 H         1 UNK         0.0800 
    141 H141       -1.4932  -21.2765  -48.9383 H         1 UNK         0.0800 
    142 H142       -0.2353  -20.6808  -47.9028 H         1 UNK         0.0800 
    143 H143       -1.0566  -23.6272  -48.0550 H         1 UNK         0.0600 
    144 H144        0.9866  -22.3082  -46.5067 H         1 UNK         0.3000 
    145 H145        1.4020  -24.9516  -44.1587 H         1 UNK         0.0600 
    146 H146        3.6663  -25.2332  -45.1298 H         1 UNK         0.0600 
    147 H147        2.4720  -26.0108  -46.1560 H         1 UNK         0.0600 
    148 H148        3.1505  -24.4575  -46.6286 H         1 UNK         0.0600 
    149 H149        3.1111  -22.7866  -44.7885 H         1 UNK         0.3000 
    150 H150        1.3548  -20.1185  -43.3231 H         1 UNK         0.0600 
    151 H151        3.7700  -21.5833  -42.1464 H         1 UNK         0.0600 
    152 H152        2.2706  -21.2450  -41.2891 H         1 UNK         0.0600 
    153 H153        3.2922  -19.9173  -41.8141 H         1 UNK         0.0600 
    154 H154        3.9797  -20.0584  -44.1793 H         1 UNK         0.3000 
    155 H155        4.6637  -20.3225  -46.6910 H         1 UNK         0.0600 
    156 H156        2.4803  -18.8239  -48.2300 H         1 UNK         0.0600 
    157 H157        3.0830  -20.4364  -48.5747 H         1 UNK         0.0600 
    158 H158        4.1363  -19.0477  -48.7902 H         1 UNK         0.0600 
    159 H159        5.3830  -18.2876  -46.1637 H         1 UNK         0.3000 
    160 H160        5.3338  -16.2570  -44.9503 H         1 UNK         0.0600 
    161 H161        4.2079  -15.0253  -47.5452 H         1 UNK         0.0600 
    162 H162        5.6740  -15.9918  -47.4357 H         1 UNK         0.0600 
    163 H163        5.6068  -14.4181  -46.6603 H         1 UNK         0.0600 
    164 H164        2.6439  -15.2589  -44.9725 H         1 UNK         0.3000 
    165 H165        3.2562  -13.0228  -42.3594 H         1 UNK         0.0600 
    166 H166        1.8509  -11.3796  -43.5729 H         1 UNK         0.0600 
    167 H167        3.4781  -11.3772  -44.2359 H         1 UNK         0.0600 
    168 H168        2.1789  -12.1866  -45.1060 H         1 UNK         0.0600 
    169 H169        0.8524  -13.7238  -43.7427 H         1 UNK         0.3000 
    170 H170       -0.3420  -15.8188  -43.2457 H         1 UNK         0.0600 
    171 H171        0.4648  -17.6775  -41.8146 H         1 UNK         0.0600 
    172 H172        0.2278  -16.7086  -40.3675 H         1 UNK         0.0600 
    173 H173       -1.1572  -17.1908  -41.3459 H         1 UNK         0.0600 
    174 H174       -1.5862  -14.2313  -42.3590 H         1 UNK         0.3000 
    175 H175       -1.9020  -12.5983  -39.3229 H         1 UNK         0.0600 
    176 H176        0.1097  -11.2549  -39.9270 H         1 UNK         0.0600 
    177 H177       -0.3961  -11.2150  -41.6113 H         1 UNK         0.0600 
    178 H178       -1.3593  -10.4040  -40.3748 H         1 UNK         0.0600 
    179 H179       -2.6831  -11.9483  -42.0484 H         1 UNK         0.3000 
    180 H180       -5.3856  -14.1382  -42.2686 H         1 UNK         0.0600 
    181 H181       -5.6313  -11.1437  -41.6523 H         1 UNK         0.0600 
    182 H182       -6.4613  -12.4323  -40.7884 H         1 UNK         0.0600 
    183 H183       -6.8343  -12.1357  -42.4782 H         1 UNK         0.0600 
    184 H184       -4.7491  -11.8954  -43.8586 H         1 UNK         0.3000 
    185 H185       -4.0121  -12.6784  -46.0997 H         1 UNK         0.0600 
    186 H186       -2.9865  -10.7794  -44.9453 H         1 UNK         0.0600 
    187 H187       -1.4771  -11.6424  -44.7106 H         1 UNK         0.0600 
    188 H188       -1.9830  -11.1658  -46.3301 H         1 UNK         0.0600 
    189 H189       -2.8607  -14.2451  -47.1212 H         1 UNK         0.3000 
    190 H190       -1.0928  -21.9141  -44.9856 H         1 UNK         0.3000 
    191 H191       -4.0241  -21.5698  -45.0199 H         1 UNK         0.0600 
    192 H192       -2.8299  -19.8990  -43.7705 H         1 UNK         0.0600 
    193 H193       -3.6416  -20.9156  -42.6009 H         1 UNK         0.0600 
    194 H194       -1.9121  -21.1030  -42.8594 H         1 UNK         0.0600 
    195 H195       -1.5626  -23.7679  -43.6525 H         1 UNK         0.3000 
    196 H196       -3.3261  -25.3883  -42.1226 H         1 UNK         0.0600 
    197 H197       -1.4007  -26.9471  -42.0273 H         1 UNK         0.0600 
    198 H198       -0.8584  -25.2949  -41.7724 H         1 UNK         0.0600 
    199 H199       -0.5943  -26.0824  -43.3275 H         1 UNK         0.0600 
    200 H200       -2.0313  -25.8053  -45.4537 H         1 UNK         0.3000 
    201 H201       -3.5762  -28.2153  -45.9772 H         1 UNK         0.0600 
    202 H202       -2.5477  -27.9964  -48.2289 H         1 UNK         0.0600 
    203 H203       -1.3279  -27.7838  -46.9828 H         1 UNK         0.0600 
    204 H204       -1.9671  -26.3821  -47.8386 H         1 UNK         0.0600 
    205 H205       -4.3454  -24.9006  -46.0168 H         1 UNK         0.3000 
    206 H206       -5.9552  -23.5944  -46.7331 H         1 UNK         0.0600 
    207 H207       -7.5274  -25.3793  -45.9300 H         1 UNK         0.0600 
    208 H208       -8.1881  -24.4487  -47.2640 H         1 UNK         0.0600 
    209 H209       -7.5667  -26.0652  -47.5548 H         1 UNK         0.0600 
    210 H210       -3.8322  -24.6456  -48.5667 H         1 UNK         0.3000 
    211 H211       -4.7733  -24.4830  -51.2852 H         1 UNK         0.0600 
    212 H212       -1.9473  -24.1854  -50.1276 H         1 UNK         0.0600 
    213 H213       -2.3475  -24.4565  -51.8159 H         1 UNK         0.0600 
    214 H214       -2.6913  -25.7041  -50.6281 H         1 UNK         0.0600 
    215 H215       -4.0313  -22.0831  -48.8753 H         1 UNK         0.3000 
    216 H216       -3.2460  -19.8743  -50.4224 H         1 UNK         0.0600 
    217 H217       -4.1397  -18.5396  -48.4754 H         1 UNK         0.0600 
    218 H218       -3.1335  -19.8749  -47.9574 H         1 UNK         0.0600 
    219 H219       -4.8860  -19.9992  -47.8357 H         1 UNK         0.0600 
    220 H220       -6.4325  -21.3191  -50.1171 H         1 UNK         0.3000 
    221 H221       -7.9719  -19.1296  -51.1988 H         1 UNK         0.0600 
    222 H222       -8.5660  -22.1311  -50.9827 H         1 UNK         0.0600 
    223 H223       -8.9704  -20.9106  -49.7760 H         1 UNK         0.0600 
    224 H224       -9.7472  -20.8795  -51.3510 H         1 UNK         0.0600 
    225 H225       -5.7937  -21.3936  -52.6597 H         1 UNK         0.3000 
    226 H226       -6.8658  -20.8727  -55.3996 H         1 UNK         0.0600 
    227 H227       -6.0807  -23.1506  -55.9717 H         1 UNK         0.0600 
    228 H228       -5.5169  -23.4078  -54.3232 H         1 UNK         0.0600 
    229 H229       -7.2404  -23.2447  -54.6577 H         1 UNK         0.0600 
    230 H230       -4.8016  -19.4896  -53.5846 H         1 UNK         0.3000 
    231 H231       -2.1840  -19.9775  -54.5624 H         1 UNK         0.0600 
    232 H232       -3.4666  -17.5142  -53.2619 H         1 UNK         0.0600 
    233 H233       -1.7411  -17.7036  -53.5307 H         1 UNK         0.0600 
    234 H234       -2.5797  -18.8027  -52.4484 H         1 UNK         0.0600 
    235 H235       -0.9840  -19.0863  -56.1979 H         1 UNK         0.3000 
    236 H236       -1.7421  -16.7779  -57.7062 H         1 UNK         0.0600 
    237 H237       -3.2792  -18.3011  -58.8982 H         1 UNK         0.0600 
    238 H238       -1.9190  -17.9434  -59.9459 H         1 UNK         0.0600 
    239 H239       -2.0061  -19.4958  -59.1191 H         1 UNK         0.0600 
    240 H240        0.0710  -19.8620  -58.0369 H         1 UNK         0.3000 
    241 H241        2.1797  -20.3992  -58.2964 H         1 UNK         0.0600 
    242 H242        2.2304  -18.4220  -61.5910 H         1 UNK         0.3800 
    243 H243        0.8562  -18.7918  -60.5832 H         1 UNK         0.3800 
    244 H244        4.0196  -19.0636  -57.2616 H         1 UNK         0.0800 
    245 H245        2.9314  -17.7290  -57.0102 H         1 UNK         0.0800 
    246 H246        2.5361  -17.4257  -54.4845 H         1 UNK         0.0800 
    247 H247        0.9949  -17.7247  -55.2526 H         1 UNK         0.0800 
@<TRIPOS>BOND
     1    1    2 1    
     2    1  127 1    
     3    1  128 1    
     4    1  129 1    
     5    2    3 2    
     6    2    4 am   BACKBONE|DICT|INTERRES
     7    4    5 1    
     8    4  130 1    
     9    5    6 1    
    10    5   65 1    
    11    5  131 1    
    12    6    7 1    
    13    6  132 1    
    14    6  133 1    
    15    7    8 1    
    16    8    9 1    
    17    8  134 1    
    18    8  135 1    
    19    9   10 ar   
    20    9   14 ar   
    21   10   11 ar   
    22   10  136 1    
    23   11   12 ar   
    24   11  126 1    
    25   12   13 ar   
    26   12  137 1    
    27   13   14 ar   
    28   13   15 1    
    29   14  138 1    
    30   15   16 1    
    31   15  139 1    
    32   15  140 1    
    33   16   17 1    
    34   17   18 1    
    35   17  141 1    
    36   17  142 1    
    37   18   19 1    
    38   18   67 1    
    39   18  143 1    
    40   19   20 am   BACKBONE|DICT|INTERRES
    41   19  144 1    
    42   20   21 2    
    43   20   22 1    
    44   22   23 1    
    45   22   24 1    
    46   22  145 1    
    47   23  146 1    
    48   23  147 1    
    49   23  148 1    
    50   24   25 am   BACKBONE|DICT|INTERRES
    51   24  149 1    
    52   25   26 2    
    53   25   27 1    
    54   27   28 1    
    55   27   29 1    
    56   27  150 1    
    57   28  151 1    
    58   28  152 1    
    59   28  153 1    
    60   29   30 am   BACKBONE|DICT|INTERRES
    61   29  154 1    
    62   30   31 2    
    63   30   32 1    
    64   32   33 1    
    65   32   34 1    
    66   32  155 1    
    67   33  156 1    
    68   33  157 1    
    69   33  158 1    
    70   34   35 am   BACKBONE|DICT|INTERRES
    71   34  159 1    
    72   35   36 2    
    73   35   37 1    
    74   37   38 1    
    75   37   39 1    
    76   37  160 1    
    77   38  161 1    
    78   38  162 1    
    79   38  163 1    
    80   39   40 am   BACKBONE|DICT|INTERRES
    81   39  164 1    
    82   40   41 2    
    83   40   42 1    
    84   42   43 1    
    85   42   44 1    
    86   42  165 1    
    87   43  166 1    
    88   43  167 1    
    89   43  168 1    
    90   44   45 am   BACKBONE|DICT|INTERRES
    91   44  169 1    
    92   45   46 2    
    93   45   47 1    
    94   47   48 1    
    95   47   49 1    
    96   47  170 1    
    97   48  171 1    
    98   48  172 1    
    99   48  173 1    
   100   49   50 am   BACKBONE|DICT|INTERRES
   101   49  174 1    
   102   50   51 2    
   103   50   52 1    
   104   52   53 1    
   105   52   54 1    
   106   52  175 1    
   107   53  176 1    
   108   53  177 1    
   109   53  178 1    
   110   54   55 am   BACKBONE|DICT|INTERRES
   111   54  179 1    
   112   55   56 2    
   113   55   57 1    
   114   57   58 1    
   115   57   59 1    
   116   57  180 1    
   117   58  181 1    
   118   58  182 1    
   119   58  183 1    
   120   59   60 am   BACKBONE|DICT|INTERRES
   121   59  184 1    
   122   60   61 2    
   123   60   62 1    
   124   62   63 1    
   125   62   64 1    
   126   62  185 1    
   127   63  186 1    
   128   63  187 1    
   129   63  188 1    
   130   64   65 am   BACKBONE|DICT|INTERRES
   131   64  189 1    
   132   65   66 2    
   133   67   68 2    
   134   67   69 am   BACKBONE|DICT|INTERRES
   135   69   70 1    
   136   69  190 1    
   137   70   71 1    
   138   70   72 1    
   139   70  191 1    
   140   71  192 1    
   141   71  193 1    
   142   71  194 1    
   143   72   73 2    
   144   72   74 am   BACKBONE|DICT|INTERRES
   145   74   75 1    
   146   74  195 1    
   147   75   76 1    
   148   75   77 1    
   149   75  196 1    
   150   76  197 1    
   151   76  198 1    
   152   76  199 1    
   153   77   78 2    
   154   77   79 am   BACKBONE|DICT|INTERRES
   155   79   80 1    
   156   79  200 1    
   157   80   81 1    
   158   80   82 1    
   159   80  201 1    
   160   81  202 1    
   161   81  203 1    
   162   81  204 1    
   163   82   83 2    
   164   82   84 am   BACKBONE|DICT|INTERRES
   165   84   85 1    
   166   84  205 1    
   167   85   86 1    
   168   85   87 1    
   169   85  206 1    
   170   86  207 1    
   171   86  208 1    
   172   86  209 1    
   173   87   88 2    
   174   87   89 am   BACKBONE|DICT|INTERRES
   175   89   90 1    
   176   89  210 1    
   177   90   91 1    
   178   90   92 1    
   179   90  211 1    
   180   91  212 1    
   181   91  213 1    
   182   91  214 1    
   183   92   93 2    
   184   92   94 am   BACKBONE|DICT|INTERRES
   185   94   95 1    
   186   94  215 1    
   187   95   96 1    
   188   95   97 1    
   189   95  216 1    
   190   96  217 1    
   191   96  218 1    
   192   96  219 1    
   193   97   98 2    
   194   97   99 am   BACKBONE|DICT|INTERRES
   195   99  100 1    
   196   99  220 1    
   197  100  101 1    
   198  100  102 1    
   199  100  221 1    
   200  101  222 1    
   201  101  223 1    
   202  101  224 1    
   203  102  103 2    
   204  102  104 am   BACKBONE|DICT|INTERRES
   205  104  105 1    
   206  104  225 1    
   207  105  106 1    
   208  105  107 1    
   209  105  226 1    
   210  106  227 1    
   211  106  228 1    
   212  106  229 1    
   213  107  108 2    
   214  107  109 am   BACKBONE|DICT|INTERRES
   215  109  110 1    
   216  109  230 1    
   217  110  111 1    
   218  110  112 1    
   219  110  231 1    
   220  111  232 1    
   221  111  233 1    
   222  111  234 1    
   223  112  113 2    
   224  112  114 am   BACKBONE|DICT|INTERRES
   225  114  115 1    
   226  114  235 1    
   227  115  116 1    
   228  115  117 1    
   229  115  236 1    
   230  116  237 1    
   231  116  238 1    
   232  116  239 1    
   233  117  118 2    
   234  117  119 am   BACKBONE|DICT|INTERRES
   235  119  120 1    
   236  119  240 1    
   237  120  121 1    
   238  120  124 1    
   239  120  241 1    
   240  121  122 am   BACKBONE|DICT|INTERRES
   241  121  123 2    
   242  122  242 1    
   243  122  243 1    
   244  124  125 1    
   245  124  244 1    
   246  124  245 1    
   247  125  126 1    
   248  126  246 1    
   249  126  247 1    
@<TRIPOS>SUBSTRUCTURE
     1 UNK         1 GROUP             0       ****    0 ROOT    
