@<TRIPOS>MOLECULE
3R540
247   249    1
SMALL
USER_CHARGES


@<TRIPOS>ATOM
      1 CA          5.6987  -18.7674  -46.4181 C.3       0 UNK        -0.1800 
      2 C           5.0790  -17.4537  -46.8679 C.2       0 UNK         0.5000 
      3 O           4.1553  -16.9607  -46.2207 O.2       0 UNK        -0.5000 
      4 N           5.5942  -16.8656  -47.9557 N.am      1 UNK        -0.5000 
      5 CA          5.0976  -15.6156  -48.5495 C.3       1 UNK         0.1400 
      6 C6          5.7695  -15.3290  -49.9141 C.3       23 UNK        -0.0398 
      7 S7          4.7399  -14.2740  -50.9928 S.3       23 UNK        -0.2404 
      8 C8          4.1317  -15.4600  -52.2325 C.3       23 UNK        -0.0205 
      9 C9          3.0201  -16.3549  -51.7005 C.ar      23 UNK        -0.0193 
     10 C10         1.6986  -15.8948  -51.6777 C.ar      23 UNK        -0.1150 
     11 C11         0.6557  -16.7339  -51.2697 C.ar      23 UNK        -0.0193 
     12 C12         0.9498  -18.0513  -50.9099 C.ar      23 UNK        -0.1150 
     13 C13         2.2686  -18.5072  -50.8707 C.ar      23 UNK        -0.0193 
     14 C14         3.3016  -17.6566  -51.2739 C.ar      23 UNK        -0.1150 
     15 C15         2.5663  -19.9239  -50.4050 C.3       23 UNK        -0.0205 
     16 S16         2.9596  -20.0071  -48.6242 S.3       23 UNK        -0.2404 
     17 C17         1.4094  -19.4840  -47.8046 C.3       23 UNK        -0.0398 
     18 CA          0.4959  -20.6550  -47.3729 C.3       11 UNK         0.1400 
     19 N          -0.5403  -20.2366  -46.4200 N.am      11 UNK        -0.5000 
     20 C          -1.2839  -21.0990  -45.7111 C.2       10 UNK         0.5000 
     21 O          -1.1309  -22.3188  -45.7503 O.2       10 UNK        -0.5000 
     22 CA         -2.4092  -20.5232  -44.8329 C.3       10 UNK         0.1400 
     23 CB         -1.9164  -20.2528  -43.4035 C.3       10 UNK        -0.1800 
     24 N          -3.0732  -19.3278  -45.3578 N.am      10 UNK        -0.5000 
     25 C          -3.7129  -19.2426  -46.5296 C.2       9 UNK         0.5000 
     26 O          -3.6271  -20.0914  -47.4171 O.2       9 UNK        -0.5000 
     27 CA         -4.6433  -18.0373  -46.7604 C.3       9 UNK         0.1400 
     28 CB         -6.0667  -18.3741  -46.2803 C.3       9 UNK        -0.1800 
     29 N          -4.2090  -16.7405  -46.2225 N.am      9 UNK        -0.5000 
     30 C          -4.0221  -16.3537  -44.9532 C.2       8 UNK         0.5000 
     31 O          -4.0885  -17.1062  -43.9798 O.2       8 UNK        -0.5000 
     32 CA         -3.7554  -14.8507  -44.7703 C.3       8 UNK         0.1400 
     33 CB         -5.0370  -14.0858  -44.3862 C.3       8 UNK        -0.1800 
     34 N          -2.6418  -14.5790  -43.8619 N.am      8 UNK        -0.5000 
     35 C          -2.5879  -14.6103  -42.5218 C.2       7 UNK         0.5000 
     36 O          -3.5495  -14.8505  -41.7908 O.2       7 UNK        -0.5000 
     37 CA         -1.2193  -14.2980  -41.8716 C.3       7 UNK         0.1400 
     38 CB         -0.6862  -15.5265  -41.1167 C.3       7 UNK        -0.1800 
     39 N          -0.1980  -13.8613  -42.8272 N.am      7 UNK        -0.5000 
     40 C          -0.1555  -12.6765  -43.4519 C.2       6 UNK         0.5000 
     41 O          -0.9209  -11.7444  -43.2060 O.2       6 UNK        -0.5000 
     42 CA          0.8721  -12.5429  -44.5930 C.3       6 UNK         0.1400 
     43 CB          2.2124  -11.9948  -44.0784 C.3       6 UNK        -0.1800 
     44 N           1.0961  -13.8145  -45.2875 N.am      6 UNK        -0.5000 
     45 C           0.2033  -14.4159  -46.0881 C.2       5 UNK         0.5000 
     46 O          -0.9006  -13.9430  -46.3542 O.2       5 UNK        -0.5000 
     47 CA          0.5924  -15.7910  -46.6571 C.3       5 UNK         0.1400 
     48 CB          1.3893  -15.6121  -47.9512 C.3       5 UNK        -0.1800 
     49 N           1.3649  -16.5814  -45.6949 N.am      5 UNK        -0.5000 
     50 C           0.8103  -17.1968  -44.6416 C.2       4 UNK         0.5000 
     51 O          -0.4032  -17.2195  -44.4433 O.2       4 UNK        -0.5000 
     52 CA          1.7523  -17.8797  -43.6281 C.3       4 UNK         0.1400 
     53 CB          1.9768  -19.3595  -43.9726 C.3       4 UNK        -0.1800 
     54 N           3.0565  -17.2337  -43.4822 N.am      4 UNK        -0.5000 
     55 C           3.2606  -15.9818  -43.0580 C.2       3 UNK         0.5000 
     56 O           2.3498  -15.2007  -42.7902 O.2       3 UNK        -0.5000 
     57 CA          4.7169  -15.5206  -42.9174 C.3       3 UNK         0.1400 
     58 CB          5.6762  -16.6490  -42.4898 C.3       3 UNK        -0.1800 
     59 N           5.1813  -14.9483  -44.1789 N.am      3 UNK        -0.5000 
     60 C           5.8332  -13.7820  -44.2901 C.2       2 UNK         0.5000 
     61 O           6.0182  -13.0188  -43.3409 O.2       2 UNK        -0.5000 
     62 CA          6.4150  -13.4012  -45.6684 C.3       2 UNK         0.1400 
     63 CB          7.9312  -13.1596  -45.5695 C.3       2 UNK        -0.1800 
     64 N           6.1843  -14.4246  -46.6893 N.am      2 UNK        -0.5000 
     65 C           5.1950  -14.4004  -47.5912 C.2       1 UNK         0.5000 
     66 O           4.3686  -13.4910  -47.6627 O.2       1 UNK        -0.5000 
     67 C          -0.1361  -21.3536  -48.5915 C.2       11 UNK         0.5000 
     68 O           0.2608  -22.4673  -48.9346 O.2       11 UNK        -0.5000 
     69 N          -1.1314  -20.6985  -49.2057 N.am      12 UNK        -0.5000 
     70 CA         -1.8380  -21.2065  -50.3799 C.3       12 UNK         0.1400 
     71 CB         -2.7342  -20.1102  -50.9663 C.3       12 UNK        -0.1800 
     72 C          -2.6554  -22.4683  -50.0702 C.2       12 UNK         0.5000 
     73 O          -2.6377  -23.4029  -50.8661 O.2       12 UNK        -0.5000 
     74 N          -3.3136  -22.4808  -48.9030 N.am      13 UNK        -0.5000 
     75 CA         -4.0778  -23.6097  -48.3727 C.3       13 UNK         0.1400 
     76 CB         -4.8523  -23.1456  -47.1305 C.3       13 UNK        -0.1800 
     77 C          -3.2276  -24.8539  -48.0500 C.2       13 UNK         0.5000 
     78 O          -3.7664  -25.9623  -48.0674 O.2       13 UNK        -0.5000 
     79 N          -1.9344  -24.6558  -47.7613 N.am      14 UNK        -0.5000 
     80 CA         -0.9575  -25.7275  -47.5838 C.3       14 UNK         0.1400 
     81 CB          0.1606  -25.2567  -46.6410 C.3       14 UNK        -0.1800 
     82 C          -0.3759  -26.1878  -48.9316 C.2       14 UNK         0.5000 
     83 O          -0.2059  -27.3907  -49.1337 O.2       14 UNK        -0.5000 
     84 N          -0.0801  -25.2313  -49.8252 N.am      15 UNK        -0.5000 
     85 CA          0.4774  -25.4699  -51.1592 C.3       15 UNK         0.1400 
     86 CB          0.8792  -24.1298  -51.7944 C.3       15 UNK        -0.1800 
     87 C          -0.4761  -26.2485  -52.0849 C.2       15 UNK         0.5000 
     88 O          -0.0298  -27.1489  -52.7976 O.2       15 UNK        -0.5000 
     89 N          -1.7670  -25.9082  -52.0339 N.am      16 UNK        -0.5000 
     90 CA         -2.8583  -26.6172  -52.6859 C.3       16 UNK         0.1400 
     91 CB         -3.3152  -25.8315  -53.9245 C.3       16 UNK        -0.1800 
     92 C          -3.9739  -26.7547  -51.6449 C.2       16 UNK         0.5000 
     93 O          -4.4370  -25.7373  -51.1294 O.2       16 UNK        -0.5000 
     94 N          -4.3427  -28.0036  -51.3293 N.am      17 UNK        -0.5000 
     95 CA         -5.2112  -28.4209  -50.2230 C.3       17 UNK         0.1400 
     96 CB         -5.5373  -29.9151  -50.3880 C.3       17 UNK        -0.1800 
     97 C          -6.4957  -27.5830  -50.0560 C.2       17 UNK         0.5000 
     98 O          -7.4712  -27.7997  -50.7778 O.2       17 UNK        -0.5000 
     99 N          -6.4437  -26.6352  -49.1096 N.am      18 UNK        -0.5000 
    100 CA        -7.5003  -25.6940  -48.7272 C.3       18 UNK         0.1400 
    101 CB        -8.7017  -26.4435  -48.1132 C.3       18 UNK        -0.1800 
    102 C         -7.9137  -24.7086  -49.8443 C.2       18 UNK         0.5000 
    103 O         -9.0504  -24.2329  -49.8375 O.2       18 UNK        -0.5000 
    104 N         -6.9963  -24.4010  -50.7756 N.am      19 UNK        -0.5000 
    105 CA        -7.2279  -23.4740  -51.8879 C.3       19 UNK         0.1400 
    106 CB        -6.0525  -23.5399  -52.8726 C.3       19 UNK        -0.1800 
    107 C         -7.4698  -22.0215  -51.4379 C.2       19 UNK         0.5000 
    108 O         -8.3626  -21.3685  -51.9791 O.2       19 UNK        -0.5000 
    109 N         -6.6803  -21.5585  -50.4526 N.am      20 UNK        -0.5000 
    110 CA        -6.7734  -20.2482  -49.7894 C.3       20 UNK         0.1400 
    111 CB        -8.0265  -20.2070  -48.8898 C.3       20 UNK        -0.1800 
    112 C         -6.6979  -19.0497  -50.7656 C.2       20 UNK         0.5000 
    113 O         -7.4326  -18.0732  -50.6145 O.2       20 UNK        -0.5000 
    114 N         -5.8216  -19.1679  -51.7719 N.am      21 UNK        -0.5000 
    115 CA        -5.7087  -18.2557  -52.9130 C.3       21 UNK         0.1400 
    116 CB        -4.8653  -18.9376  -54.0028 C.3       21 UNK        -0.1800 
    117 C         -5.1421  -16.8564  -52.5943 C.2       21 UNK         0.5000 
    118 O         -5.2974  -15.9576  -53.4227 O.2       21 UNK        -0.5000 
    119 N         -4.4825  -16.6889  -51.4392 N.am      22 UNK        -0.5000 
    120 CA        -3.9232  -15.4058  -50.9799 C.3       22 UNK         0.1400 
    121 C         -5.0126  -14.3190  -50.7520 C.2       22 UNK         0.5000 
    122 N         -4.8014  -13.1021  -51.2349 N.am      22 UNK        -0.7600 
    123 O         -6.0220  -14.5590  -50.0944 O.2       22 UNK        -0.5000 
    124 C124       -3.0707  -15.5583  -49.6931 C.3       23 UNK        -0.0398 
    125 S125       -1.7246  -16.7856  -49.7769 S.3       23 UNK        -0.2404 
    126 C126       -0.7782  -16.2110  -51.2333 C.3       23 UNK        -0.0205 
    127 H127        6.2692  -18.6190  -45.5017 H         1 UNK         0.0600 
    128 H128        4.9176  -19.5011  -46.2198 H         1 UNK         0.0600 
    129 H129        6.3651  -19.1790  -47.1762 H         1 UNK         0.0600 
    130 H130        6.3609  -17.3120  -48.4385 H         1 UNK         0.3000 
    131 H131        4.0416  -15.7937  -48.7462 H         1 UNK         0.0600 
    132 H132        6.7454  -14.8582  -49.7824 H         1 UNK         0.0800 
    133 H133        5.9663  -16.2637  -50.4401 H         1 UNK         0.0800 
    134 H134        4.9615  -16.0585  -52.6115 H         1 UNK         0.0800 
    135 H135        3.7562  -14.8990  -53.0896 H         1 UNK         0.0800 
    136 H136        1.4836  -14.8822  -51.9892 H         1 UNK         0.1150 
    137 H137        0.1502  -18.7179  -50.6258 H         1 UNK         0.1150 
    138 H138        4.3211  -18.0153  -51.2709 H         1 UNK         0.1150 
    139 H139        1.7300  -20.5846  -50.6349 H         1 UNK         0.0800 
    140 H140        3.4157  -20.3180  -50.9645 H         1 UNK         0.0800 
    141 H141        0.8648  -18.7565  -48.4012 H         1 UNK         0.0800 
    142 H142        1.7258  -18.9369  -46.9209 H         1 UNK         0.0800 
    143 H143        1.1225  -21.3909  -46.8634 H         1 UNK         0.0600 
    144 H144       -0.7409  -19.2504  -46.3369 H         1 UNK         0.3000 
    145 H145       -3.1753  -21.2976  -44.7668 H         1 UNK         0.0600 
    146 H146       -2.7479  -20.0072  -42.7428 H         1 UNK         0.0600 
    147 H147       -1.4183  -21.1290  -42.9864 H         1 UNK         0.0600 
    148 H148       -1.2108  -19.4250  -43.3664 H         1 UNK         0.0600 
    149 H149       -3.2271  -18.5685  -44.6979 H         1 UNK         0.3000 
    150 H150       -4.6919  -17.9053  -47.8424 H         1 UNK         0.0600 
    151 H151       -6.3902  -19.3427  -46.6615 H         1 UNK         0.0600 
    152 H152       -6.7850  -17.6297  -46.6239 H         1 UNK         0.0600 
    153 H153       -6.1296  -18.4246  -45.1931 H         1 UNK         0.0600 
    154 H154       -4.0999  -16.0246  -46.9250 H         1 UNK         0.3000 
    155 H155       -3.4307  -14.4524  -45.7324 H         1 UNK         0.0600 
    156 H156       -5.4920  -14.4781  -43.4765 H         1 UNK         0.0600 
    157 H157       -5.7841  -14.1652  -45.1768 H         1 UNK         0.0600 
    158 H158       -4.8355  -13.0254  -44.2341 H         1 UNK         0.0600 
    159 H159       -1.7714  -14.3842  -44.3385 H         1 UNK         0.3000 
    160 H160       -1.3766  -13.4938  -41.1502 H         1 UNK         0.0600 
    161 H161        0.2716  -15.3149  -40.6406 H         1 UNK         0.0600 
    162 H162       -0.5491  -16.3767  -41.7849 H         1 UNK         0.0600 
    163 H163       -1.3782  -15.8354  -40.3324 H         1 UNK         0.0600 
    164 H164        0.5420  -14.5271  -43.0295 H         1 UNK         0.3000 
    165 H165        0.4718  -11.8294  -45.3163 H         1 UNK         0.0600 
    166 H166        2.9268  -11.8714  -44.8928 H         1 UNK         0.0600 
    167 H167        2.0785  -11.0179  -43.6125 H         1 UNK         0.0600 
    168 H168        2.6646  -12.6505  -43.3345 H         1 UNK         0.0600 
    169 H169        1.9590  -14.2954  -45.0802 H         1 UNK         0.3000 
    170 H170       -0.3240  -16.3334  -46.9005 H         1 UNK         0.0600 
    171 H171        0.7650  -15.1775  -48.7321 H         1 UNK         0.0600 
    172 H172        2.2257  -14.9348  -47.7997 H         1 UNK         0.0600 
    173 H173        1.7766  -16.5579  -48.3275 H         1 UNK         0.0600 
    174 H174        2.3736  -16.6333  -45.8256 H         1 UNK         0.3000 
    175 H175        1.2559  -17.8352  -42.6568 H         1 UNK         0.0600 
    176 H176        2.5780  -19.4797  -44.8735 H         1 UNK         0.0600 
    177 H177        2.4937  -19.8733  -43.1620 H         1 UNK         0.0600 
    178 H178        1.0335  -19.8805  -44.1282 H         1 UNK         0.0600 
    179 H179        3.8599  -17.7900  -43.7331 H         1 UNK         0.3000 
    180 H180        4.7173  -14.7669  -42.1271 H         1 UNK         0.0600 
    181 H181        5.8072  -17.3974  -43.2719 H         1 UNK         0.0600 
    182 H182        5.3126  -17.1580  -41.5962 H         1 UNK         0.0600 
    183 H183        6.6619  -16.2483  -42.2530 H         1 UNK         0.0600 
    184 H184        4.9976  -15.4968  -45.0115 H         1 UNK         0.3000 
    185 H185        5.9450  -12.4613  -45.9652 H         1 UNK         0.0600 
    186 H186        8.1587  -12.3617  -44.8615 H         1 UNK         0.0600 
    187 H187        8.4605  -14.0539  -45.2381 H         1 UNK         0.0600 
    188 H188        8.3459  -12.8616  -46.5327 H         1 UNK         0.0600 
    189 H189        6.8107  -15.2168  -46.6836 H         1 UNK         0.3000 
    190 H190       -1.4634  -19.8272  -48.8186 H         1 UNK         0.3000 
    191 H191       -1.0942  -21.4709  -51.1340 H         1 UNK         0.0600 
    192 H192       -2.1420  -19.2834  -51.3568 H         1 UNK         0.0600 
    193 H193       -3.4243  -19.7122  -50.2221 H         1 UNK         0.0600 
    194 H194       -3.3204  -20.5031  -51.7968 H         1 UNK         0.0600 
    195 H195       -3.2840  -21.6439  -48.3231 H         1 UNK         0.3000 
    196 H196       -4.7983  -23.9065  -49.1344 H         1 UNK         0.0600 
    197 H197       -5.4222  -23.9627  -46.6880 H         1 UNK         0.0600 
    198 H198       -5.5558  -22.3497  -47.3759 H         1 UNK         0.0600 
    199 H199       -4.1772  -22.7703  -46.3617 H         1 UNK         0.0600 
    200 H200       -1.5814  -23.7091  -47.7216 H         1 UNK         0.3000 
    201 H201       -1.4453  -26.5863  -47.1177 H         1 UNK         0.0600 
    202 H202       -0.2376  -24.9977  -45.6599 H         1 UNK         0.0600 
    203 H203        0.6794  -24.3807  -47.0313 H         1 UNK         0.0600 
    204 H204        0.9038  -26.0411  -46.4937 H         1 UNK         0.0600 
    205 H205       -0.1955  -24.2592  -49.5552 H         1 UNK         0.3000 
    206 H206        1.3815  -26.0695  -51.0358 H         1 UNK         0.0600 
    207 H207        1.6040  -23.6000  -51.1758 H         1 UNK         0.0600 
    208 H208        1.3360  -24.2829  -52.7728 H         1 UNK         0.0600 
    209 H209        0.0170  -23.4776  -51.9335 H         1 UNK         0.0600 
    210 H210       -2.0601  -25.1382  -51.4340 H         1 UNK         0.3000 
    211 H211       -2.5402  -27.6140  -52.9986 H         1 UNK         0.0600 
    212 H212       -3.5485  -24.7957  -53.6774 H         1 UNK         0.0600 
    213 H213       -4.2052  -26.2789  -54.3682 H         1 UNK         0.0600 
    214 H214       -2.5374  -25.8212  -54.6880 H         1 UNK         0.0600 
    215 H215       -3.9088  -28.7605  -51.8367 H         1 UNK         0.3000 
    216 H216       -4.6241  -28.3182  -49.3083 H         1 UNK         0.0600 
    217 H217       -6.1849  -30.2652  -49.5830 H         1 UNK         0.0600 
    218 H218       -4.6329  -30.5231  -50.3621 H         1 UNK         0.0600 
    219 H219       -6.0488  -30.1138  -51.3308 H         1 UNK         0.0600 
    220 H220       -5.5501  -26.4988  -48.6426 H         1 UNK         0.3000 
    221 H221       -7.0742  -25.0758  -47.9379 H         1 UNK         0.0600 
    222 H222       -9.2353  -27.0336  -48.8587 H         1 UNK         0.0600 
    223 H223       -8.3819  -27.1169  -47.3179 H         1 UNK         0.0600 
    224 H224       -9.4175  -25.7467  -47.6756 H         1 UNK         0.0600 
    225 H225       -6.0955  -24.8754  -50.7611 H         1 UNK         0.3000 
    226 H226       -8.1244  -23.8077  -52.4147 H         1 UNK         0.0600 
    227 H227       -5.9595  -24.5395  -53.2964 H         1 UNK         0.0600 
    228 H228       -6.1938  -22.8475  -53.7034 H         1 UNK         0.0600 
    229 H229       -5.1070  -23.2889  -52.3900 H         1 UNK         0.0600 
    230 H230       -5.9745  -22.1838  -50.0939 H         1 UNK         0.3000 
    231 H231       -5.8992  -20.1655  -49.1421 H         1 UNK         0.0600 
    232 H232       -8.0087  -21.0118  -48.1548 H         1 UNK         0.0600 
    233 H233       -8.9436  -20.3063  -49.4711 H         1 UNK         0.0600 
    234 H234       -8.0930  -19.2672  -48.3414 H         1 UNK         0.0600 
    235 H235       -5.2822  -20.0175  -51.8290 H         1 UNK         0.3000 
    236 H236       -6.7143  -18.1070  -53.3121 H         1 UNK         0.0600 
    237 H237       -4.8391  -18.3331  -54.9104 H         1 UNK         0.0600 
    238 H238       -3.8338  -19.0851  -53.6821 H         1 UNK         0.0600 
    239 H239       -5.2780  -19.9093  -54.2755 H         1 UNK         0.0600 
    240 H240       -4.3990  -17.4714  -50.8104 H         1 UNK         0.3000 
    241 H241       -3.2679  -15.0498  -51.7765 H         1 UNK         0.0600 
    242 H242       -5.4947  -12.3873  -51.0765 H         1 UNK         0.3800 
    243 H243       -3.9798  -12.8793  -51.7753 H         1 UNK         0.3800 
    244 H244       -2.6219  -14.6005  -49.4222 H         1 UNK         0.0800 
    245 H245       -3.7110  -15.8342  -48.8564 H         1 UNK         0.0800 
    246 H246       -1.2915  -16.5269  -52.1423 H         1 UNK         0.0800 
    247 H247       -0.7699  -15.1200  -51.2356 H         1 UNK         0.0800 
@<TRIPOS>BOND
     1    1    2 1    
     2    1  127 1    
     3    1  128 1    
     4    1  129 1    
     5    2    3 2    
     6    2    4 am   BACKBONE|DICT|INTERRES
     7    4    5 1    
     8    4  130 1    
     9    5    6 1    
    10    5   65 1    
    11    5  131 1    
    12    6    7 1    
    13    6  132 1    
    14    6  133 1    
    15    7    8 1    
    16    8    9 1    
    17    8  134 1    
    18    8  135 1    
    19    9   10 ar   
    20    9   14 ar   
    21   10   11 ar   
    22   10  136 1    
    23   11   12 ar   
    24   11  126 1    
    25   12   13 ar   
    26   12  137 1    
    27   13   14 ar   
    28   13   15 1    
    29   14  138 1    
    30   15   16 1    
    31   15  139 1    
    32   15  140 1    
    33   16   17 1    
    34   17   18 1    
    35   17  141 1    
    36   17  142 1    
    37   18   19 1    
    38   18   67 1    
    39   18  143 1    
    40   19   20 am   BACKBONE|DICT|INTERRES
    41   19  144 1    
    42   20   21 2    
    43   20   22 1    
    44   22   23 1    
    45   22   24 1    
    46   22  145 1    
    47   23  146 1    
    48   23  147 1    
    49   23  148 1    
    50   24   25 am   BACKBONE|DICT|INTERRES
    51   24  149 1    
    52   25   26 2    
    53   25   27 1    
    54   27   28 1    
    55   27   29 1    
    56   27  150 1    
    57   28  151 1    
    58   28  152 1    
    59   28  153 1    
    60   29   30 am   BACKBONE|DICT|INTERRES
    61   29  154 1    
    62   30   31 2    
    63   30   32 1    
    64   32   33 1    
    65   32   34 1    
    66   32  155 1    
    67   33  156 1    
    68   33  157 1    
    69   33  158 1    
    70   34   35 am   BACKBONE|DICT|INTERRES
    71   34  159 1    
    72   35   36 2    
    73   35   37 1    
    74   37   38 1    
    75   37   39 1    
    76   37  160 1    
    77   38  161 1    
    78   38  162 1    
    79   38  163 1    
    80   39   40 am   BACKBONE|DICT|INTERRES
    81   39  164 1    
    82   40   41 2    
    83   40   42 1    
    84   42   43 1    
    85   42   44 1    
    86   42  165 1    
    87   43  166 1    
    88   43  167 1    
    89   43  168 1    
    90   44   45 am   BACKBONE|DICT|INTERRES
    91   44  169 1    
    92   45   46 2    
    93   45   47 1    
    94   47   48 1    
    95   47   49 1    
    96   47  170 1    
    97   48  171 1    
    98   48  172 1    
    99   48  173 1    
   100   49   50 am   BACKBONE|DICT|INTERRES
   101   49  174 1    
   102   50   51 2    
   103   50   52 1    
   104   52   53 1    
   105   52   54 1    
   106   52  175 1    
   107   53  176 1    
   108   53  177 1    
   109   53  178 1    
   110   54   55 am   BACKBONE|DICT|INTERRES
   111   54  179 1    
   112   55   56 2    
   113   55   57 1    
   114   57   58 1    
   115   57   59 1    
   116   57  180 1    
   117   58  181 1    
   118   58  182 1    
   119   58  183 1    
   120   59   60 am   BACKBONE|DICT|INTERRES
   121   59  184 1    
   122   60   61 2    
   123   60   62 1    
   124   62   63 1    
   125   62   64 1    
   126   62  185 1    
   127   63  186 1    
   128   63  187 1    
   129   63  188 1    
   130   64   65 am   BACKBONE|DICT|INTERRES
   131   64  189 1    
   132   65   66 2    
   133   67   68 2    
   134   67   69 am   BACKBONE|DICT|INTERRES
   135   69   70 1    
   136   69  190 1    
   137   70   71 1    
   138   70   72 1    
   139   70  191 1    
   140   71  192 1    
   141   71  193 1    
   142   71  194 1    
   143   72   73 2    
   144   72   74 am   BACKBONE|DICT|INTERRES
   145   74   75 1    
   146   74  195 1    
   147   75   76 1    
   148   75   77 1    
   149   75  196 1    
   150   76  197 1    
   151   76  198 1    
   152   76  199 1    
   153   77   78 2    
   154   77   79 am   BACKBONE|DICT|INTERRES
   155   79   80 1    
   156   79  200 1    
   157   80   81 1    
   158   80   82 1    
   159   80  201 1    
   160   81  202 1    
   161   81  203 1    
   162   81  204 1    
   163   82   83 2    
   164   82   84 am   BACKBONE|DICT|INTERRES
   165   84   85 1    
   166   84  205 1    
   167   85   86 1    
   168   85   87 1    
   169   85  206 1    
   170   86  207 1    
   171   86  208 1    
   172   86  209 1    
   173   87   88 2    
   174   87   89 am   BACKBONE|DICT|INTERRES
   175   89   90 1    
   176   89  210 1    
   177   90   91 1    
   178   90   92 1    
   179   90  211 1    
   180   91  212 1    
   181   91  213 1    
   182   91  214 1    
   183   92   93 2    
   184   92   94 am   BACKBONE|DICT|INTERRES
   185   94   95 1    
   186   94  215 1    
   187   95   96 1    
   188   95   97 1    
   189   95  216 1    
   190   96  217 1    
   191   96  218 1    
   192   96  219 1    
   193   97   98 2    
   194   97   99 am   BACKBONE|DICT|INTERRES
   195   99  100 1    
   196   99  220 1    
   197  100  101 1    
   198  100  102 1    
   199  100  221 1    
   200  101  222 1    
   201  101  223 1    
   202  101  224 1    
   203  102  103 2    
   204  102  104 am   BACKBONE|DICT|INTERRES
   205  104  105 1    
   206  104  225 1    
   207  105  106 1    
   208  105  107 1    
   209  105  226 1    
   210  106  227 1    
   211  106  228 1    
   212  106  229 1    
   213  107  108 2    
   214  107  109 am   BACKBONE|DICT|INTERRES
   215  109  110 1    
   216  109  230 1    
   217  110  111 1    
   218  110  112 1    
   219  110  231 1    
   220  111  232 1    
   221  111  233 1    
   222  111  234 1    
   223  112  113 2    
   224  112  114 am   BACKBONE|DICT|INTERRES
   225  114  115 1    
   226  114  235 1    
   227  115  116 1    
   228  115  117 1    
   229  115  236 1    
   230  116  237 1    
   231  116  238 1    
   232  116  239 1    
   233  117  118 2    
   234  117  119 am   BACKBONE|DICT|INTERRES
   235  119  120 1    
   236  119  240 1    
   237  120  121 1    
   238  120  124 1    
   239  120  241 1    
   240  121  122 am   BACKBONE|DICT|INTERRES
   241  121  123 2    
   242  122  242 1    
   243  122  243 1    
   244  124  125 1    
   245  124  244 1    
   246  124  245 1    
   247  125  126 1    
   248  126  246 1    
   249  126  247 1    
@<TRIPOS>SUBSTRUCTURE
     1 UNK         1 GROUP             0       ****    0 ROOT    
