@<TRIPOS>MOLECULE
3R540
247   249    1
SMALL
USER_CHARGES


@<TRIPOS>ATOM
      1 CA         -1.5825  -13.9846  -49.6341 C.3       0 UNK        -0.1800 
      2 C          -1.7199  -14.3640  -48.1679 C.2       0 UNK         0.5000 
      3 O          -1.7128  -13.4891  -47.3019 O.2       0 UNK        -0.5000 
      4 N          -1.8605  -15.6658  -47.8871 N.am      1 UNK        -0.5000 
      5 CA         -1.9808  -16.2555  -46.5464 C.3       1 UNK         0.1400 
      6 C6         -2.0334  -17.8003  -46.5872 C.3       23 UNK        -0.0398 
      7 S7         -0.5687  -18.5506  -47.3748 S.3       23 UNK        -0.2404 
      8 C8         -1.1542  -18.8669  -49.0704 C.3       23 UNK        -0.0205 
      9 C9         -0.3720  -19.9750  -49.7600 C.ar      23 UNK        -0.0193 
     10 C10        -1.0453  -21.0789  -50.2905 C.ar      23 UNK        -0.1150 
     11 C11        -0.3394  -22.1194  -50.9011 C.ar      23 UNK        -0.0193 
     12 C12         1.0531  -22.0434  -50.9891 C.ar      23 UNK        -0.1150 
     13 C13         1.7387  -20.9414  -50.4715 C.ar      23 UNK        -0.0193 
     14 C14         1.0193  -19.9038  -49.8716 C.ar      23 UNK        -0.1150 
     15 C15         3.2574  -20.8780  -50.5454 C.3       23 UNK        -0.0205 
     16 S16         4.0654  -22.1130  -49.4722 S.3       23 UNK        -0.2404 
     17 C17         3.4591  -21.6460  -47.8130 C.3       23 UNK        -0.0398 
     18 CA          2.9158  -22.8404  -46.9878 C.3       11 UNK         0.1400 
     19 N           2.8340  -22.4827  -45.5703 N.am      11 UNK        -0.5000 
     20 C           2.8528  -23.3466  -44.5452 C.2       10 UNK         0.5000 
     21 O           3.0034  -24.5609  -44.6813 O.2       10 UNK        -0.5000 
     22 CA          2.6548  -22.7591  -43.1288 C.3       10 UNK         0.1400 
     23 CB          4.0127  -22.4948  -42.4614 C.3       10 UNK        -0.1800 
     24 N           1.8745  -21.5187  -43.1229 N.am      10 UNK        -0.5000 
     25 C           0.5936  -21.4284  -43.5042 C.2       9 UNK         0.5000 
     26 O          -0.1038  -22.4118  -43.7481 O.2       9 UNK        -0.5000 
     27 CA         -0.0021  -20.0202  -43.7098 C.3       9 UNK         0.1400 
     28 CB         -1.0359  -19.7047  -42.6190 C.3       9 UNK        -0.1800 
     29 N           0.9642  -18.9163  -43.8032 N.am      9 UNK        -0.5000 
     30 C           1.9394  -18.8059  -44.7201 C.2       8 UNK         0.5000 
     31 O           2.2211  -19.7017  -45.5150 O.2       8 UNK        -0.5000 
     32 CA          2.7507  -17.5020  -44.7673 C.3       8 UNK         0.1400 
     33 CB          2.1409  -16.5385  -45.7932 C.3       8 UNK        -0.1800 
     34 N           2.8265  -16.8328  -43.4670 N.am      8 UNK        -0.5000 
     35 C           3.9714  -16.4807  -42.8632 C.2       7 UNK         0.5000 
     36 O           5.0886  -16.6940  -43.3365 O.2       7 UNK        -0.5000 
     37 CA          3.8704  -15.7622  -41.5017 C.3       7 UNK         0.1400 
     38 CB          3.9982  -14.2429  -41.6902 C.3       7 UNK        -0.1800 
     39 N           2.6322  -16.0499  -40.7787 N.am      7 UNK        -0.5000 
     40 C           2.3106  -17.2436  -40.2612 C.2       6 UNK         0.5000 
     41 O           3.0675  -18.2149  -40.2701 O.2       6 UNK        -0.5000 
     42 CA          0.9012  -17.3970  -39.6531 C.3       6 UNK         0.1400 
     43 CB          0.9760  -17.3594  -38.1190 C.3       6 UNK        -0.1800 
     44 N          -0.0937  -16.4135  -40.0979 N.am      6 UNK        -0.5000 
     45 C          -0.4554  -16.1519  -41.3618 C.2       5 UNK         0.5000 
     46 O           0.0835  -16.6707  -42.3433 O.2       5 UNK        -0.5000 
     47 CA         -1.6008  -15.1390  -41.5741 C.3       5 UNK         0.1400 
     48 CB         -2.0103  -14.3585  -40.3044 C.3       5 UNK        -0.1800 
     49 N          -1.3122  -14.2165  -42.6733 N.am      5 UNK        -0.5000 
     50 C          -0.2757  -13.3708  -42.7645 C.2       4 UNK         0.5000 
     51 O           0.5797  -13.2380  -41.8878 O.2       4 UNK        -0.5000 
     52 CA         -0.1653  -12.5287  -44.0495 C.3       4 UNK         0.1400 
     53 CB          0.8176  -13.1757  -45.0354 C.3       4 UNK        -0.1800 
     54 N          -1.4418  -12.3074  -44.7326 N.am      4 UNK        -0.5000 
     55 C          -2.4032  -11.4779  -44.3035 C.2       3 UNK         0.5000 
     56 O          -2.3415  -10.8484  -43.2468 O.2       3 UNK        -0.5000 
     57 CA         -3.6337  -11.3134  -45.2107 C.3       3 UNK         0.1400 
     58 CB         -3.3120  -10.3843  -46.3922 C.3       3 UNK        -0.1800 
     59 N          -4.0917  -12.6024  -45.7267 N.am      3 UNK        -0.5000 
     60 C          -5.1318  -13.2931  -45.2393 C.2       2 UNK         0.5000 
     61 O          -5.8455  -12.8957  -44.3174 O.2       2 UNK        -0.5000 
     62 CA         -5.4357  -14.6626  -45.8847 C.3       2 UNK         0.1400 
     63 CB         -6.4867  -14.5020  -46.9939 C.3       2 UNK        -0.1800 
     64 N          -4.2607  -15.3339  -46.4431 N.am      2 UNK        -0.5000 
     65 C          -3.1776  -15.7030  -45.7459 C.2       1 UNK         0.5000 
     66 O          -3.0780  -15.5770  -44.5268 O.2       1 UNK        -0.5000 
     67 C           1.5604  -23.3595  -47.5242 C.2       11 UNK         0.5000 
     68 O           1.5461  -24.1689  -48.4527 O.2       11 UNK        -0.5000 
     69 N           0.4442  -22.9361  -46.9105 N.am      12 UNK        -0.5000 
     70 CA         -0.9348  -23.2549  -47.2980 C.3       12 UNK         0.1400 
     71 CB         -1.8821  -22.1900  -46.7175 C.3       12 UNK        -0.1800 
     72 C          -1.3776  -24.6927  -46.9464 C.2       12 UNK         0.5000 
     73 O          -2.5028  -24.9016  -46.4901 O.2       12 UNK        -0.5000 
     74 N          -0.5072  -25.6771  -47.2016 N.am      13 UNK        -0.5000 
     75 CA         -0.7672  -27.1082  -47.0237 C.3       13 UNK         0.1400 
     76 CB          0.5510  -27.8788  -47.1884 C.3       13 UNK        -0.1800 
     77 C          -1.8385  -27.6461  -47.9936 C.2       13 UNK         0.5000 
     78 O          -2.5535  -28.5882  -47.6522 O.2       13 UNK        -0.5000 
     79 N          -1.9496  -27.0091  -49.1669 N.am      14 UNK        -0.5000 
     80 CA         -2.9729  -27.2606  -50.1831 C.3       14 UNK         0.1400 
     81 CB         -2.3153  -27.1728  -51.5716 C.3       14 UNK        -0.1800 
     82 C          -4.1698  -26.2908  -50.0609 C.2       14 UNK         0.5000 
     83 O          -4.9550  -26.1884  -51.0041 O.2       14 UNK        -0.5000 
     84 N          -4.2875  -25.5930  -48.9191 N.am      15 UNK        -0.5000 
     85 CA         -5.2705  -24.5534  -48.6064 C.3       15 UNK         0.1400 
     86 CB         -6.7058  -25.1259  -48.5657 C.3       15 UNK        -0.1800 
     87 C          -5.0895  -23.3313  -49.5274 C.2       15 UNK         0.5000 
     88 O          -4.0541  -22.6720  -49.4363 O.2       15 UNK        -0.5000 
     89 N          -6.0871  -23.0320  -50.3712 N.am      16 UNK        -0.5000 
     90 CA         -6.1587  -21.9591  -51.3763 C.3       16 UNK         0.1400 
     91 CB         -5.0073  -22.0717  -52.3924 C.3       16 UNK        -0.1800 
     92 C          -6.2457  -20.5271  -50.8070 C.2       16 UNK         0.5000 
     93 O          -6.9374  -19.6944  -51.3916 O.2       16 UNK        -0.5000 
     94 N          -5.5528  -20.2681  -49.6899 N.am      17 UNK        -0.5000 
     95 CA         -5.4946  -19.0261  -48.9052 C.3       17 UNK         0.1400 
     96 CB         -6.8925  -18.6109  -48.4080 C.3       17 UNK        -0.1800 
     97 C          -4.7546  -17.8528  -49.5836 C.2       17 UNK         0.5000 
     98 O          -4.5961  -16.8016  -48.9612 O.2       17 UNK        -0.5000 
     99 N          -4.2510  -18.0577  -50.8034 N.am      18 UNK        -0.5000 
    100 CA        -3.4145  -17.1297  -51.5485 C.3       18 UNK         0.1400 
    101 CB        -4.2891  -16.1618  -52.3610 C.3       18 UNK        -0.1800 
    102 C         -2.5089  -17.9566  -52.4639 C.2       18 UNK         0.5000 
    103 O         -2.9627  -18.9616  -53.0162 O.2       18 UNK        -0.5000 
    104 N         -1.2575  -17.5145  -52.6374 N.am      19 UNK        -0.5000 
    105 CA        -0.2652  -18.1842  -53.4837 C.3       19 UNK         0.1400 
    106 CB         1.1145  -17.5542  -53.2474 C.3       19 UNK        -0.1800 
    107 C         -0.6372  -18.1542  -54.9796 C.2       19 UNK         0.5000 
    108 O         -0.3374  -19.1048  -55.7018 O.2       19 UNK        -0.5000 
    109 N         -1.3305  -17.0873  -55.4029 N.am      20 UNK        -0.5000 
    110 CA        -1.8753  -16.9247  -56.7521 C.3       20 UNK         0.1400 
    111 CB        -2.3399  -15.4716  -56.9336 C.3       20 UNK        -0.1800 
    112 C         -3.0268  -17.9021  -57.0600 C.2       20 UNK         0.5000 
    113 O         -3.1812  -18.3084  -58.2121 O.2       20 UNK        -0.5000 
    114 N         -3.8025  -18.2697  -56.0297 N.am      21 UNK        -0.5000 
    115 CA        -4.8466  -19.2917  -56.1103 C.3       21 UNK         0.1400 
    116 CB        -5.8738  -19.0661  -54.9891 C.3       21 UNK        -0.1800 
    117 C         -4.2497  -20.7093  -56.0427 C.2       21 UNK         0.5000 
    118 O         -4.7308  -21.6051  -56.7373 O.2       21 UNK        -0.5000 
    119 N         -3.2088  -20.8753  -55.2164 N.am      22 UNK        -0.5000 
    120 CA        -2.4106  -22.1005  -55.0764 C.3       22 UNK         0.1400 
    121 C         -1.6629  -22.4952  -56.3820 C.2       22 UNK         0.5000 
    122 N         -0.9533  -21.5713  -57.0189 N.am      22 UNK        -0.7600 
    123 O         -1.7375  -23.6375  -56.8265 O.2       22 UNK        -0.5000 
    124 C124       -1.4350  -21.9746  -53.8804 C.3       23 UNK        -0.0398 
    125 S125       -0.8685  -23.5785  -53.2230 S.3       23 UNK        -0.2404 
    126 C126       -1.0810  -23.3410  -51.4292 C.3       23 UNK        -0.0205 
    127 H127       -0.9148  -13.1297  -49.7412 H         1 UNK         0.0600 
    128 H128       -2.5553  -13.7137  -50.0442 H         1 UNK         0.0600 
    129 H129       -1.1725  -14.8055  -50.2219 H         1 UNK         0.0600 
    130 H130       -1.8955  -16.3275  -48.6450 H         1 UNK         0.3000 
    131 H131       -1.0865  -15.9657  -45.9945 H         1 UNK         0.0600 
    132 H132       -2.0811  -18.1964  -45.5711 H         1 UNK         0.0800 
    133 H133       -2.9400  -18.1470  -47.0823 H         1 UNK         0.0800 
    134 H134       -2.2096  -19.1332  -49.0396 H         1 UNK         0.0800 
    135 H135       -1.0664  -17.9534  -49.6568 H         1 UNK         0.0800 
    136 H136       -2.1212  -21.1382  -50.2127 H         1 UNK         0.1150 
    137 H137        1.6060  -22.8534  -51.4436 H         1 UNK         0.1150 
    138 H138        1.5425  -19.0504  -49.4637 H         1 UNK         0.1150 
    139 H139        3.5706  -21.0474  -51.5764 H         1 UNK         0.0800 
    140 H140        3.6173  -19.8836  -50.2764 H         1 UNK         0.0800 
    141 H141        2.7107  -20.8564  -47.8820 H         1 UNK         0.0800 
    142 H142        4.3051  -21.1964  -47.2911 H         1 UNK         0.0800 
    143 H143        3.6316  -23.6604  -47.0793 H         1 UNK         0.0600 
    144 H144        2.6864  -21.4938  -45.3797 H         1 UNK         0.3000 
    145 H145        2.1172  -23.5011  -42.5349 H         1 UNK         0.0600 
    146 H146        3.8875  -22.1453  -41.4364 H         1 UNK         0.0600 
    147 H147        4.6127  -23.4050  -42.4227 H         1 UNK         0.0600 
    148 H148        4.5885  -21.7444  -43.0047 H         1 UNK         0.0600 
    149 H149        2.3776  -20.6627  -42.9408 H         1 UNK         0.3000 
    150 H150       -0.5308  -20.0545  -44.6640 H         1 UNK         0.0600 
    151 H151       -1.7794  -20.4989  -42.5389 H         1 UNK         0.0600 
    152 H152       -1.5754  -18.7840  -42.8415 H         1 UNK         0.0600 
    153 H153       -0.5660  -19.5959  -41.6421 H         1 UNK         0.0600 
    154 H154        0.7605  -18.1149  -43.2119 H         1 UNK         0.3000 
    155 H155        3.7486  -17.7737  -45.1171 H         1 UNK         0.0600 
    156 H156        2.7213  -15.6191  -45.8700 H         1 UNK         0.0600 
    157 H157        1.1213  -16.2751  -45.5194 H         1 UNK         0.0600 
    158 H158        2.1093  -16.9898  -46.7858 H         1 UNK         0.0600 
    159 H159        1.9464  -16.6291  -43.0043 H         1 UNK         0.3000 
    160 H160        4.7068  -16.1013  -40.8868 H         1 UNK         0.0600 
    161 H161        3.1979  -13.8473  -42.3163 H         1 UNK         0.0600 
    162 H162        4.9443  -13.9874  -42.1691 H         1 UNK         0.0600 
    163 H163        3.9668  -13.7205  -40.7340 H         1 UNK         0.0600 
    164 H164        1.9441  -15.3101  -40.7464 H         1 UNK         0.3000 
    165 H165        0.5365  -18.3817  -39.9483 H         1 UNK         0.0600 
    166 H166        0.0076  -17.5808  -37.6699 H         1 UNK         0.0600 
    167 H167        1.6826  -18.1002  -37.7417 H         1 UNK         0.0600 
    168 H168        1.3001  -16.3828  -37.7573 H         1 UNK         0.0600 
    169 H169       -0.5751  -15.9161  -39.3630 H         1 UNK         0.3000 
    170 H170       -2.4629  -15.7277  -41.8890 H         1 UNK         0.0600 
    171 H171       -2.3875  -15.0277  -39.5302 H         1 UNK         0.0600 
    172 H172       -1.1788  -13.7922  -39.8832 H         1 UNK         0.0600 
    173 H173       -2.8094  -13.6510  -40.5264 H         1 UNK         0.0600 
    174 H174       -1.9301  -14.3121  -43.4720 H         1 UNK         0.3000 
    175 H175        0.2402  -11.5566  -43.7613 H         1 UNK         0.0600 
    176 H176        0.4147  -14.1014  -45.4427 H         1 UNK         0.0600 
    177 H177        1.0286  -12.5105  -45.8728 H         1 UNK         0.0600 
    178 H178        1.7690  -13.4089  -44.5552 H         1 UNK         0.0600 
    179 H179       -1.5549  -12.7626  -45.6357 H         1 UNK         0.3000 
    180 H180       -4.4212  -10.8389  -44.6213 H         1 UNK         0.0600 
    181 H181       -4.1949  -10.2132  -47.0081 H         1 UNK         0.0600 
    182 H182       -2.5325  -10.7975  -47.0337 H         1 UNK         0.0600 
    183 H183       -2.9671   -9.4110  -46.0408 H         1 UNK         0.0600 
    184 H184       -3.5253  -13.0208  -46.4557 H         1 UNK         0.3000 
    185 H185       -5.8491  -15.3087  -45.1078 H         1 UNK         0.0600 
    186 H186       -6.1132  -13.8866  -47.8134 H         1 UNK         0.0600 
    187 H187       -6.7770  -15.4667  -47.4082 H         1 UNK         0.0600 
    188 H188       -7.3915  -14.0280  -46.6115 H         1 UNK         0.0600 
    189 H189       -4.2832  -15.5386  -47.4379 H         1 UNK         0.3000 
    190 H190        0.5459  -22.3457  -46.0982 H         1 UNK         0.3000 
    191 H191       -1.0002  -23.1832  -48.3834 H         1 UNK         0.0600 
    192 H192       -2.9050  -22.3415  -47.0619 H         1 UNK         0.0600 
    193 H193       -1.5878  -21.1913  -47.0312 H         1 UNK         0.0600 
    194 H194       -1.9013  -22.2127  -45.6287 H         1 UNK         0.0600 
    195 H195        0.3844  -25.4139  -47.6125 H         1 UNK         0.3000 
    196 H196       -1.1324  -27.2626  -46.0063 H         1 UNK         0.0600 
    197 H197        0.9753  -27.7420  -48.1840 H         1 UNK         0.0600 
    198 H198        1.2927  -27.5502  -46.4600 H         1 UNK         0.0600 
    199 H199        0.4000  -28.9487  -47.0386 H         1 UNK         0.0600 
    200 H200       -1.3131  -26.2478  -49.3511 H         1 UNK         0.3000 
    201 H201       -3.3691  -28.2711  -50.0652 H         1 UNK         0.0600 
    202 H202       -1.9624  -26.1649  -51.7880 H         1 UNK         0.0600 
    203 H203       -3.0185  -27.4483  -52.3585 H         1 UNK         0.0600 
    204 H204       -1.4649  -27.8504  -51.6496 H         1 UNK         0.0600 
    205 H205       -3.5806  -25.7263  -48.2069 H         1 UNK         0.3000 
    206 H206       -5.0333  -24.2058  -47.5999 H         1 UNK         0.0600 
    207 H207       -6.7742  -25.9449  -47.8496 H         1 UNK         0.0600 
    208 H208       -7.4213  -24.3659  -48.2491 H         1 UNK         0.0600 
    209 H209       -7.0342  -25.5088  -49.5321 H         1 UNK         0.0600 
    210 H210       -6.8976  -23.6345  -50.3431 H         1 UNK         0.3000 
    211 H211       -7.0890  -22.1332  -51.9191 H         1 UNK         0.0600 
    212 H212       -5.1715  -21.3973  -53.2309 H         1 UNK         0.0600 
    213 H213       -4.9288  -23.0808  -52.7970 H         1 UNK         0.0600 
    214 H214       -4.0458  -21.8100  -51.9512 H         1 UNK         0.0600 
    215 H215       -4.9683  -21.0286  -49.3514 H         1 UNK         0.3000 
    216 H216       -4.9031  -19.2761  -48.0239 H         1 UNK         0.0600 
    217 H217       -6.8196  -17.8180  -47.6637 H         1 UNK         0.0600 
    218 H218       -7.5196  -18.2401  -49.2192 H         1 UNK         0.0600 
    219 H219       -7.4094  -19.4469  -47.9370 H         1 UNK         0.0600 
    220 H220       -4.3978  -18.9499  -51.2570 H         1 UNK         0.3000 
    221 H221       -2.7924  -16.5610  -50.8564 H         1 UNK         0.0600 
    222 H222       -4.9205  -15.5605  -51.7065 H         1 UNK         0.0600 
    223 H223       -4.9411  -16.6944  -53.0545 H         1 UNK         0.0600 
    224 H224       -3.6770  -15.4727  -52.9439 H         1 UNK         0.0600 
    225 H225       -0.9527  -16.6724  -52.1721 H         1 UNK         0.3000 
    226 H226       -0.2127  -19.2297  -53.1736 H         1 UNK         0.0600 
    227 H227        1.1259  -16.4953  -53.5082 H         1 UNK         0.0600 
    228 H228        1.4158  -17.6487  -52.2038 H         1 UNK         0.0600 
    229 H229        1.8772  -18.0501  -53.8494 H         1 UNK         0.0600 
    230 H230       -1.5227  -16.3480  -54.7438 H         1 UNK         0.3000 
    231 H231       -1.0741  -17.1205  -57.4681 H         1 UNK         0.0600 
    232 H232       -3.1294  -15.2095  -56.2281 H         1 UNK         0.0600 
    233 H233       -2.7309  -15.3097  -57.9390 H         1 UNK         0.0600 
    234 H234       -1.5153  -14.7729  -56.7910 H         1 UNK         0.0600 
    235 H235       -3.5880  -17.9149  -55.1099 H         1 UNK         0.3000 
    236 H236       -5.3677  -19.1940  -57.0652 H         1 UNK         0.0600 
    237 H237       -6.6596  -19.8217  -55.0216 H         1 UNK         0.0600 
    238 H238       -5.4184  -19.1118  -54.0001 H         1 UNK         0.0600 
    239 H239       -6.3551  -18.0931  -55.0878 H         1 UNK         0.0600 
    240 H240       -2.9349  -20.0949  -54.6302 H         1 UNK         0.3000 
    241 H241       -3.1181  -22.9008  -54.8506 H         1 UNK         0.0600 
    242 H242       -0.4726  -21.8140  -57.8701 H         1 UNK         0.3800 
    243 H243       -0.8355  -20.6414  -56.6228 H         1 UNK         0.3800 
    244 H244       -1.9257  -21.4334  -53.0719 H         1 UNK         0.0800 
    245 H245       -0.5594  -21.3805  -54.1437 H         1 UNK         0.0800 
    246 H246       -0.7086  -24.2242  -50.9093 H         1 UNK         0.0800 
    247 H247       -2.1466  -23.2797  -51.2061 H         1 UNK         0.0800 
@<TRIPOS>BOND
     1    1    2 1    
     2    1  127 1    
     3    1  128 1    
     4    1  129 1    
     5    2    3 2    
     6    2    4 am   BACKBONE|DICT|INTERRES
     7    4    5 1    
     8    4  130 1    
     9    5    6 1    
    10    5   65 1    
    11    5  131 1    
    12    6    7 1    
    13    6  132 1    
    14    6  133 1    
    15    7    8 1    
    16    8    9 1    
    17    8  134 1    
    18    8  135 1    
    19    9   10 ar   
    20    9   14 ar   
    21   10   11 ar   
    22   10  136 1    
    23   11   12 ar   
    24   11  126 1    
    25   12   13 ar   
    26   12  137 1    
    27   13   14 ar   
    28   13   15 1    
    29   14  138 1    
    30   15   16 1    
    31   15  139 1    
    32   15  140 1    
    33   16   17 1    
    34   17   18 1    
    35   17  141 1    
    36   17  142 1    
    37   18   19 1    
    38   18   67 1    
    39   18  143 1    
    40   19   20 am   BACKBONE|DICT|INTERRES
    41   19  144 1    
    42   20   21 2    
    43   20   22 1    
    44   22   23 1    
    45   22   24 1    
    46   22  145 1    
    47   23  146 1    
    48   23  147 1    
    49   23  148 1    
    50   24   25 am   BACKBONE|DICT|INTERRES
    51   24  149 1    
    52   25   26 2    
    53   25   27 1    
    54   27   28 1    
    55   27   29 1    
    56   27  150 1    
    57   28  151 1    
    58   28  152 1    
    59   28  153 1    
    60   29   30 am   BACKBONE|DICT|INTERRES
    61   29  154 1    
    62   30   31 2    
    63   30   32 1    
    64   32   33 1    
    65   32   34 1    
    66   32  155 1    
    67   33  156 1    
    68   33  157 1    
    69   33  158 1    
    70   34   35 am   BACKBONE|DICT|INTERRES
    71   34  159 1    
    72   35   36 2    
    73   35   37 1    
    74   37   38 1    
    75   37   39 1    
    76   37  160 1    
    77   38  161 1    
    78   38  162 1    
    79   38  163 1    
    80   39   40 am   BACKBONE|DICT|INTERRES
    81   39  164 1    
    82   40   41 2    
    83   40   42 1    
    84   42   43 1    
    85   42   44 1    
    86   42  165 1    
    87   43  166 1    
    88   43  167 1    
    89   43  168 1    
    90   44   45 am   BACKBONE|DICT|INTERRES
    91   44  169 1    
    92   45   46 2    
    93   45   47 1    
    94   47   48 1    
    95   47   49 1    
    96   47  170 1    
    97   48  171 1    
    98   48  172 1    
    99   48  173 1    
   100   49   50 am   BACKBONE|DICT|INTERRES
   101   49  174 1    
   102   50   51 2    
   103   50   52 1    
   104   52   53 1    
   105   52   54 1    
   106   52  175 1    
   107   53  176 1    
   108   53  177 1    
   109   53  178 1    
   110   54   55 am   BACKBONE|DICT|INTERRES
   111   54  179 1    
   112   55   56 2    
   113   55   57 1    
   114   57   58 1    
   115   57   59 1    
   116   57  180 1    
   117   58  181 1    
   118   58  182 1    
   119   58  183 1    
   120   59   60 am   BACKBONE|DICT|INTERRES
   121   59  184 1    
   122   60   61 2    
   123   60   62 1    
   124   62   63 1    
   125   62   64 1    
   126   62  185 1    
   127   63  186 1    
   128   63  187 1    
   129   63  188 1    
   130   64   65 am   BACKBONE|DICT|INTERRES
   131   64  189 1    
   132   65   66 2    
   133   67   68 2    
   134   67   69 am   BACKBONE|DICT|INTERRES
   135   69   70 1    
   136   69  190 1    
   137   70   71 1    
   138   70   72 1    
   139   70  191 1    
   140   71  192 1    
   141   71  193 1    
   142   71  194 1    
   143   72   73 2    
   144   72   74 am   BACKBONE|DICT|INTERRES
   145   74   75 1    
   146   74  195 1    
   147   75   76 1    
   148   75   77 1    
   149   75  196 1    
   150   76  197 1    
   151   76  198 1    
   152   76  199 1    
   153   77   78 2    
   154   77   79 am   BACKBONE|DICT|INTERRES
   155   79   80 1    
   156   79  200 1    
   157   80   81 1    
   158   80   82 1    
   159   80  201 1    
   160   81  202 1    
   161   81  203 1    
   162   81  204 1    
   163   82   83 2    
   164   82   84 am   BACKBONE|DICT|INTERRES
   165   84   85 1    
   166   84  205 1    
   167   85   86 1    
   168   85   87 1    
   169   85  206 1    
   170   86  207 1    
   171   86  208 1    
   172   86  209 1    
   173   87   88 2    
   174   87   89 am   BACKBONE|DICT|INTERRES
   175   89   90 1    
   176   89  210 1    
   177   90   91 1    
   178   90   92 1    
   179   90  211 1    
   180   91  212 1    
   181   91  213 1    
   182   91  214 1    
   183   92   93 2    
   184   92   94 am   BACKBONE|DICT|INTERRES
   185   94   95 1    
   186   94  215 1    
   187   95   96 1    
   188   95   97 1    
   189   95  216 1    
   190   96  217 1    
   191   96  218 1    
   192   96  219 1    
   193   97   98 2    
   194   97   99 am   BACKBONE|DICT|INTERRES
   195   99  100 1    
   196   99  220 1    
   197  100  101 1    
   198  100  102 1    
   199  100  221 1    
   200  101  222 1    
   201  101  223 1    
   202  101  224 1    
   203  102  103 2    
   204  102  104 am   BACKBONE|DICT|INTERRES
   205  104  105 1    
   206  104  225 1    
   207  105  106 1    
   208  105  107 1    
   209  105  226 1    
   210  106  227 1    
   211  106  228 1    
   212  106  229 1    
   213  107  108 2    
   214  107  109 am   BACKBONE|DICT|INTERRES
   215  109  110 1    
   216  109  230 1    
   217  110  111 1    
   218  110  112 1    
   219  110  231 1    
   220  111  232 1    
   221  111  233 1    
   222  111  234 1    
   223  112  113 2    
   224  112  114 am   BACKBONE|DICT|INTERRES
   225  114  115 1    
   226  114  235 1    
   227  115  116 1    
   228  115  117 1    
   229  115  236 1    
   230  116  237 1    
   231  116  238 1    
   232  116  239 1    
   233  117  118 2    
   234  117  119 am   BACKBONE|DICT|INTERRES
   235  119  120 1    
   236  119  240 1    
   237  120  121 1    
   238  120  124 1    
   239  120  241 1    
   240  121  122 am   BACKBONE|DICT|INTERRES
   241  121  123 2    
   242  122  242 1    
   243  122  243 1    
   244  124  125 1    
   245  124  244 1    
   246  124  245 1    
   247  125  126 1    
   248  126  246 1    
   249  126  247 1    
@<TRIPOS>SUBSTRUCTURE
     1 UNK         1 GROUP             0       ****    0 ROOT    
