@<TRIPOS>MOLECULE
3R540
247   249    1
SMALL
USER_CHARGES


@<TRIPOS>ATOM
      1 CA         -3.6482  -13.3161  -50.0652 C.3       0 UNK        -0.1800 
      2 C          -2.8201  -12.5146  -49.0727 C.2       0 UNK         0.5000 
      3 O          -3.1256  -11.3488  -48.8217 O.2       0 UNK        -0.5000 
      4 N          -1.7752  -13.1366  -48.5103 N.am      1 UNK        -0.5000 
      5 CA         -0.8712  -12.5303  -47.5247 C.3       1 UNK         0.1400 
      6 C6          0.3776  -13.4028  -47.2516 C.3       23 UNK        -0.0398 
      7 S7          1.4945  -13.5034  -48.6878 S.3       23 UNK        -0.2404 
      8 C8          1.3276  -15.2439  -49.1936 C.3       23 UNK        -0.0205 
      9 C9          0.1215  -15.4777  -50.0869 C.ar      23 UNK        -0.0193 
     10 C10         0.0865  -14.9158  -51.3642 C.ar      23 UNK        -0.1150 
     11 C11        -0.9881  -15.1583  -52.2229 C.ar      23 UNK        -0.0193 
     12 C12        -2.0370  -15.9747  -51.7889 C.ar      23 UNK        -0.1150 
     13 C13        -2.0260  -16.5248  -50.5025 C.ar      23 UNK        -0.0193 
     14 C14        -0.9438  -16.2711  -49.6551 C.ar      23 UNK        -0.1150 
     15 C15        -3.2039  -17.3565  -50.0186 C.3       23 UNK        -0.0205 
     16 S16        -2.9387  -19.1335  -50.2892 S.3       23 UNK        -0.2404 
     17 C17        -1.9761  -19.5828  -48.8125 C.3       23 UNK        -0.0398 
     18 CA         -1.7048  -21.1035  -48.6959 C.3       11 UNK         0.1400 
     19 N          -0.5201  -21.3547  -47.8683 N.am      11 UNK        -0.5000 
     20 C           0.0460  -22.5505  -47.6562 C.2       10 UNK         0.5000 
     21 O          -0.3343  -23.5903  -48.1861 O.2       10 UNK        -0.5000 
     22 CA          1.1873  -22.6023  -46.6254 C.3       10 UNK         0.1400 
     23 CB          2.5307  -22.2125  -47.2616 C.3       10 UNK        -0.1800 
     24 N           0.9076  -21.7425  -45.4742 N.am      10 UNK        -0.5000 
     25 C          -0.0233  -22.0067  -44.5447 C.2       9 UNK         0.5000 
     26 O          -0.6742  -23.0498  -44.5060 O.2       9 UNK        -0.5000 
     27 CA         -0.3057  -20.9036  -43.5088 C.3       9 UNK         0.1400 
     28 CB          0.6035  -21.0647  -42.2817 C.3       9 UNK        -0.1800 
     29 N          -0.1474  -19.5615  -44.0737 N.am      9 UNK        -0.5000 
     30 C          -1.0049  -19.0162  -44.9507 C.2       8 UNK         0.5000 
     31 O          -2.0283  -19.5812  -45.3342 O.2       8 UNK        -0.5000 
     32 CA         -0.6400  -17.6406  -45.5467 C.3       8 UNK         0.1400 
     33 CB         -1.2072  -16.5132  -44.6785 C.3       8 UNK        -0.1800 
     34 N           0.8008  -17.4435  -45.7097 N.am      8 UNK        -0.5000 
     35 C           1.5858  -18.2115  -46.4792 C.2       7 UNK         0.5000 
     36 O           1.1386  -19.0619  -47.2470 O.2       7 UNK        -0.5000 
     37 CA          3.1151  -18.0629  -46.3272 C.3       7 UNK         0.1400 
     38 CB          3.7244  -17.3369  -47.5353 C.3       7 UNK        -0.1800 
     39 N           3.5387  -17.3808  -45.1013 N.am      7 UNK        -0.5000 
     40 C           3.2721  -17.7725  -43.8464 C.2       6 UNK         0.5000 
     41 O           2.6690  -18.8103  -43.5755 O.2       6 UNK        -0.5000 
     42 CA          3.6976  -16.8258  -42.7067 C.3       6 UNK         0.1400 
     43 CB          4.9385  -17.3769  -41.9885 C.3       6 UNK        -0.1800 
     44 N           3.9686  -15.4513  -43.1424 N.am      6 UNK        -0.5000 
     45 C           3.0630  -14.5994  -43.6419 C.2       5 UNK         0.5000 
     46 O           1.8738  -14.8754  -43.8189 O.2       5 UNK        -0.5000 
     47 CA          3.6047  -13.2361  -44.0812 C.3       5 UNK         0.1400 
     48 CB          4.1347  -13.3112  -45.5259 C.3       5 UNK        -0.1800 
     49 N           2.5534  -12.2286  -43.9803 N.am      5 UNK        -0.5000 
     50 C           2.7782  -10.9129  -43.8799 C.2       4 UNK         0.5000 
     51 O           3.9063  -10.4175  -43.8585 O.2       4 UNK        -0.5000 
     52 CA          1.5579   -9.9775  -43.8021 C.3       4 UNK         0.1400 
     53 CB          1.2749   -9.3682  -45.1843 C.3       4 UNK        -0.1800 
     54 N           0.3393  -10.6066  -43.2815 N.am      4 UNK        -0.5000 
     55 C           0.1494  -10.9160  -41.9891 C.2       3 UNK         0.5000 
     56 O           1.0319  -10.8083  -41.1363 O.2       3 UNK        -0.5000 
     57 CA         -1.2540  -11.3806  -41.5456 C.3       3 UNK         0.1400 
     58 CB         -1.9295  -10.2947  -40.6921 C.3       3 UNK        -0.1800 
     59 N          -2.1438  -11.7079  -42.6598 N.am      3 UNK        -0.5000 
     60 C          -2.2032  -12.9028  -43.2585 C.2       2 UNK         0.5000 
     61 O          -1.5171  -13.8646  -42.9166 O.2       2 UNK        -0.5000 
     62 CA         -3.1728  -13.0536  -44.4531 C.3       2 UNK         0.1400 
     63 CB         -4.2783  -11.9753  -44.5053 C.3       2 UNK        -0.1800 
     64 N          -2.4551  -13.1108  -45.7313 N.am      2 UNK        -0.5000 
     65 C          -1.5796  -12.2051  -46.1943 C.2       1 UNK         0.5000 
     66 O          -1.3129  -11.1531  -45.6137 O.2       1 UNK        -0.5000 
     67 C          -2.9480  -21.8690  -48.1823 C.2       11 UNK         0.5000 
     68 O          -3.7084  -22.4221  -48.9758 O.2       11 UNK        -0.5000 
     69 N          -3.1131  -21.9063  -46.8537 N.am      12 UNK        -0.5000 
     70 CA         -4.1991  -22.5962  -46.1596 C.3       12 UNK         0.1400 
     71 CB         -4.3666  -21.9602  -44.7707 C.3       12 UNK        -0.1800 
     72 C          -4.0022  -24.1211  -46.0299 C.2       12 UNK         0.5000 
     73 O          -4.9338  -24.8000  -45.5921 O.2       12 UNK        -0.5000 
     74 N          -2.8189  -24.6468  -46.3787 N.am      13 UNK        -0.5000 
     75 CA         -2.4718  -26.0607  -46.2232 C.3       13 UNK         0.1400 
     76 CB         -0.9751  -26.2684  -46.4960 C.3       13 UNK        -0.1800 
     77 C          -3.3246  -26.9928  -47.1043 C.2       13 UNK         0.5000 
     78 O          -3.7831  -26.5939  -48.1803 O.2       13 UNK        -0.5000 
     79 N          -3.5200  -28.2226  -46.6060 N.am      14 UNK        -0.5000 
     80 CA         -4.3297  -29.2948  -47.1955 C.3       14 UNK         0.1400 
     81 CB         -3.6660  -29.8235  -48.4847 C.3       14 UNK        -0.1800 
     82 C          -5.8061  -28.8839  -47.3854 C.2       14 UNK         0.5000 
     83 O          -6.3993  -29.1732  -48.4237 O.2       14 UNK        -0.5000 
     84 N          -6.3556  -28.1791  -46.3828 N.am      15 UNK        -0.5000 
     85 CA         -7.6932  -27.5703  -46.3614 C.3       15 UNK         0.1400 
     86 CB         -8.7932  -28.6527  -46.3437 C.3       15 UNK        -0.1800 
     87 C          -7.8765  -26.5312  -47.4891 C.2       15 UNK         0.5000 
     88 O          -8.9015  -26.5206  -48.1728 O.2       15 UNK        -0.5000 
     89 N          -6.8461  -25.6924  -47.6645 N.am      16 UNK        -0.5000 
     90 CA         -6.6921  -24.6538  -48.6857 C.3       16 UNK         0.1400 
     91 CB         -7.7279  -23.5278  -48.4919 C.3       16 UNK        -0.1800 
     92 C          -6.6399  -25.1890  -50.1320 C.2       16 UNK         0.5000 
     93 O          -6.9387  -24.4452  -51.0665 O.2       16 UNK        -0.5000 
     94 N          -6.2276  -26.4523  -50.3128 N.am      17 UNK        -0.5000 
     95 CA         -5.9418  -27.0289  -51.6293 C.3       17 UNK         0.1400 
     96 CB         -5.9779  -28.5610  -51.5530 C.3       17 UNK        -0.1800 
     97 C          -4.5922  -26.5407  -52.1893 C.2       17 UNK         0.5000 
     98 O          -4.4197  -26.5067  -53.4074 O.2       17 UNK        -0.5000 
     99 N          -3.6762  -26.1297  -51.3010 N.am      18 UNK        -0.5000 
    100 CA        -2.3702  -25.5514  -51.6249 C.3       18 UNK         0.1400 
    101 CB        -1.3893  -25.9310  -50.5042 C.3       18 UNK        -0.1800 
    102 C         -2.4309  -24.0214  -51.8461 C.2       18 UNK         0.5000 
    103 O         -1.4414  -23.3314  -51.5961 O.2       18 UNK        -0.5000 
    104 N         -3.5882  -23.5141  -52.2951 N.am      19 UNK        -0.5000 
    105 CA        -3.8786  -22.0986  -52.5227 C.3       19 UNK         0.1400 
    106 CB        -5.3457  -21.9535  -52.9564 C.3       19 UNK        -0.1800 
    107 C         -2.9501  -21.4160  -53.5466 C.2       19 UNK         0.5000 
    108 O         -2.3909  -22.0806  -54.4224 O.2       19 UNK        -0.5000 
    109 N         -2.8534  -20.0851  -53.4207 N.am      20 UNK        -0.5000 
    110 CA        -1.9970  -19.1704  -54.1769 C.3       20 UNK         0.1400 
    111 CB        -2.3589  -19.1599  -55.6767 C.3       20 UNK        -0.1800 
    112 C         -0.5062  -19.4424  -53.9057 C.2       20 UNK         0.5000 
    113 O          0.2476  -19.7698  -54.8242 O.2       20 UNK        -0.5000 
    114 N         -0.1002  -19.2750  -52.6367 N.am      21 UNK        -0.5000 
    115 CA         1.2882  -19.4126  -52.1702 C.3       21 UNK         0.1400 
    116 CB         1.3281  -19.2924  -50.6398 C.3       21 UNK        -0.1800 
    117 C          2.2748  -18.4199  -52.8250 C.2       21 UNK         0.5000 
    118 O          3.4782  -18.6798  -52.8448 O.2       21 UNK        -0.5000 
    119 N          1.7391  -17.3298  -53.3858 N.am      22 UNK        -0.5000 
    120 CA         2.4025  -16.4193  -54.3289 C.3       22 UNK         0.1400 
    121 C          2.8391  -17.0608  -55.6825 C.2       22 UNK         0.5000 
    122 N          2.3368  -18.2253  -56.0770 N.am      22 UNK        -0.7600 
    123 O          3.6649  -16.4879  -56.3885 O.2       22 UNK        -0.5000 
    124 C124        1.5528  -15.1415  -54.5718 C.3       23 UNK        -0.0398 
    125 S125       -0.2227  -15.4750  -54.8925 S.3       23 UNK        -0.2404 
    126 C126       -1.0434  -14.4953  -53.5932 C.3       23 UNK        -0.0205 
    127 H127       -3.1911  -13.2799  -51.0539 H         1 UNK         0.0600 
    128 H128       -4.6570  -12.9098  -50.1396 H         1 UNK         0.0600 
    129 H129       -3.7306  -14.3570  -49.7552 H         1 UNK         0.0600 
    130 H130       -1.5399  -14.0719  -48.8113 H         1 UNK         0.3000 
    131 H131       -0.5310  -11.5779  -47.9378 H         1 UNK         0.0600 
    132 H132        0.0909  -14.4041  -46.9282 H         1 UNK         0.0800 
    133 H133        0.9644  -12.9817  -46.4330 H         1 UNK         0.0800 
    134 H134        1.2856  -15.8832  -48.3127 H         1 UNK         0.0800 
    135 H135        2.2254  -15.5360  -49.7403 H         1 UNK         0.0800 
    136 H136        0.8985  -14.2761  -51.6754 H         1 UNK         0.1150 
    137 H137       -2.8792  -16.1553  -52.4419 H         1 UNK         0.1150 
    138 H138       -0.9263  -16.6966  -48.6632 H         1 UNK         0.1150 
    139 H139       -3.3999  -17.1615  -48.9632 H         1 UNK         0.0800 
    140 H140       -4.1085  -17.0567  -50.5499 H         1 UNK         0.0800 
    141 H141       -2.4816  -19.2021  -47.9241 H         1 UNK         0.0800 
    142 H142       -1.0320  -19.0436  -48.8745 H         1 UNK         0.0800 
    143 H143       -1.4703  -21.4879  -49.6900 H         1 UNK         0.0600 
    144 H144       -0.0829  -20.5419  -47.4449 H         1 UNK         0.3000 
    145 H145        1.2714  -23.6314  -46.2697 H         1 UNK         0.0600 
    146 H146        3.3397  -22.2519  -46.5321 H         1 UNK         0.0600 
    147 H147        2.7874  -22.8996  -48.0687 H         1 UNK         0.0600 
    148 H148        2.5098  -21.2097  -47.6867 H         1 UNK         0.0600 
    149 H149        1.3811  -20.8520  -45.4423 H         1 UNK         0.3000 
    150 H150       -1.3402  -21.0138  -43.1765 H         1 UNK         0.0600 
    151 H151        0.4253  -22.0223  -41.7911 H         1 UNK         0.0600 
    152 H152        0.4183  -20.2821  -41.5458 H         1 UNK         0.0600 
    153 H153        1.6592  -21.0298  -42.5518 H         1 UNK         0.0600 
    154 H154        0.7100  -19.0719  -43.8379 H         1 UNK         0.3000 
    155 H155       -1.1023  -17.5766  -46.5322 H         1 UNK         0.0600 
    156 H156       -0.7787  -16.5250  -43.6753 H         1 UNK         0.0600 
    157 H157       -2.2895  -16.6000  -44.5759 H         1 UNK         0.0600 
    158 H158       -0.9976  -15.5371  -45.1130 H         1 UNK         0.0600 
    159 H159        1.2346  -16.7592  -45.1028 H         1 UNK         0.3000 
    160 H160        3.5231  -19.0752  -46.2994 H         1 UNK         0.0600 
    161 H161        3.4875  -16.2730  -47.5275 H         1 UNK         0.0600 
    162 H162        3.3609  -17.7541  -48.4757 H         1 UNK         0.0600 
    163 H163        4.8103  -17.4322  -47.5398 H         1 UNK         0.0600 
    164 H164        4.0426  -16.5155  -45.2224 H         1 UNK         0.3000 
    165 H165        2.8732  -16.7935  -41.9912 H         1 UNK         0.0600 
    166 H166        5.2005  -16.7640  -41.1259 H         1 UNK         0.0600 
    167 H167        4.7617  -18.3895  -41.6229 H         1 UNK         0.0600 
    168 H168        5.8040  -17.4138  -42.6512 H         1 UNK         0.0600 
    169 H169        4.9257  -15.1415  -43.0501 H         1 UNK         0.3000 
    170 H170        4.4218  -12.9633  -43.4097 H         1 UNK         0.0600 
    171 H171        4.9433  -14.0380  -45.6107 H         1 UNK         0.0600 
    172 H172        3.3538  -13.6086  -46.2257 H         1 UNK         0.0600 
    173 H173        4.5312  -12.3515  -45.8575 H         1 UNK         0.0600 
    174 H174        1.6090  -12.5891  -43.9337 H         1 UNK         0.3000 
    175 H175        1.8207   -9.1585  -43.1290 H         1 UNK         0.0600 
    176 H176        1.0971  -10.1379  -45.9357 H         1 UNK         0.0600 
    177 H177        0.4049   -8.7116  -45.1600 H         1 UNK         0.0600 
    178 H178        2.1221   -8.7726  -45.5265 H         1 UNK         0.0600 
    179 H179       -0.4148  -10.7485  -43.9480 H         1 UNK         0.3000 
    180 H180       -1.1199  -12.2646  -40.9185 H         1 UNK         0.0600 
    181 H181       -2.8983  -10.6303  -40.3216 H         1 UNK         0.0600 
    182 H182       -2.0861   -9.3763  -41.2594 H         1 UNK         0.0600 
    183 H183       -1.3212  -10.0434  -39.8222 H         1 UNK         0.0600 
    184 H184       -2.7126  -10.9569  -43.0234 H         1 UNK         0.3000 
    185 H185       -3.6628  -14.0202  -44.3265 H         1 UNK         0.0600 
    186 H186       -4.9951  -12.1960  -45.2963 H         1 UNK         0.0600 
    187 H187       -4.8364  -11.9386  -43.5688 H         1 UNK         0.0600 
    188 H188       -3.8804  -10.9783  -44.6963 H         1 UNK         0.0600 
    189 H189       -2.6139  -13.9399  -46.2845 H         1 UNK         0.3000 
    190 H190       -2.4766  -21.3733  -46.2715 H         1 UNK         0.3000 
    191 H191       -5.1243  -22.4364  -46.7168 H         1 UNK         0.0600 
    192 H192       -5.2009  -22.4082  -44.2295 H         1 UNK         0.0600 
    193 H193       -4.5675  -20.8914  -44.8476 H         1 UNK         0.0600 
    194 H194       -3.4713  -22.0895  -44.1615 H         1 UNK         0.0600 
    195 H195       -2.1087  -24.0445  -46.7728 H         1 UNK         0.3000 
    196 H196       -2.6578  -26.3169  -45.1781 H         1 UNK         0.0600 
    197 H197       -0.7251  -26.0977  -47.5420 H         1 UNK         0.0600 
    198 H198       -0.3655  -25.5985  -45.8895 H         1 UNK         0.0600 
    199 H199       -0.6730  -27.2882  -46.2555 H         1 UNK         0.0600 
    200 H200       -3.0961  -28.4474  -45.7164 H         1 UNK         0.3000 
    201 H201       -4.3388  -30.1129  -46.4739 H         1 UNK         0.0600 
    202 H202       -3.5827  -29.0493  -49.2468 H         1 UNK         0.0600 
    203 H203       -4.2345  -30.6498  -48.9129 H         1 UNK         0.0600 
    204 H204       -2.6616  -30.1947  -48.2817 H         1 UNK         0.0600 
    205 H205       -5.7741  -27.9754  -45.5819 H         1 UNK         0.3000 
    206 H206       -7.7641  -27.0160  -45.4244 H         1 UNK         0.0600 
    207 H207       -8.6379  -29.3590  -45.5282 H         1 UNK         0.0600 
    208 H208       -9.7774  -28.2051  -46.2015 H         1 UNK         0.0600 
    209 H209       -8.8244  -29.2178  -47.2756 H         1 UNK         0.0600 
    210 H210       -6.0608  -25.7739  -47.0273 H         1 UNK         0.3000 
    211 H211       -5.7078  -24.2192  -48.5125 H         1 UNK         0.0600 
    212 H212       -7.5098  -22.6803  -49.1429 H         1 UNK         0.0600 
    213 H213       -7.7190  -23.1569  -47.4670 H         1 UNK         0.0600 
    214 H214       -8.7394  -23.8643  -48.7204 H         1 UNK         0.0600 
    215 H215       -6.0076  -27.0181  -49.5032 H         1 UNK         0.3000 
    216 H216       -6.7222  -26.7145  -52.3256 H         1 UNK         0.0600 
    217 H217       -5.1977  -28.9514  -50.9015 H         1 UNK         0.0600 
    218 H218       -5.8312  -29.0034  -52.5390 H         1 UNK         0.0600 
    219 H219       -6.9382  -28.9148  -51.1774 H         1 UNK         0.0600 
    220 H220       -3.9002  -26.1830  -50.3130 H         1 UNK         0.3000 
    221 H221       -2.0025  -25.9935  -52.5529 H         1 UNK         0.0600 
    222 H222       -1.3615  -27.0091  -50.3451 H         1 UNK         0.0600 
    223 H223       -1.6773  -25.4599  -49.5647 H         1 UNK         0.0600 
    224 H224       -0.3737  -25.6084  -50.7361 H         1 UNK         0.0600 
    225 H225       -4.3370  -24.1596  -52.4962 H         1 UNK         0.3000 
    226 H226       -3.7532  -21.5948  -51.5644 H         1 UNK         0.0600 
    227 H227       -5.5610  -22.5399  -53.8505 H         1 UNK         0.0600 
    228 H228       -6.0218  -22.2782  -52.1669 H         1 UNK         0.0600 
    229 H229       -5.5946  -20.9147  -53.1772 H         1 UNK         0.0600 
    230 H230       -3.3521  -19.6565  -52.6520 H         1 UNK         0.3000 
    231 H231       -2.2019  -18.1700  -53.7939 H         1 UNK         0.0600 
    232 H232       -2.1423  -20.1125  -56.1604 H         1 UNK         0.0600 
    233 H233       -1.7906  -18.3925  -56.2039 H         1 UNK         0.0600 
    234 H234       -3.4161  -18.9406  -55.8252 H         1 UNK         0.0600 
    235 H235       -0.7833  -19.0165  -51.9389 H         1 UNK         0.3000 
    236 H236        1.6237  -20.4164  -52.4380 H         1 UNK         0.0600 
    237 H237        0.7408  -20.0804  -50.1704 H         1 UNK         0.0600 
    238 H238        2.3471  -19.3893  -50.2633 H         1 UNK         0.0600 
    239 H239        0.9450  -18.3314  -50.2987 H         1 UNK         0.0600 
    240 H240        0.7423  -17.1960  -53.3000 H         1 UNK         0.3000 
    241 H241        3.3308  -16.1027  -53.8500 H         1 UNK         0.0600 
    242 H242        2.6409  -18.6182  -56.9532 H         1 UNK         0.3800 
    243 H243        1.6345  -18.7169  -55.5303 H         1 UNK         0.3800 
    244 H244        1.9476  -14.5574  -55.4051 H         1 UNK         0.0800 
    245 H245        1.6503  -14.4824  -53.7124 H         1 UNK         0.0800 
    246 H246       -2.0846  -14.3448  -53.8821 H         1 UNK         0.0800 
    247 H247       -0.6017  -13.4986  -53.5487 H         1 UNK         0.0800 
@<TRIPOS>BOND
     1    1    2 1    
     2    1  127 1    
     3    1  128 1    
     4    1  129 1    
     5    2    3 2    
     6    2    4 am   BACKBONE|DICT|INTERRES
     7    4    5 1    
     8    4  130 1    
     9    5    6 1    
    10    5   65 1    
    11    5  131 1    
    12    6    7 1    
    13    6  132 1    
    14    6  133 1    
    15    7    8 1    
    16    8    9 1    
    17    8  134 1    
    18    8  135 1    
    19    9   10 ar   
    20    9   14 ar   
    21   10   11 ar   
    22   10  136 1    
    23   11   12 ar   
    24   11  126 1    
    25   12   13 ar   
    26   12  137 1    
    27   13   14 ar   
    28   13   15 1    
    29   14  138 1    
    30   15   16 1    
    31   15  139 1    
    32   15  140 1    
    33   16   17 1    
    34   17   18 1    
    35   17  141 1    
    36   17  142 1    
    37   18   19 1    
    38   18   67 1    
    39   18  143 1    
    40   19   20 am   BACKBONE|DICT|INTERRES
    41   19  144 1    
    42   20   21 2    
    43   20   22 1    
    44   22   23 1    
    45   22   24 1    
    46   22  145 1    
    47   23  146 1    
    48   23  147 1    
    49   23  148 1    
    50   24   25 am   BACKBONE|DICT|INTERRES
    51   24  149 1    
    52   25   26 2    
    53   25   27 1    
    54   27   28 1    
    55   27   29 1    
    56   27  150 1    
    57   28  151 1    
    58   28  152 1    
    59   28  153 1    
    60   29   30 am   BACKBONE|DICT|INTERRES
    61   29  154 1    
    62   30   31 2    
    63   30   32 1    
    64   32   33 1    
    65   32   34 1    
    66   32  155 1    
    67   33  156 1    
    68   33  157 1    
    69   33  158 1    
    70   34   35 am   BACKBONE|DICT|INTERRES
    71   34  159 1    
    72   35   36 2    
    73   35   37 1    
    74   37   38 1    
    75   37   39 1    
    76   37  160 1    
    77   38  161 1    
    78   38  162 1    
    79   38  163 1    
    80   39   40 am   BACKBONE|DICT|INTERRES
    81   39  164 1    
    82   40   41 2    
    83   40   42 1    
    84   42   43 1    
    85   42   44 1    
    86   42  165 1    
    87   43  166 1    
    88   43  167 1    
    89   43  168 1    
    90   44   45 am   BACKBONE|DICT|INTERRES
    91   44  169 1    
    92   45   46 2    
    93   45   47 1    
    94   47   48 1    
    95   47   49 1    
    96   47  170 1    
    97   48  171 1    
    98   48  172 1    
    99   48  173 1    
   100   49   50 am   BACKBONE|DICT|INTERRES
   101   49  174 1    
   102   50   51 2    
   103   50   52 1    
   104   52   53 1    
   105   52   54 1    
   106   52  175 1    
   107   53  176 1    
   108   53  177 1    
   109   53  178 1    
   110   54   55 am   BACKBONE|DICT|INTERRES
   111   54  179 1    
   112   55   56 2    
   113   55   57 1    
   114   57   58 1    
   115   57   59 1    
   116   57  180 1    
   117   58  181 1    
   118   58  182 1    
   119   58  183 1    
   120   59   60 am   BACKBONE|DICT|INTERRES
   121   59  184 1    
   122   60   61 2    
   123   60   62 1    
   124   62   63 1    
   125   62   64 1    
   126   62  185 1    
   127   63  186 1    
   128   63  187 1    
   129   63  188 1    
   130   64   65 am   BACKBONE|DICT|INTERRES
   131   64  189 1    
   132   65   66 2    
   133   67   68 2    
   134   67   69 am   BACKBONE|DICT|INTERRES
   135   69   70 1    
   136   69  190 1    
   137   70   71 1    
   138   70   72 1    
   139   70  191 1    
   140   71  192 1    
   141   71  193 1    
   142   71  194 1    
   143   72   73 2    
   144   72   74 am   BACKBONE|DICT|INTERRES
   145   74   75 1    
   146   74  195 1    
   147   75   76 1    
   148   75   77 1    
   149   75  196 1    
   150   76  197 1    
   151   76  198 1    
   152   76  199 1    
   153   77   78 2    
   154   77   79 am   BACKBONE|DICT|INTERRES
   155   79   80 1    
   156   79  200 1    
   157   80   81 1    
   158   80   82 1    
   159   80  201 1    
   160   81  202 1    
   161   81  203 1    
   162   81  204 1    
   163   82   83 2    
   164   82   84 am   BACKBONE|DICT|INTERRES
   165   84   85 1    
   166   84  205 1    
   167   85   86 1    
   168   85   87 1    
   169   85  206 1    
   170   86  207 1    
   171   86  208 1    
   172   86  209 1    
   173   87   88 2    
   174   87   89 am   BACKBONE|DICT|INTERRES
   175   89   90 1    
   176   89  210 1    
   177   90   91 1    
   178   90   92 1    
   179   90  211 1    
   180   91  212 1    
   181   91  213 1    
   182   91  214 1    
   183   92   93 2    
   184   92   94 am   BACKBONE|DICT|INTERRES
   185   94   95 1    
   186   94  215 1    
   187   95   96 1    
   188   95   97 1    
   189   95  216 1    
   190   96  217 1    
   191   96  218 1    
   192   96  219 1    
   193   97   98 2    
   194   97   99 am   BACKBONE|DICT|INTERRES
   195   99  100 1    
   196   99  220 1    
   197  100  101 1    
   198  100  102 1    
   199  100  221 1    
   200  101  222 1    
   201  101  223 1    
   202  101  224 1    
   203  102  103 2    
   204  102  104 am   BACKBONE|DICT|INTERRES
   205  104  105 1    
   206  104  225 1    
   207  105  106 1    
   208  105  107 1    
   209  105  226 1    
   210  106  227 1    
   211  106  228 1    
   212  106  229 1    
   213  107  108 2    
   214  107  109 am   BACKBONE|DICT|INTERRES
   215  109  110 1    
   216  109  230 1    
   217  110  111 1    
   218  110  112 1    
   219  110  231 1    
   220  111  232 1    
   221  111  233 1    
   222  111  234 1    
   223  112  113 2    
   224  112  114 am   BACKBONE|DICT|INTERRES
   225  114  115 1    
   226  114  235 1    
   227  115  116 1    
   228  115  117 1    
   229  115  236 1    
   230  116  237 1    
   231  116  238 1    
   232  116  239 1    
   233  117  118 2    
   234  117  119 am   BACKBONE|DICT|INTERRES
   235  119  120 1    
   236  119  240 1    
   237  120  121 1    
   238  120  124 1    
   239  120  241 1    
   240  121  122 am   BACKBONE|DICT|INTERRES
   241  121  123 2    
   242  122  242 1    
   243  122  243 1    
   244  124  125 1    
   245  124  244 1    
   246  124  245 1    
   247  125  126 1    
   248  126  246 1    
   249  126  247 1    
@<TRIPOS>SUBSTRUCTURE
     1 UNK         1 GROUP             0       ****    0 ROOT    
