@<TRIPOS>MOLECULE
3R540
247   249    1
SMALL
USER_CHARGES


@<TRIPOS>ATOM
      1 CA         -5.0232  -15.7960  -46.1230 C.3       0 UNK        -0.1800 
      2 C          -3.7158  -15.3455  -46.7579 C.2       0 UNK         0.5000 
      3 O          -2.6751  -15.3756  -46.1013 O.2       0 UNK        -0.5000 
      4 N          -3.7703  -14.9107  -48.0260 N.am      1 UNK        -0.5000 
      5 CA         -2.6334  -14.5463  -48.8946 C.3       1 UNK         0.1400 
      6 C6         -1.7029  -15.7528  -49.2114 C.3       23 UNK        -0.0398 
      7 S7         -2.5857  -17.1635  -49.9667 S.3       23 UNK        -0.2404 
      8 C8         -1.7057  -17.3609  -51.5551 C.3       23 UNK        -0.0205 
      9 C9         -0.2582  -17.8512  -51.4822 C.ar      23 UNK        -0.0193 
     10 C10         0.5147  -17.7835  -52.6449 C.ar      23 UNK        -0.1150 
     11 C11         1.8402  -18.2250  -52.6550 C.ar      23 UNK        -0.0193 
     12 C12         2.4031  -18.7363  -51.4833 C.ar      23 UNK        -0.1150 
     13 C13         1.6461  -18.8161  -50.3124 C.ar      23 UNK        -0.0193 
     14 C14         0.3194  -18.3759  -50.3183 C.ar      23 UNK        -0.1150 
     15 C15         2.2635  -19.3624  -49.0355 C.3       23 UNK        -0.0205 
     16 S16         2.5182  -21.1628  -49.1350 S.3       23 UNK        -0.2404 
     17 C17         2.3617  -21.6263  -47.3730 C.3       23 UNK        -0.0398 
     18 CA          1.0252  -22.3069  -46.9638 C.3       11 UNK         0.1400 
     19 N           0.8767  -22.3540  -45.5070 N.am      11 UNK        -0.5000 
     20 C          -0.0125  -23.1137  -44.8522 C.2       10 UNK         0.5000 
     21 O          -0.7445  -23.9365  -45.4034 O.2       10 UNK        -0.5000 
     22 CA         -0.1436  -22.8642  -43.3363 C.3       10 UNK         0.1400 
     23 CB          0.9301  -23.6374  -42.5571 C.3       10 UNK        -0.1800 
     24 N          -0.0632  -21.4403  -42.9997 N.am      10 UNK        -0.5000 
     25 C          -0.9664  -20.5252  -43.3798 C.2       9 UNK         0.5000 
     26 O          -2.0098  -20.8099  -43.9643 O.2       9 UNK        -0.5000 
     27 CA         -0.6298  -19.0455  -43.1176 C.3       9 UNK         0.1400 
     28 CB         -1.1478  -18.6008  -41.7437 C.3       9 UNK        -0.1800 
     29 N           0.8012  -18.7620  -43.2284 N.am      9 UNK        -0.5000 
     30 C           1.5127  -18.8436  -44.3607 C.2       8 UNK         0.5000 
     31 O           1.0206  -19.1401  -45.4469 O.2       8 UNK        -0.5000 
     32 CA          3.0294  -18.6025  -44.2629 C.3       8 UNK         0.1400 
     33 CB          3.3879  -17.1215  -44.4462 C.3       8 UNK        -0.1800 
     34 N           3.5743  -19.0818  -42.9959 N.am      8 UNK        -0.5000 
     35 C           3.7940  -20.3719  -42.7139 C.2       7 UNK         0.5000 
     36 O           3.6145  -21.2872  -43.5183 O.2       7 UNK        -0.5000 
     37 CA          4.2553  -20.6874  -41.2788 C.3       7 UNK         0.1400 
     38 CB          5.7745  -20.5043  -41.1447 C.3       7 UNK        -0.1800 
     39 N           3.5762  -19.8640  -40.2742 N.am      7 UNK        -0.5000 
     40 C           2.2707  -19.9577  -39.9857 C.2       6 UNK         0.5000 
     41 O           1.5096  -20.7574  -40.5308 O.2       6 UNK        -0.5000 
     42 CA          1.7128  -18.9742  -38.9373 C.3       6 UNK         0.1400 
     43 CB          1.9198  -19.5311  -37.5208 C.3       6 UNK        -0.1800 
     44 N           2.2601  -17.6135  -39.0053 N.am      6 UNK        -0.5000 
     45 C           2.2453  -16.8169  -40.0828 C.2       5 UNK         0.5000 
     46 O           1.8826  -17.1840  -41.2005 O.2       5 UNK        -0.5000 
     47 CA          2.7723  -15.3850  -39.8861 C.3       5 UNK         0.1400 
     48 CB          4.3080  -15.3768  -39.9445 C.3       5 UNK        -0.1800 
     49 N           2.2657  -14.4615  -40.9036 N.am      5 UNK        -0.5000 
     50 C           1.0064  -14.0062  -40.9997 C.2       4 UNK         0.5000 
     51 O           0.1137  -14.3031  -40.2053 O.2       4 UNK        -0.5000 
     52 CA          0.6932  -13.0360  -42.1629 C.3       4 UNK         0.1400 
     53 CB          0.4430  -11.6193  -41.6228 C.3       4 UNK        -0.1800 
     54 N           1.8036  -12.9734  -43.1163 N.am      4 UNK        -0.5000 
     55 C           1.9429  -13.6090  -44.2889 C.2       3 UNK         0.5000 
     56 O           3.0335  -13.6264  -44.8569 O.2       3 UNK        -0.5000 
     57 CA          0.7414  -14.2859  -44.9965 C.3       3 UNK         0.1400 
     58 CB          0.1758  -15.5060  -44.2433 C.3       3 UNK        -0.1800 
     59 N          -0.3583  -13.4124  -45.4221 N.am      3 UNK        -0.5000 
     60 C          -0.2853  -12.1745  -45.9429 C.2       2 UNK         0.5000 
     61 O           0.7424  -11.4985  -46.0082 O.2       2 UNK        -0.5000 
     62 CA         -1.6017  -11.6280  -46.5440 C.3       2 UNK         0.1400 
     63 CB         -1.4142  -10.3263  -47.3513 C.3       2 UNK        -0.1800 
     64 N          -2.2997  -12.6418  -47.3448 N.am      2 UNK        -0.5000 
     65 C          -1.8131  -13.3294  -48.3922 C.2       1 UNK         0.5000 
     66 O          -0.7518  -13.0495  -48.9516 O.2       1 UNK        -0.5000 
     67 C          -0.2374  -21.7000  -47.6212 C.2       11 UNK         0.5000 
     68 O          -0.7330  -22.2560  -48.5993 O.2       11 UNK        -0.5000 
     69 N          -0.7697  -20.6105  -47.0504 N.am      12 UNK        -0.5000 
     70 CA         -1.9999  -19.9573  -47.5000 C.3       12 UNK         0.1400 
     71 CB         -2.2186  -18.6578  -46.7196 C.3       12 UNK        -0.1800 
     72 C          -3.2443  -20.8542  -47.4060 C.2       12 UNK         0.5000 
     73 O          -4.0967  -20.7910  -48.2904 O.2       12 UNK        -0.5000 
     74 N          -3.3150  -21.6918  -46.3632 N.am      13 UNK        -0.5000 
     75 CA         -4.3443  -22.7147  -46.1899 C.3       13 UNK         0.1400 
     76 CB         -4.2530  -23.3105  -44.7774 C.3       13 UNK        -0.1800 
     77 C          -4.2564  -23.8140  -47.2639 C.2       13 UNK         0.5000 
     78 O          -5.2870  -24.1997  -47.8154 O.2       13 UNK        -0.5000 
     79 N          -3.0319  -24.2597  -47.5836 N.am      14 UNK        -0.5000 
     80 CA         -2.7538  -25.2087  -48.6668 C.3       14 UNK         0.1400 
     81 CB         -1.2975  -25.6895  -48.5741 C.3       14 UNK        -0.1800 
     82 C          -3.0615  -24.6244  -50.0610 C.2       14 UNK         0.5000 
     83 O          -3.5994  -25.3323  -50.9124 O.2       14 UNK        -0.5000 
     84 N          -2.7700  -23.3298  -50.2442 N.am      15 UNK        -0.5000 
     85 CA         -3.1108  -22.5353  -51.4267 C.3       15 UNK         0.1400 
     86 CB         -2.1815  -21.3110  -51.4935 C.3       15 UNK        -0.1800 
     87 C          -4.5906  -22.1001  -51.4729 C.2       15 UNK         0.5000 
     88 O          -4.9836  -21.4189  -52.4206 O.2       15 UNK        -0.5000 
     89 N          -5.3843  -22.4718  -50.4567 N.am      16 UNK        -0.5000 
     90 CA         -6.8161  -22.2052  -50.2979 C.3       16 UNK         0.1400 
     91 CB         -7.6190  -23.0689  -51.2920 C.3       16 UNK        -0.1800 
     92 C          -7.1651  -20.7031  -50.3712 C.2       16 UNK         0.5000 
     93 O          -8.1475  -20.3271  -51.0107 O.2       16 UNK        -0.5000 
     94 N          -6.3201  -19.8684  -49.7476 N.am      17 UNK        -0.5000 
     95 CA         -6.3585  -18.4018  -49.7585 C.3       17 UNK         0.1400 
     96 CB         -7.5727  -17.8782  -48.9645 C.3       17 UNK        -0.1800 
     97 C          -6.2590  -17.8161  -51.1853 C.2       17 UNK         0.5000 
     98 O          -6.9791  -16.8759  -51.5245 O.2       17 UNK        -0.5000 
     99 N          -5.3615  -18.4072  -51.9872 N.am      18 UNK        -0.5000 
    100 CA        -5.0370  -18.0906  -53.3825 C.3       18 UNK         0.1400 
    101 CB        -4.6924  -16.5970  -53.5724 C.3       18 UNK        -0.1800 
    102 C         -6.0786  -18.5874  -54.4046 C.2       18 UNK         0.5000 
    103 O         -6.0050  -18.1970  -55.5715 O.2       18 UNK        -0.5000 
    104 N         -7.0065  -19.4602  -53.9852 N.am      19 UNK        -0.5000 
    105 CA        -7.9175  -20.1681  -54.8894 C.3       19 UNK         0.1400 
    106 CB        -9.1485  -20.6549  -54.1118 C.3       19 UNK        -0.1800 
    107 C         -7.2265  -21.3397  -55.6180 C.2       19 UNK         0.5000 
    108 O         -7.6950  -21.7446  -56.6830 O.2       19 UNK        -0.5000 
    109 N         -6.1277  -21.8488  -55.0480 N.am      20 UNK        -0.5000 
    110 CA        -5.2398  -22.8495  -55.6304 C.3       20 UNK         0.1400 
    111 CB        -5.2807  -24.1135  -54.7525 C.3       20 UNK        -0.1800 
    112 C         -3.8133  -22.2754  -55.7334 C.2       20 UNK         0.5000 
    113 O         -3.5607  -21.1426  -55.3127 O.2       20 UNK        -0.5000 
    114 N         -2.9039  -23.0657  -56.3168 N.am      21 UNK        -0.5000 
    115 CA        -1.4849  -22.7380  -56.4698 C.3       21 UNK         0.1400 
    116 CB        -0.8439  -23.7664  -57.4158 C.3       21 UNK        -0.1800 
    117 C         -0.7322  -22.7005  -55.1239 C.2       21 UNK         0.5000 
    118 O         -1.1570  -23.3451  -54.1635 O.2       21 UNK        -0.5000 
    119 N          0.3837  -21.9612  -55.1069 N.am      22 UNK        -0.5000 
    120 CA         1.2970  -21.7539  -53.9689 C.3       22 UNK         0.1400 
    121 C          1.7695  -23.0704  -53.2872 C.2       22 UNK         0.5000 
    122 N          1.8187  -23.1132  -51.9631 N.am      22 UNK        -0.7600 
    123 O          2.1446  -24.0335  -53.9530 O.2       22 UNK        -0.5000 
    124 C124        2.5381  -20.9294  -54.4026 C.3       23 UNK        -0.0398 
    125 S125        2.1122  -19.3342  -55.1858 S.3       23 UNK        -0.2404 
    126 C126        2.6634  -18.1362  -53.9306 C.3       23 UNK        -0.0205 
    127 H127       -4.9371  -16.8288  -45.7856 H         1 UNK         0.0600 
    128 H128       -5.8568  -15.7364  -46.8233 H         1 UNK         0.0600 
    129 H129       -5.2556  -15.1725  -45.2599 H         1 UNK         0.0600 
    130 H130       -4.6695  -14.8829  -48.4854 H         1 UNK         0.3000 
    131 H131       -3.0760  -14.2220  -49.8376 H         1 UNK         0.0600 
    132 H132       -0.9000  -15.4511  -49.8859 H         1 UNK         0.0800 
    133 H133       -1.2101  -16.1041  -48.3040 H         1 UNK         0.0800 
    134 H134       -2.2654  -18.0732  -52.1606 H         1 UNK         0.0800 
    135 H135       -1.7366  -16.4089  -52.0868 H         1 UNK         0.0800 
    136 H136        0.0818  -17.3892  -53.5539 H         1 UNK         0.1150 
    137 H137        3.4293  -19.0763  -51.4790 H         1 UNK         0.1150 
    138 H138       -0.2506  -18.4391  -49.4056 H         1 UNK         0.1150 
    139 H139        3.2196  -18.8722  -48.8475 H         1 UNK         0.0800 
    140 H140        1.6234  -19.1217  -48.1852 H         1 UNK         0.0800 
    141 H141        2.5413  -20.7404  -46.7660 H         1 UNK         0.0800 
    142 H142        3.1870  -22.2988  -47.1357 H         1 UNK         0.0800 
    143 H143        1.0797  -23.3398  -47.3148 H         1 UNK         0.0600 
    144 H144        1.4291  -21.6978  -44.9730 H         1 UNK         0.3000 
    145 H145       -1.1231  -23.2305  -43.0219 H         1 UNK         0.0600 
    146 H146        0.8066  -23.5065  -41.4819 H         1 UNK         0.0600 
    147 H147        0.8688  -24.7063  -42.7649 H         1 UNK         0.0600 
    148 H148        1.9359  -23.3086  -42.8195 H         1 UNK         0.0600 
    149 H149        0.7302  -21.1394  -42.4446 H         1 UNK         0.3000 
    150 H150       -1.1382  -18.4440  -43.8718 H         1 UNK         0.0600 
    151 H151       -2.2326  -18.6980  -41.6895 H         1 UNK         0.0600 
    152 H152       -0.9034  -17.5568  -41.5456 H         1 UNK         0.0600 
    153 H153       -0.7269  -19.2062  -40.9427 H         1 UNK         0.0600 
    154 H154        1.2634  -18.4167  -42.3904 H         1 UNK         0.3000 
    155 H155        3.4979  -19.1568  -45.0788 H         1 UNK         0.0600 
    156 H156        2.8995  -16.7026  -45.3270 H         1 UNK         0.0600 
    157 H157        3.0973  -16.5226  -43.5838 H         1 UNK         0.0600 
    158 H158        4.4620  -16.9962  -44.5828 H         1 UNK         0.0600 
    159 H159        3.6790  -18.3988  -42.2593 H         1 UNK         0.3000 
    160 H160        4.0188  -21.7346  -41.0777 H         1 UNK         0.0600 
    161 H161        6.0730  -19.4682  -41.3090 H         1 UNK         0.0600 
    162 H162        6.3070  -21.1189  -41.8718 H         1 UNK         0.0600 
    163 H163        6.1211  -20.8009  -40.1546 H         1 UNK         0.0600 
    164 H164        4.1329  -19.1794  -39.7841 H         1 UNK         0.3000 
    165 H165        0.6385  -18.8933  -39.1072 H         1 UNK         0.0600 
    166 H166        1.4248  -18.9088  -36.7751 H         1 UNK         0.0600 
    167 H167        1.5034  -20.5355  -37.4305 H         1 UNK         0.0600 
    168 H168        2.9777  -19.5899  -37.2615 H         1 UNK         0.0600 
    169 H169        2.6060  -17.2360  -38.1349 H         1 UNK         0.3000 
    170 H170        2.4513  -15.0273  -38.9057 H         1 UNK         0.0600 
    171 H171        4.6760  -15.7256  -40.9105 H         1 UNK         0.0600 
    172 H172        4.7035  -14.3747  -39.7772 H         1 UNK         0.0600 
    173 H173        4.7361  -16.0234  -39.1774 H         1 UNK         0.0600 
    174 H174        2.9171  -14.2031  -41.6285 H         1 UNK         0.3000 
    175 H175       -0.2264  -13.3622  -42.6439 H         1 UNK         0.0600 
    176 H176        0.2016  -10.9284  -42.4310 H         1 UNK         0.0600 
    177 H177        1.3136  -11.2276  -41.0952 H         1 UNK         0.0600 
    178 H178       -0.3962  -11.6081  -40.9260 H         1 UNK         0.0600 
    179 H179        2.6052  -12.4598  -42.7818 H         1 UNK         0.3000 
    180 H180        1.1558  -14.6794  -45.9269 H         1 UNK         0.0600 
    181 H181       -0.7147  -15.2679  -43.6628 H         1 UNK         0.0600 
    182 H182        0.9003  -15.9350  -43.5537 H         1 UNK         0.0600 
    183 H183       -0.1106  -16.2888  -44.9463 H         1 UNK         0.0600 
    184 H184       -1.2568  -13.8787  -45.4816 H         1 UNK         0.3000 
    185 H185       -2.2511  -11.3996  -45.6977 H         1 UNK         0.0600 
    186 H186       -1.0041   -9.5341  -46.7239 H         1 UNK         0.0600 
    187 H187       -0.7330  -10.4627  -48.1916 H         1 UNK         0.0600 
    188 H188       -2.3648   -9.9673  -47.7456 H         1 UNK         0.0600 
    189 H189       -3.1810  -12.9614  -46.9685 H         1 UNK         0.3000 
    190 H190       -0.2637  -20.1631  -46.2902 H         1 UNK         0.3000 
    191 H191       -1.8677  -19.7066  -48.5516 H         1 UNK         0.0600 
    192 H192       -1.3410  -18.0123  -46.7553 H         1 UNK         0.0600 
    193 H193       -3.0539  -18.1037  -47.1449 H         1 UNK         0.0600 
    194 H194       -2.4625  -18.8455  -45.6760 H         1 UNK         0.0600 
    195 H195       -2.6229  -21.6049  -45.6250 H         1 UNK         0.3000 
    196 H196       -5.3173  -22.2290  -46.2893 H         1 UNK         0.0600 
    197 H197       -5.0374  -24.0509  -44.6154 H         1 UNK         0.0600 
    198 H198       -4.3712  -22.5387  -44.0166 H         1 UNK         0.0600 
    199 H199       -3.2963  -23.8034  -44.6059 H         1 UNK         0.0600 
    200 H200       -2.2331  -23.9006  -47.0743 H         1 UNK         0.3000 
    201 H201       -3.4021  -26.0754  -48.5223 H         1 UNK         0.0600 
    202 H202       -1.0910  -26.1369  -47.6016 H         1 UNK         0.0600 
    203 H203       -0.5893  -24.8750  -48.7236 H         1 UNK         0.0600 
    204 H204       -1.0895  -26.4454  -49.3322 H         1 UNK         0.0600 
    205 H205       -2.2446  -22.8497  -49.5169 H         1 UNK         0.3000 
    206 H206       -2.9349  -23.1475  -52.3113 H         1 UNK         0.0600 
    207 H207       -1.1332  -21.6075  -51.4569 H         1 UNK         0.0600 
    208 H208       -2.3273  -20.7603  -52.4239 H         1 UNK         0.0600 
    209 H209       -2.3645  -20.6209  -50.6702 H         1 UNK         0.0600 
    210 H210       -4.9601  -22.9917  -49.6998 H         1 UNK         0.3000 
    211 H211       -7.0813  -22.5264  -49.2899 H         1 UNK         0.0600 
    212 H212       -7.3685  -22.8326  -52.3262 H         1 UNK         0.0600 
    213 H213       -8.6927  -22.9243  -51.1675 H         1 UNK         0.0600 
    214 H214       -7.4163  -24.1288  -51.1383 H         1 UNK         0.0600 
    215 H215       -5.5248  -20.2780  -49.2569 H         1 UNK         0.3000 
    216 H216       -5.4609  -18.0731  -49.2329 H         1 UNK         0.0600 
    217 H217       -7.5366  -16.7926  -48.8671 H         1 UNK         0.0600 
    218 H218       -7.5915  -18.2928  -47.9566 H         1 UNK         0.0600 
    219 H219       -8.5153  -18.1319  -49.4502 H         1 UNK         0.0600 
    220 H220       -4.8877  -19.2237  -51.6240 H         1 UNK         0.3000 
    221 H221       -4.1325  -18.6612  -53.5979 H         1 UNK         0.0600 
    222 H222       -5.5871  -15.9741  -53.5797 H         1 UNK         0.0600 
    223 H223       -4.0405  -16.2292  -52.7816 H         1 UNK         0.0600 
    224 H224       -4.1792  -16.4350  -54.5207 H         1 UNK         0.0600 
    225 H225       -7.0172  -19.7366  -53.0117 H         1 UNK         0.3000 
    226 H226       -8.2667  -19.4679  -55.6512 H         1 UNK         0.0600 
    227 H227       -9.6396  -19.8318  -53.5924 H         1 UNK         0.0600 
    228 H228       -9.8820  -21.1002  -54.7849 H         1 UNK         0.0600 
    229 H229       -8.8874  -21.4093  -53.3716 H         1 UNK         0.0600 
    230 H230       -5.7799  -21.4331  -54.1872 H         1 UNK         0.3000 
    231 H231       -5.5643  -23.1089  -56.6400 H         1 UNK         0.0600 
    232 H232       -4.8805  -23.9287  -53.7562 H         1 UNK         0.0600 
    233 H233       -4.6978  -24.9227  -55.1930 H         1 UNK         0.0600 
    234 H234       -6.3015  -24.4785  -54.6373 H         1 UNK         0.0600 
    235 H235       -3.1799  -23.9900  -56.6130 H         1 UNK         0.3000 
    236 H236       -1.4155  -21.7501  -56.9304 H         1 UNK         0.0600 
    237 H237       -1.3371  -23.7711  -58.3880 H         1 UNK         0.0600 
    238 H238        0.2087  -23.5389  -57.5890 H         1 UNK         0.0600 
    239 H239       -0.8969  -24.7759  -57.0060 H         1 UNK         0.0600 
    240 H240        0.6509  -21.4775  -55.9515 H         1 UNK         0.3000 
    241 H241        0.7430  -21.1713  -53.2302 H         1 UNK         0.0600 
    242 H242        1.5485  -22.3275  -51.3910 H         1 UNK         0.3800 
    243 H243        2.1423  -23.9568  -51.5177 H         1 UNK         0.3800 
    244 H244        3.1366  -21.4971  -55.1175 H         1 UNK         0.0800 
    245 H245        3.1914  -20.7471  -53.5477 H         1 UNK         0.0800 
    246 H246        2.5751  -17.1298  -54.3421 H         1 UNK         0.0800 
    247 H247        3.7240  -18.2882  -53.7241 H         1 UNK         0.0800 
@<TRIPOS>BOND
     1    1    2 1    
     2    1  127 1    
     3    1  128 1    
     4    1  129 1    
     5    2    3 2    
     6    2    4 am   BACKBONE|DICT|INTERRES
     7    4    5 1    
     8    4  130 1    
     9    5    6 1    
    10    5   65 1    
    11    5  131 1    
    12    6    7 1    
    13    6  132 1    
    14    6  133 1    
    15    7    8 1    
    16    8    9 1    
    17    8  134 1    
    18    8  135 1    
    19    9   10 ar   
    20    9   14 ar   
    21   10   11 ar   
    22   10  136 1    
    23   11   12 ar   
    24   11  126 1    
    25   12   13 ar   
    26   12  137 1    
    27   13   14 ar   
    28   13   15 1    
    29   14  138 1    
    30   15   16 1    
    31   15  139 1    
    32   15  140 1    
    33   16   17 1    
    34   17   18 1    
    35   17  141 1    
    36   17  142 1    
    37   18   19 1    
    38   18   67 1    
    39   18  143 1    
    40   19   20 am   BACKBONE|DICT|INTERRES
    41   19  144 1    
    42   20   21 2    
    43   20   22 1    
    44   22   23 1    
    45   22   24 1    
    46   22  145 1    
    47   23  146 1    
    48   23  147 1    
    49   23  148 1    
    50   24   25 am   BACKBONE|DICT|INTERRES
    51   24  149 1    
    52   25   26 2    
    53   25   27 1    
    54   27   28 1    
    55   27   29 1    
    56   27  150 1    
    57   28  151 1    
    58   28  152 1    
    59   28  153 1    
    60   29   30 am   BACKBONE|DICT|INTERRES
    61   29  154 1    
    62   30   31 2    
    63   30   32 1    
    64   32   33 1    
    65   32   34 1    
    66   32  155 1    
    67   33  156 1    
    68   33  157 1    
    69   33  158 1    
    70   34   35 am   BACKBONE|DICT|INTERRES
    71   34  159 1    
    72   35   36 2    
    73   35   37 1    
    74   37   38 1    
    75   37   39 1    
    76   37  160 1    
    77   38  161 1    
    78   38  162 1    
    79   38  163 1    
    80   39   40 am   BACKBONE|DICT|INTERRES
    81   39  164 1    
    82   40   41 2    
    83   40   42 1    
    84   42   43 1    
    85   42   44 1    
    86   42  165 1    
    87   43  166 1    
    88   43  167 1    
    89   43  168 1    
    90   44   45 am   BACKBONE|DICT|INTERRES
    91   44  169 1    
    92   45   46 2    
    93   45   47 1    
    94   47   48 1    
    95   47   49 1    
    96   47  170 1    
    97   48  171 1    
    98   48  172 1    
    99   48  173 1    
   100   49   50 am   BACKBONE|DICT|INTERRES
   101   49  174 1    
   102   50   51 2    
   103   50   52 1    
   104   52   53 1    
   105   52   54 1    
   106   52  175 1    
   107   53  176 1    
   108   53  177 1    
   109   53  178 1    
   110   54   55 am   BACKBONE|DICT|INTERRES
   111   54  179 1    
   112   55   56 2    
   113   55   57 1    
   114   57   58 1    
   115   57   59 1    
   116   57  180 1    
   117   58  181 1    
   118   58  182 1    
   119   58  183 1    
   120   59   60 am   BACKBONE|DICT|INTERRES
   121   59  184 1    
   122   60   61 2    
   123   60   62 1    
   124   62   63 1    
   125   62   64 1    
   126   62  185 1    
   127   63  186 1    
   128   63  187 1    
   129   63  188 1    
   130   64   65 am   BACKBONE|DICT|INTERRES
   131   64  189 1    
   132   65   66 2    
   133   67   68 2    
   134   67   69 am   BACKBONE|DICT|INTERRES
   135   69   70 1    
   136   69  190 1    
   137   70   71 1    
   138   70   72 1    
   139   70  191 1    
   140   71  192 1    
   141   71  193 1    
   142   71  194 1    
   143   72   73 2    
   144   72   74 am   BACKBONE|DICT|INTERRES
   145   74   75 1    
   146   74  195 1    
   147   75   76 1    
   148   75   77 1    
   149   75  196 1    
   150   76  197 1    
   151   76  198 1    
   152   76  199 1    
   153   77   78 2    
   154   77   79 am   BACKBONE|DICT|INTERRES
   155   79   80 1    
   156   79  200 1    
   157   80   81 1    
   158   80   82 1    
   159   80  201 1    
   160   81  202 1    
   161   81  203 1    
   162   81  204 1    
   163   82   83 2    
   164   82   84 am   BACKBONE|DICT|INTERRES
   165   84   85 1    
   166   84  205 1    
   167   85   86 1    
   168   85   87 1    
   169   85  206 1    
   170   86  207 1    
   171   86  208 1    
   172   86  209 1    
   173   87   88 2    
   174   87   89 am   BACKBONE|DICT|INTERRES
   175   89   90 1    
   176   89  210 1    
   177   90   91 1    
   178   90   92 1    
   179   90  211 1    
   180   91  212 1    
   181   91  213 1    
   182   91  214 1    
   183   92   93 2    
   184   92   94 am   BACKBONE|DICT|INTERRES
   185   94   95 1    
   186   94  215 1    
   187   95   96 1    
   188   95   97 1    
   189   95  216 1    
   190   96  217 1    
   191   96  218 1    
   192   96  219 1    
   193   97   98 2    
   194   97   99 am   BACKBONE|DICT|INTERRES
   195   99  100 1    
   196   99  220 1    
   197  100  101 1    
   198  100  102 1    
   199  100  221 1    
   200  101  222 1    
   201  101  223 1    
   202  101  224 1    
   203  102  103 2    
   204  102  104 am   BACKBONE|DICT|INTERRES
   205  104  105 1    
   206  104  225 1    
   207  105  106 1    
   208  105  107 1    
   209  105  226 1    
   210  106  227 1    
   211  106  228 1    
   212  106  229 1    
   213  107  108 2    
   214  107  109 am   BACKBONE|DICT|INTERRES
   215  109  110 1    
   216  109  230 1    
   217  110  111 1    
   218  110  112 1    
   219  110  231 1    
   220  111  232 1    
   221  111  233 1    
   222  111  234 1    
   223  112  113 2    
   224  112  114 am   BACKBONE|DICT|INTERRES
   225  114  115 1    
   226  114  235 1    
   227  115  116 1    
   228  115  117 1    
   229  115  236 1    
   230  116  237 1    
   231  116  238 1    
   232  116  239 1    
   233  117  118 2    
   234  117  119 am   BACKBONE|DICT|INTERRES
   235  119  120 1    
   236  119  240 1    
   237  120  121 1    
   238  120  124 1    
   239  120  241 1    
   240  121  122 am   BACKBONE|DICT|INTERRES
   241  121  123 2    
   242  122  242 1    
   243  122  243 1    
   244  124  125 1    
   245  124  244 1    
   246  124  245 1    
   247  125  126 1    
   248  126  246 1    
   249  126  247 1    
@<TRIPOS>SUBSTRUCTURE
     1 UNK         1 GROUP             0       ****    0 ROOT    
