@<TRIPOS>MOLECULE
3R540
247   249    1
SMALL
USER_CHARGES


@<TRIPOS>ATOM
      1 CA         -0.6656  -15.0570  -52.4240 C.3       0 UNK        -0.1800 
      2 C          -0.2198  -14.1641  -51.2747 C.2       0 UNK         0.5000 
      3 O          -0.0985  -12.9515  -51.4494 O.2       0 UNK        -0.5000 
      4 N          -0.0007  -14.7505  -50.0906 N.am      1 UNK        -0.5000 
      5 CA          0.4122  -14.0611  -48.8618 C.3       1 UNK         0.1400 
      6 C6          1.1766  -15.0084  -47.8965 C.3       23 UNK        -0.0398 
      7 S7          2.9186  -15.2391  -48.3777 S.3       23 UNK        -0.2404 
      8 C8          3.2023  -16.9754  -47.8817 C.3       23 UNK        -0.0205 
      9 C9          2.8612  -18.0362  -48.9304 C.ar      23 UNK        -0.0193 
     10 C10         2.1113  -17.7593  -50.0796 C.ar      23 UNK        -0.1150 
     11 C11         1.8307  -18.7505  -51.0230 C.ar      23 UNK        -0.0193 
     12 C12         2.3213  -20.0448  -50.8106 C.ar      23 UNK        -0.1150 
     13 C13         3.0643  -20.3442  -49.6651 C.ar      23 UNK        -0.0193 
     14 C14         3.3245  -19.3388  -48.7303 C.ar      23 UNK        -0.1150 
     15 C15         3.5924  -21.7533  -49.4385 C.3       23 UNK        -0.0205 
     16 S16         2.2643  -22.9264  -49.0269 S.3       23 UNK        -0.2404 
     17 C17         1.5882  -22.2038  -47.4921 C.3       23 UNK        -0.0398 
     18 CA          1.0543  -23.2688  -46.5085 C.3       11 UNK         0.1400 
     19 N           0.7867  -22.6890  -45.1937 N.am      11 UNK        -0.5000 
     20 C           0.6399  -23.4016  -44.0693 C.2       10 UNK         0.5000 
     21 O           0.8126  -24.6183  -44.0022 O.2       10 UNK        -0.5000 
     22 CA          0.1885  -22.6305  -42.8160 C.3       10 UNK         0.1400 
     23 CB          1.3957  -22.0082  -42.0993 C.3       10 UNK        -0.1800 
     24 N          -0.8024  -21.5930  -43.1124 N.am      10 UNK        -0.5000 
     25 C          -2.0226  -21.8344  -43.6149 C.2       9 UNK         0.5000 
     26 O          -2.4541  -22.9636  -43.8494 O.2       9 UNK        -0.5000 
     27 CA         -2.8987  -20.6115  -43.9389 C.3       9 UNK         0.1400 
     28 CB         -3.5876  -20.0901  -42.6693 C.3       9 UNK        -0.1800 
     29 N          -2.1605  -19.5221  -44.5783 N.am      9 UNK        -0.5000 
     30 C          -1.5500  -19.5927  -45.7707 C.2       8 UNK         0.5000 
     31 O          -1.5312  -20.5992  -46.4754 O.2       8 UNK        -0.5000 
     32 CA         -0.7755  -18.3416  -46.2206 C.3       8 UNK         0.1400 
     33 CB         -1.7413  -17.2068  -46.6005 C.3       8 UNK        -0.1800 
     34 N           0.1437  -17.8785  -45.1813 N.am      8 UNK        -0.5000 
     35 C           1.1430  -18.6074  -44.6614 C.2       7 UNK         0.5000 
     36 O           1.4593  -19.7298  -45.0580 O.2       7 UNK        -0.5000 
     37 CA          1.8762  -17.9939  -43.4577 C.3       7 UNK         0.1400 
     38 CB          3.0014  -17.0556  -43.9214 C.3       7 UNK        -0.1800 
     39 N           0.9549  -17.2718  -42.5781 N.am      7 UNK        -0.5000 
     40 C           0.0524  -17.8648  -41.7825 C.2       6 UNK         0.5000 
     41 O          -0.0679  -19.0851  -41.6794 O.2       6 UNK        -0.5000 
     42 CA         -0.9051  -16.9413  -41.0050 C.3       6 UNK         0.1400 
     43 CB         -0.2305  -16.4067  -39.7329 C.3       6 UNK        -0.1800 
     44 N          -1.3834  -15.8174  -41.8112 N.am      6 UNK        -0.5000 
     45 C          -2.1708  -15.9425  -42.8886 C.2       5 UNK         0.5000 
     46 O          -2.6317  -17.0170  -43.2695 O.2       5 UNK        -0.5000 
     47 CA         -2.4585  -14.6685  -43.7072 C.3       5 UNK         0.1400 
     48 CB         -3.7809  -14.0281  -43.2617 C.3       5 UNK        -0.1800 
     49 N          -1.3967  -13.6588  -43.6644 N.am      5 UNK        -0.5000 
     50 C          -0.1215  -13.8574  -44.0241 C.2       4 UNK         0.5000 
     51 O           0.3350  -14.9532  -44.3558 O.2       4 UNK        -0.5000 
     52 CA          0.7631  -12.6049  -44.0407 C.3       4 UNK         0.1400 
     53 CB          2.2415  -12.9023  -44.3569 C.3       4 UNK        -0.1800 
     54 N           0.2229  -11.6664  -45.0212 N.am      4 UNK        -0.5000 
     55 C           0.2276  -10.3328  -44.8961 C.2       3 UNK         0.5000 
     56 O           0.6618   -9.7511  -43.9009 O.2       3 UNK        -0.5000 
     57 CA         -0.3177   -9.4928  -46.0714 C.3       3 UNK         0.1400 
     58 CB          0.7996   -8.6262  -46.6760 C.3       3 UNK        -0.1800 
     59 N          -0.9004  -10.3014  -47.1435 N.am      3 UNK        -0.5000 
     60 C          -2.1707  -10.7242  -47.1924 C.2       2 UNK         0.5000 
     61 O          -3.0159  -10.4544  -46.3391 O.2       2 UNK        -0.5000 
     62 CA         -2.5491  -11.6248  -48.3873 C.3       2 UNK         0.1400 
     63 CB         -3.1216  -10.7862  -49.5395 C.3       2 UNK        -0.1800 
     64 N          -1.4271  -12.4257  -48.8902 N.am      2 UNK        -0.5000 
     65 C          -0.7988  -13.3768  -48.1881 C.2       1 UNK         0.5000 
     66 O          -1.1404  -13.6923  -47.0502 O.2       1 UNK        -0.5000 
     67 C          -0.1923  -24.0027  -47.0496 C.2       11 UNK         0.5000 
     68 O          -0.0840  -25.1535  -47.4778 O.2       11 UNK        -0.5000 
     69 N          -1.3631  -23.3488  -46.9868 N.am      12 UNK        -0.5000 
     70 CA         -2.6480  -23.8476  -47.4885 C.3       12 UNK         0.1400 
     71 CB         -3.7231  -22.7659  -47.3430 C.3       12 UNK        -0.1800 
     72 C          -3.1247  -25.1597  -46.8448 C.2       12 UNK         0.5000 
     73 O          -3.8683  -25.8989  -47.4869 O.2       12 UNK        -0.5000 
     74 N          -2.6435  -25.4655  -45.6330 N.am      13 UNK        -0.5000 
     75 CA         -2.8235  -26.7521  -44.9566 C.3       13 UNK         0.1400 
     76 CB         -2.1475  -26.6893  -43.5791 C.3       13 UNK        -0.1800 
     77 C          -2.3008  -27.9629  -45.7633 C.2       13 UNK         0.5000 
     78 O          -2.8080  -29.0694  -45.5739 O.2       13 UNK        -0.5000 
     79 N          -1.3268  -27.7315  -46.6556 N.am      14 UNK        -0.5000 
     80 CA         -0.8173  -28.7095  -47.6143 C.3       14 UNK         0.1400 
     81 CB          0.7015  -28.8507  -47.4251 C.3       14 UNK        -0.1800 
     82 C          -1.1416  -28.3006  -49.0630 C.2       14 UNK         0.5000 
     83 O          -1.5366  -29.1548  -49.8571 O.2       14 UNK        -0.5000 
     84 N          -0.9486  -27.0161  -49.3944 N.am      15 UNK        -0.5000 
     85 CA         -0.9970  -26.4990  -50.7645 C.3       15 UNK         0.1400 
     86 CB         -0.1247  -25.2369  -50.8379 C.3       15 UNK        -0.1800 
     87 C          -2.4103  -26.1892  -51.2918 C.2       15 UNK         0.5000 
     88 O          -2.5697  -26.0556  -52.5059 O.2       15 UNK        -0.5000 
     89 N          -3.3954  -26.0427  -50.3933 N.am      16 UNK        -0.5000 
     90 CA         -4.7980  -25.6636  -50.6213 C.3       16 UNK         0.1400 
     91 CB         -5.5309  -26.6993  -51.4963 C.3       16 UNK        -0.1800 
     92 C          -4.9902  -24.2300  -51.1582 C.2       16 UNK         0.5000 
     93 O          -5.6474  -23.4179  -50.5073 O.2       16 UNK        -0.5000 
     94 N          -4.4165  -23.9405  -52.3314 N.am      17 UNK        -0.5000 
     95 CA         -4.5772  -22.6871  -53.0728 C.3       17 UNK         0.1400 
     96 CB         -4.1571  -22.9231  -54.5314 C.3       17 UNK        -0.1800 
     97 C          -3.7938  -21.4994  -52.4850 C.2       17 UNK         0.5000 
     98 O          -4.0690  -20.3570  -52.8503 O.2       17 UNK        -0.5000 
     99 N          -2.8233  -21.7720  -51.6032 N.am      18 UNK        -0.5000 
    100 CA        -1.9048  -20.7895  -51.0185 C.3       18 UNK         0.1400 
    101 CB        -0.8038  -21.5332  -50.2592 C.3       18 UNK        -0.1800 
    102 C         -2.5529  -19.7254  -50.1111 C.2       18 UNK         0.5000 
    103 O         -1.8876  -18.7431  -49.7791 O.2       18 UNK        -0.5000 
    104 N         -3.8247  -19.9220  -49.7379 N.am      19 UNK        -0.5000 
    105 CA        -4.6449  -19.0400  -48.9073 C.3       19 UNK         0.1400 
    106 CB        -5.9079  -19.8081  -48.4780 C.3       19 UNK        -0.1800 
    107 C         -4.9789  -17.6998  -49.6012 C.2       19 UNK         0.5000 
    108 O         -6.1338  -17.4506  -49.9503 O.2       19 UNK        -0.5000 
    109 N         -3.9449  -16.8685  -49.7855 N.am      20 UNK        -0.5000 
    110 CA        -3.9628  -15.5199  -50.3581 C.3       20 UNK         0.1400 
    111 CB        -4.7794  -14.5573  -49.4709 C.3       20 UNK        -0.1800 
    112 C         -4.3783  -15.4863  -51.8449 C.2       20 UNK         0.5000 
    113 O         -5.0327  -14.5361  -52.2777 O.2       20 UNK        -0.5000 
    114 N         -3.9682  -16.5094  -52.6069 N.am      21 UNK        -0.5000 
    115 CA        -4.1941  -16.6064  -54.0488 C.3       21 UNK         0.1400 
    116 CB        -5.5005  -17.3666  -54.3375 C.3       21 UNK        -0.1800 
    117 C         -2.9869  -17.2502  -54.7440 C.2       21 UNK         0.5000 
    118 O         -2.4057  -16.6353  -55.6379 O.2       21 UNK        -0.5000 
    119 N         -2.6195  -18.4636  -54.3095 N.am      22 UNK        -0.5000 
    120 CA        -1.5392  -19.3007  -54.8675 C.3       22 UNK         0.1400 
    121 C         -1.8467  -19.9233  -56.2653 C.2       22 UNK         0.5000 
    122 N         -3.0791  -19.8760  -56.7566 N.am      22 UNK        -0.7600 
    123 O         -0.9658  -20.4931  -56.9032 O.2       22 UNK        -0.5000 
    124 C124       -0.1286  -18.6337  -54.7794 C.3       23 UNK        -0.0398 
    125 S125        0.9932  -19.5140  -53.6394 S.3       23 UNK        -0.2404 
    126 C126        0.9719  -18.3627  -52.2259 C.3       23 UNK        -0.0205 
    127 H127       -1.5012  -14.5997  -52.9540 H         1 UNK         0.0600 
    128 H128       -0.9868  -16.0370  -52.0732 H         1 UNK         0.0600 
    129 H129        0.1509  -15.1929  -53.1327 H         1 UNK         0.0600 
    130 H130       -0.1504  -15.7440  -49.9974 H         1 UNK         0.3000 
    131 H131        1.0930  -13.2498  -49.1295 H         1 UNK         0.0600 
    132 H132        1.1982  -14.6174  -46.8796 H         1 UNK         0.0800 
    133 H133        0.6811  -15.9771  -47.8360 H         1 UNK         0.0800 
    134 H134        2.6471  -17.1876  -46.9678 H         1 UNK         0.0800 
    135 H135        4.2583  -17.0706  -47.6250 H         1 UNK         0.0800 
    136 H136        1.7415  -16.7634  -50.2585 H         1 UNK         0.1150 
    137 H137        2.1139  -20.8346  -51.5175 H         1 UNK         0.1150 
    138 H138        3.8982  -19.5691  -47.8433 H         1 UNK         0.1150 
    139 H139        4.0977  -22.0960  -50.3424 H         1 UNK         0.0800 
    140 H140        4.3424  -21.7664  -48.6462 H         1 UNK         0.0800 
    141 H141        0.8176  -21.4729  -47.7396 H         1 UNK         0.0800 
    142 H142        2.3844  -21.6392  -47.0049 H         1 UNK         0.0800 
    143 H143        1.8393  -24.0174  -46.3791 H         1 UNK         0.0600 
    144 H144        0.6693  -21.6821  -45.1540 H         1 UNK         0.3000 
    145 H145       -0.2764  -23.3484  -42.1370 H         1 UNK         0.0600 
    146 H146        1.0985  -21.5380  -41.1619 H         1 UNK         0.0600 
    147 H147        2.1417  -22.7668  -41.8592 H         1 UNK         0.0600 
    148 H148        1.8827  -21.2519  -42.7151 H         1 UNK         0.0600 
    149 H149       -0.5408  -20.6376  -42.8910 H         1 UNK         0.3000 
    150 H150       -3.6762  -20.9325  -44.6334 H         1 UNK         0.0600 
    151 H151       -4.1521  -20.8822  -42.1759 H         1 UNK         0.0600 
    152 H152       -4.2887  -19.2888  -42.9032 H         1 UNK         0.0600 
    153 H153       -2.8654  -19.7021  -41.9500 H         1 UNK         0.0600 
    154 H154       -2.1509  -18.6366  -44.0775 H         1 UNK         0.3000 
    155 H155       -0.1777  -18.5979  -47.0984 H         1 UNK         0.0600 
    156 H156       -2.5680  -17.1103  -45.8978 H         1 UNK         0.0600 
    157 H157       -1.2370  -16.2445  -46.6389 H         1 UNK         0.0600 
    158 H158       -2.1764  -17.3832  -47.5809 H         1 UNK         0.0600 
    159 H159       -0.0109  -16.9481  -44.8082 H         1 UNK         0.3000 
    160 H160        2.3287  -18.8079  -42.8878 H         1 UNK         0.0600 
    161 H161        3.7310  -17.5956  -44.5262 H         1 UNK         0.0600 
    162 H162        2.6239  -16.2314  -44.5270 H         1 UNK         0.0600 
    163 H163        3.5353  -16.6297  -43.0719 H         1 UNK         0.0600 
    164 H164        0.9269  -16.2667  -42.6862 H         1 UNK         0.3000 
    165 H165       -1.7709  -17.5365  -40.7069 H         1 UNK         0.0600 
    166 H166       -0.9265  -15.8173  -39.1358 H         1 UNK         0.0600 
    167 H167        0.1217  -17.2262  -39.1050 H         1 UNK         0.0600 
    168 H168        0.6297  -15.7777  -39.9651 H         1 UNK         0.0600 
    169 H169       -1.0488  -14.8979  -41.5644 H         1 UNK         0.3000 
    170 H170       -2.5660  -14.9712  -44.7501 H         1 UNK         0.0600 
    171 H171       -4.5993  -14.7478  -43.3093 H         1 UNK         0.0600 
    172 H172       -3.7246  -13.6611  -42.2362 H         1 UNK         0.0600 
    173 H173       -4.0496  -13.1903  -43.9056 H         1 UNK         0.0600 
    174 H174       -1.6841  -12.7207  -43.4265 H         1 UNK         0.3000 
    175 H175        0.7092  -12.1745  -43.0386 H         1 UNK         0.0600 
    176 H176        2.3700  -13.3008  -45.3629 H         1 UNK         0.0600 
    177 H177        2.8482  -12.0002  -44.2777 H         1 UNK         0.0600 
    178 H178        2.6528  -13.6317  -43.6582 H         1 UNK         0.0600 
    179 H179       -0.2205  -12.0880  -45.8286 H         1 UNK         0.3000 
    180 H180       -1.0818   -8.8258  -45.6667 H         1 UNK         0.0600 
    181 H181        1.6064   -9.2364  -47.0839 H         1 UNK         0.0600 
    182 H182        1.2352   -7.9656  -45.9252 H         1 UNK         0.0600 
    183 H183        0.4179   -7.9938  -47.4779 H         1 UNK         0.0600 
    184 H184       -0.2803  -10.5680  -47.8940 H         1 UNK         0.3000 
    185 H185       -3.3247  -12.3112  -48.0427 H         1 UNK         0.0600 
    186 H186       -3.4496  -11.4186  -50.3647 H         1 UNK         0.0600 
    187 H187       -3.9858  -10.2080  -49.2099 H         1 UNK         0.0600 
    188 H188       -2.3845  -10.0831  -49.9295 H         1 UNK         0.0600 
    189 H189       -1.1030  -12.2384  -49.8339 H         1 UNK         0.3000 
    190 H190       -1.3700  -22.3912  -46.6386 H         1 UNK         0.3000 
    191 H191       -2.5163  -24.0434  -48.5535 H         1 UNK         0.0600 
    192 H192       -3.9181  -22.5350  -46.2966 H         1 UNK         0.0600 
    193 H193       -4.6648  -23.0872  -47.7900 H         1 UNK         0.0600 
    194 H194       -3.4246  -21.8466  -47.8423 H         1 UNK         0.0600 
    195 H195       -2.0938  -24.7664  -45.1485 H         1 UNK         0.3000 
    196 H196       -3.8954  -26.8956  -44.8075 H         1 UNK         0.0600 
    197 H197       -2.3194  -27.6081  -43.0172 H         1 UNK         0.0600 
    198 H198       -2.5386  -25.8643  -42.9831 H         1 UNK         0.0600 
    199 H199       -1.0690  -26.5565  -43.6688 H         1 UNK         0.0600 
    200 H200       -0.9661  -26.7872  -46.7434 H         1 UNK         0.3000 
    201 H201       -1.2692  -29.6888  -47.4439 H         1 UNK         0.0600 
    202 H202        0.9397  -29.2092  -46.4236 H         1 UNK         0.0600 
    203 H203        1.2172  -27.9004  -47.5706 H         1 UNK         0.0600 
    204 H204        1.1200  -29.5655  -48.1348 H         1 UNK         0.0600 
    205 H205       -0.6002  -26.3709  -48.6882 H         1 UNK         0.3000 
    206 H206       -0.5614  -27.2440  -51.4338 H         1 UNK         0.0600 
    207 H207        0.9066  -25.4538  -50.5591 H         1 UNK         0.0600 
    208 H208       -0.1071  -24.8227  -51.8468 H         1 UNK         0.0600 
    209 H209       -0.4922  -24.4598  -50.1688 H         1 UNK         0.0600 
    210 H210       -3.1677  -26.1940  -49.4173 H         1 UNK         0.3000 
    211 H211       -5.2779  -25.6881  -49.6426 H         1 UNK         0.0600 
    212 H212       -5.1285  -26.7476  -52.5082 H         1 UNK         0.0600 
    213 H213       -6.5904  -26.4544  -51.5809 H         1 UNK         0.0600 
    214 H214       -5.4623  -27.6967  -51.0621 H         1 UNK         0.0600 
    215 H215       -3.8390  -24.6616  -52.7566 H         1 UNK         0.3000 
    216 H216       -5.6344  -22.4145  -53.0612 H         1 UNK         0.0600 
    217 H217       -4.3056  -22.0254  -55.1328 H         1 UNK         0.0600 
    218 H218       -4.7467  -23.7182  -54.9881 H         1 UNK         0.0600 
    219 H219       -3.1046  -23.1994  -54.6074 H         1 UNK         0.0600 
    220 H220       -2.6682  -22.7390  -51.3630 H         1 UNK         0.3000 
    221 H221       -1.4355  -20.2479  -51.8397 H         1 UNK         0.0600 
    222 H222       -1.2152  -22.1738  -49.4821 H         1 UNK         0.0600 
    223 H223       -0.2051  -22.1470  -50.9318 H         1 UNK         0.0600 
    224 H224       -0.1258  -20.8312  -49.7747 H         1 UNK         0.0600 
    225 H225       -4.2893  -20.7430  -50.0974 H         1 UNK         0.3000 
    226 H226       -4.0814  -18.8074  -48.0018 H         1 UNK         0.0600 
    227 H227       -5.6560  -20.6911  -47.8921 H         1 UNK         0.0600 
    228 H228       -6.5530  -19.1857  -47.8566 H         1 UNK         0.0600 
    229 H229       -6.4933  -20.1340  -49.3388 H         1 UNK         0.0600 
    230 H230       -3.0277  -17.2446  -49.5605 H         1 UNK         0.3000 
    231 H231       -2.9305  -15.1722  -50.3323 H         1 UNK         0.0600 
    232 H232       -4.6892  -13.5293  -49.8221 H         1 UNK         0.0600 
    233 H233       -4.4269  -14.5796  -48.4396 H         1 UNK         0.0600 
    234 H234       -5.8405  -14.8073  -49.4695 H         1 UNK         0.0600 
    235 H235       -3.4279  -17.2491  -52.1830 H         1 UNK         0.3000 
    236 H236       -4.2905  -15.6029  -54.4694 H         1 UNK         0.0600 
    237 H237       -6.3610  -16.8248  -53.9447 H         1 UNK         0.0600 
    238 H238       -5.6556  -17.4875  -55.4102 H         1 UNK         0.0600 
    239 H239       -5.5035  -18.3592  -53.8876 H         1 UNK         0.0600 
    240 H240       -3.2180  -18.9490  -53.6442 H         1 UNK         0.3000 
    241 H241       -1.5373  -20.1788  -54.2223 H         1 UNK         0.0600 
    242 H242       -3.2687  -20.2903  -57.6557 H         1 UNK         0.3800 
    243 H243       -3.8212  -19.4296  -56.2438 H         1 UNK         0.3800 
    244 H244        0.3639  -18.5878  -55.7519 H         1 UNK         0.0800 
    245 H245       -0.1994  -17.5921  -54.4668 H         1 UNK         0.0800 
    246 H246        1.3000  -17.3866  -52.5860 H         1 UNK         0.0800 
    247 H247       -0.0571  -18.2457  -51.8859 H         1 UNK         0.0800 
@<TRIPOS>BOND
     1    1    2 1    
     2    1  127 1    
     3    1  128 1    
     4    1  129 1    
     5    2    3 2    
     6    2    4 am   BACKBONE|DICT|INTERRES
     7    4    5 1    
     8    4  130 1    
     9    5    6 1    
    10    5   65 1    
    11    5  131 1    
    12    6    7 1    
    13    6  132 1    
    14    6  133 1    
    15    7    8 1    
    16    8    9 1    
    17    8  134 1    
    18    8  135 1    
    19    9   10 ar   
    20    9   14 ar   
    21   10   11 ar   
    22   10  136 1    
    23   11   12 ar   
    24   11  126 1    
    25   12   13 ar   
    26   12  137 1    
    27   13   14 ar   
    28   13   15 1    
    29   14  138 1    
    30   15   16 1    
    31   15  139 1    
    32   15  140 1    
    33   16   17 1    
    34   17   18 1    
    35   17  141 1    
    36   17  142 1    
    37   18   19 1    
    38   18   67 1    
    39   18  143 1    
    40   19   20 am   BACKBONE|DICT|INTERRES
    41   19  144 1    
    42   20   21 2    
    43   20   22 1    
    44   22   23 1    
    45   22   24 1    
    46   22  145 1    
    47   23  146 1    
    48   23  147 1    
    49   23  148 1    
    50   24   25 am   BACKBONE|DICT|INTERRES
    51   24  149 1    
    52   25   26 2    
    53   25   27 1    
    54   27   28 1    
    55   27   29 1    
    56   27  150 1    
    57   28  151 1    
    58   28  152 1    
    59   28  153 1    
    60   29   30 am   BACKBONE|DICT|INTERRES
    61   29  154 1    
    62   30   31 2    
    63   30   32 1    
    64   32   33 1    
    65   32   34 1    
    66   32  155 1    
    67   33  156 1    
    68   33  157 1    
    69   33  158 1    
    70   34   35 am   BACKBONE|DICT|INTERRES
    71   34  159 1    
    72   35   36 2    
    73   35   37 1    
    74   37   38 1    
    75   37   39 1    
    76   37  160 1    
    77   38  161 1    
    78   38  162 1    
    79   38  163 1    
    80   39   40 am   BACKBONE|DICT|INTERRES
    81   39  164 1    
    82   40   41 2    
    83   40   42 1    
    84   42   43 1    
    85   42   44 1    
    86   42  165 1    
    87   43  166 1    
    88   43  167 1    
    89   43  168 1    
    90   44   45 am   BACKBONE|DICT|INTERRES
    91   44  169 1    
    92   45   46 2    
    93   45   47 1    
    94   47   48 1    
    95   47   49 1    
    96   47  170 1    
    97   48  171 1    
    98   48  172 1    
    99   48  173 1    
   100   49   50 am   BACKBONE|DICT|INTERRES
   101   49  174 1    
   102   50   51 2    
   103   50   52 1    
   104   52   53 1    
   105   52   54 1    
   106   52  175 1    
   107   53  176 1    
   108   53  177 1    
   109   53  178 1    
   110   54   55 am   BACKBONE|DICT|INTERRES
   111   54  179 1    
   112   55   56 2    
   113   55   57 1    
   114   57   58 1    
   115   57   59 1    
   116   57  180 1    
   117   58  181 1    
   118   58  182 1    
   119   58  183 1    
   120   59   60 am   BACKBONE|DICT|INTERRES
   121   59  184 1    
   122   60   61 2    
   123   60   62 1    
   124   62   63 1    
   125   62   64 1    
   126   62  185 1    
   127   63  186 1    
   128   63  187 1    
   129   63  188 1    
   130   64   65 am   BACKBONE|DICT|INTERRES
   131   64  189 1    
   132   65   66 2    
   133   67   68 2    
   134   67   69 am   BACKBONE|DICT|INTERRES
   135   69   70 1    
   136   69  190 1    
   137   70   71 1    
   138   70   72 1    
   139   70  191 1    
   140   71  192 1    
   141   71  193 1    
   142   71  194 1    
   143   72   73 2    
   144   72   74 am   BACKBONE|DICT|INTERRES
   145   74   75 1    
   146   74  195 1    
   147   75   76 1    
   148   75   77 1    
   149   75  196 1    
   150   76  197 1    
   151   76  198 1    
   152   76  199 1    
   153   77   78 2    
   154   77   79 am   BACKBONE|DICT|INTERRES
   155   79   80 1    
   156   79  200 1    
   157   80   81 1    
   158   80   82 1    
   159   80  201 1    
   160   81  202 1    
   161   81  203 1    
   162   81  204 1    
   163   82   83 2    
   164   82   84 am   BACKBONE|DICT|INTERRES
   165   84   85 1    
   166   84  205 1    
   167   85   86 1    
   168   85   87 1    
   169   85  206 1    
   170   86  207 1    
   171   86  208 1    
   172   86  209 1    
   173   87   88 2    
   174   87   89 am   BACKBONE|DICT|INTERRES
   175   89   90 1    
   176   89  210 1    
   177   90   91 1    
   178   90   92 1    
   179   90  211 1    
   180   91  212 1    
   181   91  213 1    
   182   91  214 1    
   183   92   93 2    
   184   92   94 am   BACKBONE|DICT|INTERRES
   185   94   95 1    
   186   94  215 1    
   187   95   96 1    
   188   95   97 1    
   189   95  216 1    
   190   96  217 1    
   191   96  218 1    
   192   96  219 1    
   193   97   98 2    
   194   97   99 am   BACKBONE|DICT|INTERRES
   195   99  100 1    
   196   99  220 1    
   197  100  101 1    
   198  100  102 1    
   199  100  221 1    
   200  101  222 1    
   201  101  223 1    
   202  101  224 1    
   203  102  103 2    
   204  102  104 am   BACKBONE|DICT|INTERRES
   205  104  105 1    
   206  104  225 1    
   207  105  106 1    
   208  105  107 1    
   209  105  226 1    
   210  106  227 1    
   211  106  228 1    
   212  106  229 1    
   213  107  108 2    
   214  107  109 am   BACKBONE|DICT|INTERRES
   215  109  110 1    
   216  109  230 1    
   217  110  111 1    
   218  110  112 1    
   219  110  231 1    
   220  111  232 1    
   221  111  233 1    
   222  111  234 1    
   223  112  113 2    
   224  112  114 am   BACKBONE|DICT|INTERRES
   225  114  115 1    
   226  114  235 1    
   227  115  116 1    
   228  115  117 1    
   229  115  236 1    
   230  116  237 1    
   231  116  238 1    
   232  116  239 1    
   233  117  118 2    
   234  117  119 am   BACKBONE|DICT|INTERRES
   235  119  120 1    
   236  119  240 1    
   237  120  121 1    
   238  120  124 1    
   239  120  241 1    
   240  121  122 am   BACKBONE|DICT|INTERRES
   241  121  123 2    
   242  122  242 1    
   243  122  243 1    
   244  124  125 1    
   245  124  244 1    
   246  124  245 1    
   247  125  126 1    
   248  126  246 1    
   249  126  247 1    
@<TRIPOS>SUBSTRUCTURE
     1 UNK         1 GROUP             0       ****    0 ROOT    
