@<TRIPOS>MOLECULE
3R540
247   249    1
SMALL
USER_CHARGES


@<TRIPOS>ATOM
      1 CA         -1.7559  -10.0674  -50.9480 C.3       0 UNK        -0.1800 
      2 C          -1.2237  -11.3026  -50.2351 C.2       0 UNK         0.5000 
      3 O          -0.2293  -11.8815  -50.6734 O.2       0 UNK        -0.5000 
      4 N          -1.8866  -11.7110  -49.1469 N.am      1 UNK        -0.5000 
      5 CA         -1.5078  -12.8591  -48.3182 C.3       1 UNK         0.1400 
      6 C6         -2.6524  -13.3074  -47.3719 C.3       23 UNK        -0.0398 
      7 S7         -4.2154  -13.6643  -48.2462 S.3       23 UNK        -0.2404 
      8 C8         -4.1407  -15.4769  -48.4426 C.3       23 UNK        -0.0205 
      9 C9         -2.9506  -15.9367  -49.2761 C.ar      23 UNK        -0.0193 
     10 C10        -2.7096  -15.3857  -50.5370 C.ar      23 UNK        -0.1150 
     11 C11        -1.5935  -15.7723  -51.2817 C.ar      23 UNK        -0.0193 
     12 C12        -0.7454  -16.7671  -50.7840 C.ar      23 UNK        -0.1150 
     13 C13        -0.9982  -17.3656  -49.5444 C.ar      23 UNK        -0.0193 
     14 C14        -2.0887  -16.9198  -48.7851 C.ar      23 UNK        -0.1150 
     15 C15        -0.0884  -18.4887  -49.0460 C.3       23 UNK        -0.0205 
     16 S16        -1.0151  -19.8074  -48.1965 S.3       23 UNK        -0.2404 
     17 C17         0.0686  -21.2661  -48.3737 C.3       23 UNK        -0.0398 
     18 CA         -0.2961  -22.4598  -47.4484 C.3       11 UNK         0.1400 
     19 N           0.1375  -22.2454  -46.0632 N.am      11 UNK        -0.5000 
     20 C           0.1950  -23.2159  -45.1385 C.2       10 UNK         0.5000 
     21 O          -0.1165  -24.3848  -45.3598 O.2       10 UNK        -0.5000 
     22 CA          0.6242  -22.8158  -43.7177 C.3       10 UNK         0.1400 
     23 CB          2.1443  -22.6151  -43.6395 C.3       10 UNK        -0.1800 
     24 N          -0.0575  -21.6174  -43.2352 N.am      10 UNK        -0.5000 
     25 C          -1.3813  -21.5044  -43.0593 C.2       9 UNK         0.5000 
     26 O          -2.1849  -22.4057  -43.2989 O.2       9 UNK        -0.5000 
     27 CA         -1.8915  -20.1434  -42.5615 C.3       9 UNK         0.1400 
     28 CB         -1.7309  -20.0172  -41.0387 C.3       9 UNK        -0.1800 
     29 N          -1.1854  -19.0493  -43.2261 N.am      9 UNK        -0.5000 
     30 C          -1.4954  -18.6004  -44.4495 C.2       8 UNK         0.5000 
     31 O          -2.4634  -19.0002  -45.0949 O.2       8 UNK        -0.5000 
     32 CA         -0.5705  -17.5317  -45.0623 C.3       8 UNK         0.1400 
     33 CB         -1.1004  -16.1262  -44.7478 C.3       8 UNK        -0.1800 
     34 N           0.8289  -17.6441  -44.6392 N.am      8 UNK        -0.5000 
     35 C           1.6272  -18.6722  -44.9647 C.2       7 UNK         0.5000 
     36 O           1.2704  -19.6239  -45.6579 O.2       7 UNK        -0.5000 
     37 CA          3.0516  -18.6707  -44.3807 C.3       7 UNK         0.1400 
     38 CB          3.9876  -17.8047  -45.2353 C.3       7 UNK        -0.1800 
     39 N           3.1417  -18.2311  -42.9881 N.am      7 UNK        -0.5000 
     40 C           2.4389  -18.6987  -41.9458 C.2       6 UNK         0.5000 
     41 O           1.5626  -19.5569  -42.0469 O.2       6 UNK        -0.5000 
     42 CA          2.7683  -18.1165  -40.5541 C.3       6 UNK         0.1400 
     43 CB          3.4178  -19.1890  -39.6660 C.3       6 UNK        -0.1800 
     44 N           3.6516  -16.9460  -40.6071 N.am      6 UNK        -0.5000 
     45 C           3.2748  -15.7335  -41.0318 C.2       5 UNK         0.5000 
     46 O           2.1115  -15.4562  -41.3340 O.2       5 UNK        -0.5000 
     47 CA          4.3947  -14.6878  -41.1772 C.3       5 UNK         0.1400 
     48 CB          5.4528  -15.1419  -42.2000 C.3       5 UNK        -0.1800 
     49 N           3.8217  -13.4330  -41.6453 N.am      5 UNK        -0.5000 
     50 C           3.9932  -12.2271  -41.0913 C.2       4 UNK         0.5000 
     51 O           4.7413  -12.0133  -40.1364 O.2       4 UNK        -0.5000 
     52 CA          3.1967  -11.0544  -41.7051 C.3       4 UNK         0.1400 
     53 CB          4.1220  -10.1503  -42.5345 C.3       4 UNK        -0.1800 
     54 N           2.0888  -11.4967  -42.5547 N.am      4 UNK        -0.5000 
     55 C           0.9685  -12.0842  -42.1128 C.2       3 UNK         0.5000 
     56 O           0.6791  -12.1815  -40.9197 O.2       3 UNK        -0.5000 
     57 CA          0.0228  -12.6816  -43.1728 C.3       3 UNK         0.1400 
     58 CB         -1.3050  -11.9098  -43.2236 C.3       3 UNK        -0.1800 
     59 N           0.5825  -12.7303  -44.5266 N.am      3 UNK        -0.5000 
     60 C           1.5399  -13.5570  -44.9665 C.2       2 UNK         0.5000 
     61 O           2.1531  -14.3321  -44.2322 O.2       2 UNK        -0.5000 
     62 CA          1.8279  -13.5238  -46.4865 C.3       2 UNK         0.1400 
     63 CB          2.7459  -14.6733  -46.9371 C.3       2 UNK        -0.1800 
     64 N           0.6033  -13.5711  -47.2938 N.am      2 UNK        -0.5000 
     65 C          -0.2396  -12.5514  -47.5005 C.2       1 UNK         0.5000 
     66 O          -0.0762  -11.4275  -47.0178 O.2       1 UNK        -0.5000 
     67 C          -1.7884  -22.8619  -47.5335 C.2       11 UNK         0.5000 
     68 O          -2.1604  -23.6803  -48.3801 O.2       11 UNK        -0.5000 
     69 N          -2.6122  -22.2876  -46.6433 N.am      12 UNK        -0.5000 
     70 CA         -4.0370  -22.5744  -46.5174 C.3       12 UNK         0.1400 
     71 CB         -4.7143  -21.5283  -45.6212 C.3       12 UNK        -0.1800 
     72 C          -4.2820  -24.0017  -46.0073 C.2       12 UNK         0.5000 
     73 O          -5.0702  -24.7324  -46.6079 O.2       12 UNK        -0.5000 
     74 N          -3.5590  -24.3856  -44.9470 N.am      13 UNK        -0.5000 
     75 CA         -3.5739  -25.7304  -44.3735 C.3       13 UNK         0.1400 
     76 CB         -2.7690  -25.7312  -43.0650 C.3       13 UNK        -0.1800 
     77 C          -3.0397  -26.8037  -45.3406 C.2       13 UNK         0.5000 
     78 O          -3.5777  -27.9113  -45.3684 O.2       13 UNK        -0.5000 
     79 N          -1.9994  -26.4577  -46.1119 N.am      14 UNK        -0.5000 
     80 CA         -1.3614  -27.3376  -47.0865 C.3       14 UNK         0.1400 
     81 CB         -0.0269  -26.7308  -47.5485 C.3       14 UNK        -0.1800 
     82 C          -2.2572  -27.6586  -48.2939 C.2       14 UNK         0.5000 
     83 O          -2.4448  -28.8379  -48.5988 O.2       14 UNK        -0.5000 
     84 N          -2.7650  -26.6230  -48.9793 N.am      15 UNK        -0.5000 
     85 CA         -3.4365  -26.7862  -50.2722 C.3       15 UNK         0.1400 
     86 CB         -2.3818  -27.0149  -51.3789 C.3       15 UNK        -0.1800 
     87 C          -4.3862  -25.6269  -50.6182 C.2       15 UNK         0.5000 
     88 O          -4.5811  -25.3526  -51.8032 O.2       15 UNK        -0.5000 
     89 N          -4.9530  -24.9436  -49.6117 N.am      16 UNK        -0.5000 
     90 CA         -5.8740  -23.8050  -49.7663 C.3       16 UNK         0.1400 
     91 CB         -7.2199  -24.2714  -50.3617 C.3       16 UNK        -0.1800 
     92 C          -5.2446  -22.6335  -50.5550 C.2       16 UNK         0.5000 
     93 O          -5.8885  -22.0635  -51.4373 O.2       16 UNK        -0.5000 
     94 N          -3.9675  -22.3424  -50.2598 N.am      17 UNK        -0.5000 
     95 CA         -3.1018  -21.3827  -50.9561 C.3       17 UNK         0.1400 
     96 CB         -3.6054  -19.9352  -50.7717 C.3       17 UNK        -0.1800 
     97 C          -2.8840  -21.7720  -52.4318 C.2       17 UNK         0.5000 
     98 O          -2.9413  -20.9156  -53.3143 O.2       17 UNK        -0.5000 
     99 N          -2.6818  -23.0788  -52.6631 N.am      18 UNK        -0.5000 
    100 CA        -2.5895  -23.7515  -53.9638 C.3       18 UNK         0.1400 
    101 CB        -1.3083  -23.3226  -54.7071 C.3       18 UNK        -0.1800 
    102 C         -3.8695  -23.5500  -54.8005 C.2       18 UNK         0.5000 
    103 O         -3.7929  -23.1544  -55.9627 O.2       18 UNK        -0.5000 
    104 N         -5.0291  -23.7677  -54.1632 N.am      19 UNK        -0.5000 
    105 CA        -6.3780  -23.4732  -54.6635 C.3       19 UNK         0.1400 
    106 CB        -6.7659  -24.4549  -55.7882 C.3       19 UNK        -0.1800 
    107 C         -6.5401  -21.9892  -55.0666 C.2       19 UNK         0.5000 
    108 O         -7.0656  -21.6839  -56.1386 O.2       19 UNK        -0.5000 
    109 N         -6.0428  -21.1018  -54.1940 N.am      20 UNK        -0.5000 
    110 CA        -5.9749  -19.6425  -54.3188 C.3       20 UNK         0.1400 
    111 CB        -7.3910  -19.0312  -54.3559 C.3       20 UNK        -0.1800 
    112 C         -5.0722  -19.1202  -55.4615 C.2       20 UNK         0.5000 
    113 O         -5.1769  -17.9443  -55.8152 O.2       20 UNK        -0.5000 
    114 N         -4.1870  -19.9665  -56.0091 N.am      21 UNK        -0.5000 
    115 CA        -3.2015  -19.5798  -57.0245 C.3       21 UNK         0.1400 
    116 CB        -2.8282  -20.8056  -57.8716 C.3       21 UNK        -0.1800 
    117 C         -1.9333  -18.9399  -56.4236 C.2       21 UNK         0.5000 
    118 O         -1.1585  -18.3425  -57.1714 O.2       21 UNK        -0.5000 
    119 N         -1.7332  -19.0883  -55.1066 N.am      22 UNK        -0.5000 
    120 CA        -0.6028  -18.5830  -54.3046 C.3       22 UNK         0.1400 
    121 C          0.7323  -19.3673  -54.4839 C.2       22 UNK         0.5000 
    122 N          0.7881  -20.4294  -55.2771 N.am      22 UNK        -0.7600 
    123 O          1.7359  -19.0251  -53.8646 O.2       22 UNK        -0.5000 
    124 C124       -0.3797  -17.0480  -54.4205 C.3       23 UNK        -0.0398 
    125 S125       -1.8642  -16.0563  -54.0312 S.3       23 UNK        -0.2404 
    126 C126       -1.2983  -15.0802  -52.6033 C.3       23 UNK        -0.0205 
    127 H127       -0.9959   -9.2861  -50.9626 H         1 UNK         0.0600 
    128 H128       -2.6449   -9.6683  -50.4590 H         1 UNK         0.0600 
    129 H129       -2.0154  -10.3119  -51.9781 H         1 UNK         0.0600 
    130 H130       -2.6908  -11.1904  -48.8283 H         1 UNK         0.3000 
    131 H131       -1.2690  -13.6846  -48.9890 H         1 UNK         0.0600 
    132 H132       -2.8603  -12.5317  -46.6325 H         1 UNK         0.0800 
    133 H133       -2.3584  -14.1918  -46.8046 H         1 UNK         0.0800 
    134 H134       -5.0568  -15.8160  -48.9277 H         1 UNK         0.0800 
    135 H135       -4.1268  -15.9388  -47.4540 H         1 UNK         0.0800 
    136 H136       -3.3725  -14.6229  -50.9209 H         1 UNK         0.1150 
    137 H137        0.1104  -17.0785  -51.3656 H         1 UNK         0.1150 
    138 H138       -2.2861  -17.3569  -47.8169 H         1 UNK         0.1150 
    139 H139        0.4532  -18.9276  -49.8854 H         1 UNK         0.0800 
    140 H140        0.6590  -18.0783  -48.3659 H         1 UNK         0.0800 
    141 H141        0.0333  -21.5864  -49.4157 H         1 UNK         0.0800 
    142 H142        1.1006  -20.9607  -48.1946 H         1 UNK         0.0800 
    143 H143        0.2710  -23.3177  -47.8154 H         1 UNK         0.0600 
    144 H144        0.4261  -21.2999  -45.8194 H         1 UNK         0.3000 
    145 H145        0.3568  -23.6353  -43.0473 H         1 UNK         0.0600 
    146 H146        2.4580  -22.3507  -42.6294 H         1 UNK         0.0600 
    147 H147        2.4797  -21.8272  -44.3126 H         1 UNK         0.0600 
    148 H148        2.6716  -23.5286  -43.9171 H         1 UNK         0.0600 
    149 H149        0.5332  -20.8340  -42.9696 H         1 UNK         0.3000 
    150 H150       -2.9572  -20.0776  -42.7914 H         1 UNK         0.0600 
    151 H151       -2.2817  -20.8059  -40.5247 H         1 UNK         0.0600 
    152 H152       -2.1184  -19.0636  -40.6802 H         1 UNK         0.0600 
    153 H153       -0.6883  -20.0926  -40.7291 H         1 UNK         0.0600 
    154 H154       -0.3365  -18.7218  -42.7843 H         1 UNK         0.3000 
    155 H155       -0.5996  -17.6636  -46.1443 H         1 UNK         0.0600 
    156 H156       -2.1626  -16.0440  -44.9826 H         1 UNK         0.0600 
    157 H157       -0.5857  -15.3757  -45.3426 H         1 UNK         0.0600 
    158 H158       -0.9753  -15.8750  -43.6942 H         1 UNK         0.0600 
    159 H159        1.2003  -16.9019  -44.0612 H         1 UNK         0.3000 
    160 H160        3.4187  -19.6970  -44.4181 H         1 UNK         0.0600 
    161 H161        3.7567  -16.7451  -45.1278 H         1 UNK         0.0600 
    162 H162        3.9060  -18.0575  -46.2935 H         1 UNK         0.0600 
    163 H163        5.0291  -17.9485  -44.9470 H         1 UNK         0.0600 
    164 H164        3.8308  -17.5215  -42.7944 H         1 UNK         0.3000 
    165 H165        1.8227  -17.8202  -40.0951 H         1 UNK         0.0600 
    166 H166        3.5981  -18.8117  -38.6593 H         1 UNK         0.0600 
    167 H167        2.7720  -20.0633  -39.5720 H         1 UNK         0.0600 
    168 H168        4.3706  -19.5277  -40.0749 H         1 UNK         0.0600 
    169 H169        4.6186  -17.1036  -40.3609 H         1 UNK         0.3000 
    170 H170        4.8624  -14.5607  -40.1989 H         1 UNK         0.0600 
    171 H171        5.0098  -15.3280  -43.1797 H         1 UNK         0.0600 
    172 H172        6.2251  -14.3827  -42.3255 H         1 UNK         0.0600 
    173 H173        5.9542  -16.0566  -41.8824 H         1 UNK         0.0600 
    174 H174        3.1338  -13.5392  -42.3830 H         1 UNK         0.3000 
    175 H175        2.7877  -10.4663  -40.8810 H         1 UNK         0.0600 
    176 H176        4.5573  -10.6866  -43.3787 H         1 UNK         0.0600 
    177 H177        3.5838   -9.2865  -42.9253 H         1 UNK         0.0600 
    178 H178        4.9449   -9.7708  -41.9273 H         1 UNK         0.0600 
    179 H179        2.2340  -11.4479  -43.5520 H         1 UNK         0.3000 
    180 H180       -0.1894  -13.7058  -42.8601 H         1 UNK         0.0600 
    181 H181       -1.1576  -10.8800  -43.5517 H         1 UNK         0.0600 
    182 H182       -1.7798  -11.8782  -42.2421 H         1 UNK         0.0600 
    183 H183       -2.0095  -12.3831  -43.9079 H         1 UNK         0.0600 
    184 H184        0.1692  -12.1030  -45.2099 H         1 UNK         0.3000 
    185 H185        2.3454  -12.5846  -46.6918 H         1 UNK         0.0600 
    186 H186        2.2875  -15.6464  -46.7556 H         1 UNK         0.0600 
    187 H187        2.9719  -14.6035  -48.0013 H         1 UNK         0.0600 
    188 H188        3.6977  -14.6477  -46.4051 H         1 UNK         0.0600 
    189 H189        0.3891  -14.4667  -47.7080 H         1 UNK         0.3000 
    190 H190       -2.2262  -21.6134  -45.9970 H         1 UNK         0.3000 
    191 H191       -4.4783  -22.4856  -47.5079 H         1 UNK         0.0600 
    192 H192       -4.6000  -20.5263  -46.0352 H         1 UNK         0.0600 
    193 H193       -4.3000  -21.5214  -44.6136 H         1 UNK         0.0600 
    194 H194       -5.7838  -21.7235  -45.5346 H         1 UNK         0.0600 
    195 H195       -2.9529  -23.7062  -44.4941 H         1 UNK         0.3000 
    196 H196       -4.6100  -25.9816  -44.1377 H         1 UNK         0.0600 
    197 H197       -3.1889  -25.0295  -42.3440 H         1 UNK         0.0600 
    198 H198       -1.7280  -25.4523  -43.2336 H         1 UNK         0.0600 
    199 H199       -2.7754  -26.7184  -42.6013 H         1 UNK         0.0600 
    200 H200       -1.5627  -25.5528  -45.9646 H         1 UNK         0.3000 
    201 H201       -1.1368  -28.2809  -46.5839 H         1 UNK         0.0600 
    202 H202        0.6658  -26.6228  -46.7140 H         1 UNK         0.0600 
    203 H203       -0.1641  -25.7482  -48.0000 H         1 UNK         0.0600 
    204 H204        0.4574  -27.3680  -48.2896 H         1 UNK         0.0600 
    205 H205       -2.5672  -25.6730  -48.6790 H         1 UNK         0.3000 
    206 H206       -4.0764  -27.6697  -50.2258 H         1 UNK         0.0600 
    207 H207       -1.7627  -27.8872  -51.1702 H         1 UNK         0.0600 
    208 H208       -1.7202  -26.1542  -51.4817 H         1 UNK         0.0600 
    209 H209       -2.8507  -27.1900  -52.3480 H         1 UNK         0.0600 
    210 H210       -4.7647  -25.2218  -48.6547 H         1 UNK         0.3000 
    211 H211       -6.0883  -23.4277  -48.7676 H         1 UNK         0.0600 
    212 H212       -7.1151  -24.6202  -51.3892 H         1 UNK         0.0600 
    213 H213       -7.9467  -23.4583  -50.3670 H         1 UNK         0.0600 
    214 H214       -7.6485  -25.0836  -49.7746 H         1 UNK         0.0600 
    215 H215       -3.5023  -22.9026  -49.5515 H         1 UNK         0.3000 
    216 H216       -2.1232  -21.4518  -50.4835 H         1 UNK         0.0600 
    217 H217       -2.9004  -19.2189  -51.1957 H         1 UNK         0.0600 
    218 H218       -3.7165  -19.6895  -49.7157 H         1 UNK         0.0600 
    219 H219       -4.5678  -19.7701  -51.2541 H         1 UNK         0.0600 
    220 H220       -2.7154  -23.6982  -51.8670 H         1 UNK         0.3000 
    221 H221       -2.5158  -24.8209  -53.7614 H         1 UNK         0.0600 
    222 H222       -1.3428  -22.2716  -54.9910 H         1 UNK         0.0600 
    223 H223       -0.4229  -23.4749  -54.0901 H         1 UNK         0.0600 
    224 H224       -1.1739  -23.9034  -55.6202 H         1 UNK         0.0600 
    225 H225       -4.9784  -24.1375  -53.2169 H         1 UNK         0.3000 
    226 H226       -7.0590  -23.6400  -53.8277 H         1 UNK         0.0600 
    227 H227       -6.6596  -25.4891  -55.4610 H         1 UNK         0.0600 
    228 H228       -7.8051  -24.3144  -56.0874 H         1 UNK         0.0600 
    229 H229       -6.1485  -24.3189  -56.6766 H         1 UNK         0.0600 
    230 H230       -5.6774  -21.4702  -53.3202 H         1 UNK         0.3000 
    231 H231       -5.5001  -19.2972  -53.4002 H         1 UNK         0.0600 
    232 H232       -7.3522  -17.9444  -54.2738 H         1 UNK         0.0600 
    233 H233       -7.9986  -19.3944  -53.5270 H         1 UNK         0.0600 
    234 H234       -7.9108  -19.2692  -55.2842 H         1 UNK         0.0600 
    235 H235       -4.1465  -20.9212  -55.6731 H         1 UNK         0.3000 
    236 H236       -3.6545  -18.8441  -57.6922 H         1 UNK         0.0600 
    237 H237       -2.2546  -21.5332  -57.2973 H         1 UNK         0.0600 
    238 H238       -3.7154  -21.3057  -58.2606 H         1 UNK         0.0600 
    239 H239       -2.2169  -20.5148  -58.7266 H         1 UNK         0.0600 
    240 H240       -2.3952  -19.6554  -54.5816 H         1 UNK         0.3000 
    241 H241       -0.8935  -18.7819  -53.2724 H         1 UNK         0.0600 
    242 H242        1.6568  -20.9308  -55.3739 H         1 UNK         0.3800 
    243 H243       -0.0220  -20.7169  -55.7997 H         1 UNK         0.3800 
    244 H244       -0.0506  -16.7827  -55.4255 H         1 UNK         0.0800 
    245 H245        0.4338  -16.7393  -53.7636 H         1 UNK         0.0800 
    246 H246       -1.8016  -14.1124  -52.6319 H         1 UNK         0.0800 
    247 H247       -0.2341  -14.8542  -52.6814 H         1 UNK         0.0800 
@<TRIPOS>BOND
     1    1    2 1    
     2    1  127 1    
     3    1  128 1    
     4    1  129 1    
     5    2    3 2    
     6    2    4 am   BACKBONE|DICT|INTERRES
     7    4    5 1    
     8    4  130 1    
     9    5    6 1    
    10    5   65 1    
    11    5  131 1    
    12    6    7 1    
    13    6  132 1    
    14    6  133 1    
    15    7    8 1    
    16    8    9 1    
    17    8  134 1    
    18    8  135 1    
    19    9   10 ar   
    20    9   14 ar   
    21   10   11 ar   
    22   10  136 1    
    23   11   12 ar   
    24   11  126 1    
    25   12   13 ar   
    26   12  137 1    
    27   13   14 ar   
    28   13   15 1    
    29   14  138 1    
    30   15   16 1    
    31   15  139 1    
    32   15  140 1    
    33   16   17 1    
    34   17   18 1    
    35   17  141 1    
    36   17  142 1    
    37   18   19 1    
    38   18   67 1    
    39   18  143 1    
    40   19   20 am   BACKBONE|DICT|INTERRES
    41   19  144 1    
    42   20   21 2    
    43   20   22 1    
    44   22   23 1    
    45   22   24 1    
    46   22  145 1    
    47   23  146 1    
    48   23  147 1    
    49   23  148 1    
    50   24   25 am   BACKBONE|DICT|INTERRES
    51   24  149 1    
    52   25   26 2    
    53   25   27 1    
    54   27   28 1    
    55   27   29 1    
    56   27  150 1    
    57   28  151 1    
    58   28  152 1    
    59   28  153 1    
    60   29   30 am   BACKBONE|DICT|INTERRES
    61   29  154 1    
    62   30   31 2    
    63   30   32 1    
    64   32   33 1    
    65   32   34 1    
    66   32  155 1    
    67   33  156 1    
    68   33  157 1    
    69   33  158 1    
    70   34   35 am   BACKBONE|DICT|INTERRES
    71   34  159 1    
    72   35   36 2    
    73   35   37 1    
    74   37   38 1    
    75   37   39 1    
    76   37  160 1    
    77   38  161 1    
    78   38  162 1    
    79   38  163 1    
    80   39   40 am   BACKBONE|DICT|INTERRES
    81   39  164 1    
    82   40   41 2    
    83   40   42 1    
    84   42   43 1    
    85   42   44 1    
    86   42  165 1    
    87   43  166 1    
    88   43  167 1    
    89   43  168 1    
    90   44   45 am   BACKBONE|DICT|INTERRES
    91   44  169 1    
    92   45   46 2    
    93   45   47 1    
    94   47   48 1    
    95   47   49 1    
    96   47  170 1    
    97   48  171 1    
    98   48  172 1    
    99   48  173 1    
   100   49   50 am   BACKBONE|DICT|INTERRES
   101   49  174 1    
   102   50   51 2    
   103   50   52 1    
   104   52   53 1    
   105   52   54 1    
   106   52  175 1    
   107   53  176 1    
   108   53  177 1    
   109   53  178 1    
   110   54   55 am   BACKBONE|DICT|INTERRES
   111   54  179 1    
   112   55   56 2    
   113   55   57 1    
   114   57   58 1    
   115   57   59 1    
   116   57  180 1    
   117   58  181 1    
   118   58  182 1    
   119   58  183 1    
   120   59   60 am   BACKBONE|DICT|INTERRES
   121   59  184 1    
   122   60   61 2    
   123   60   62 1    
   124   62   63 1    
   125   62   64 1    
   126   62  185 1    
   127   63  186 1    
   128   63  187 1    
   129   63  188 1    
   130   64   65 am   BACKBONE|DICT|INTERRES
   131   64  189 1    
   132   65   66 2    
   133   67   68 2    
   134   67   69 am   BACKBONE|DICT|INTERRES
   135   69   70 1    
   136   69  190 1    
   137   70   71 1    
   138   70   72 1    
   139   70  191 1    
   140   71  192 1    
   141   71  193 1    
   142   71  194 1    
   143   72   73 2    
   144   72   74 am   BACKBONE|DICT|INTERRES
   145   74   75 1    
   146   74  195 1    
   147   75   76 1    
   148   75   77 1    
   149   75  196 1    
   150   76  197 1    
   151   76  198 1    
   152   76  199 1    
   153   77   78 2    
   154   77   79 am   BACKBONE|DICT|INTERRES
   155   79   80 1    
   156   79  200 1    
   157   80   81 1    
   158   80   82 1    
   159   80  201 1    
   160   81  202 1    
   161   81  203 1    
   162   81  204 1    
   163   82   83 2    
   164   82   84 am   BACKBONE|DICT|INTERRES
   165   84   85 1    
   166   84  205 1    
   167   85   86 1    
   168   85   87 1    
   169   85  206 1    
   170   86  207 1    
   171   86  208 1    
   172   86  209 1    
   173   87   88 2    
   174   87   89 am   BACKBONE|DICT|INTERRES
   175   89   90 1    
   176   89  210 1    
   177   90   91 1    
   178   90   92 1    
   179   90  211 1    
   180   91  212 1    
   181   91  213 1    
   182   91  214 1    
   183   92   93 2    
   184   92   94 am   BACKBONE|DICT|INTERRES
   185   94   95 1    
   186   94  215 1    
   187   95   96 1    
   188   95   97 1    
   189   95  216 1    
   190   96  217 1    
   191   96  218 1    
   192   96  219 1    
   193   97   98 2    
   194   97   99 am   BACKBONE|DICT|INTERRES
   195   99  100 1    
   196   99  220 1    
   197  100  101 1    
   198  100  102 1    
   199  100  221 1    
   200  101  222 1    
   201  101  223 1    
   202  101  224 1    
   203  102  103 2    
   204  102  104 am   BACKBONE|DICT|INTERRES
   205  104  105 1    
   206  104  225 1    
   207  105  106 1    
   208  105  107 1    
   209  105  226 1    
   210  106  227 1    
   211  106  228 1    
   212  106  229 1    
   213  107  108 2    
   214  107  109 am   BACKBONE|DICT|INTERRES
   215  109  110 1    
   216  109  230 1    
   217  110  111 1    
   218  110  112 1    
   219  110  231 1    
   220  111  232 1    
   221  111  233 1    
   222  111  234 1    
   223  112  113 2    
   224  112  114 am   BACKBONE|DICT|INTERRES
   225  114  115 1    
   226  114  235 1    
   227  115  116 1    
   228  115  117 1    
   229  115  236 1    
   230  116  237 1    
   231  116  238 1    
   232  116  239 1    
   233  117  118 2    
   234  117  119 am   BACKBONE|DICT|INTERRES
   235  119  120 1    
   236  119  240 1    
   237  120  121 1    
   238  120  124 1    
   239  120  241 1    
   240  121  122 am   BACKBONE|DICT|INTERRES
   241  121  123 2    
   242  122  242 1    
   243  122  243 1    
   244  124  125 1    
   245  124  244 1    
   246  124  245 1    
   247  125  126 1    
   248  126  246 1    
   249  126  247 1    
@<TRIPOS>SUBSTRUCTURE
     1 UNK         1 GROUP             0       ****    0 ROOT    
