@<TRIPOS>MOLECULE
3R540
247   249    1
SMALL
USER_CHARGES


@<TRIPOS>ATOM
      1 CA          4.9154  -17.7120  -47.0975 C.3       0 UNK        -0.1800 
      2 C           4.1472  -16.5482  -47.7070 C.2       0 UNK         0.5000 
      3 O           4.7613  -15.6563  -48.2887 O.2       0 UNK        -0.5000 
      4 N           2.8169  -16.5662  -47.5582 N.am      1 UNK        -0.5000 
      5 CA          1.7755  -15.6629  -48.0763 C.3       1 UNK         0.1400 
      6 C6          1.3993  -15.9333  -49.5606 C.3       23 UNK        -0.0398 
      7 S7          2.2884  -14.9951  -50.8636 S.3       23 UNK        -0.2404 
      8 C8          3.5907  -16.1208  -51.4744 C.3       23 UNK        -0.0205 
      9 C9          3.1031  -17.5388  -51.7260 C.ar      23 UNK        -0.0193 
     10 C10         2.3640  -17.8513  -52.8697 C.ar      23 UNK        -0.1150 
     11 C11         1.9154  -19.1584  -53.0851 C.ar      23 UNK        -0.0193 
     12 C12         2.1956  -20.1507  -52.1376 C.ar      23 UNK        -0.1150 
     13 C13         2.9299  -19.8455  -50.9884 C.ar      23 UNK        -0.0193 
     14 C14         3.3986  -18.5443  -50.8038 C.ar      23 UNK        -0.1150 
     15 C15         3.2346  -20.9069  -49.9419 C.3       23 UNK        -0.0205 
     16 S16         2.4295  -20.5287  -48.3511 S.3       23 UNK        -0.2404 
     17 C17         0.7359  -21.1526  -48.6169 C.3       23 UNK        -0.0398 
     18 CA          0.4139  -22.3039  -47.6351 C.3       11 UNK         0.1400 
     19 N           0.3615  -21.8555  -46.2391 N.am      11 UNK        -0.5000 
     20 C           0.3558  -22.6791  -45.1815 C.2       10 UNK         0.5000 
     21 O           0.4331  -23.9042  -45.2712 O.2       10 UNK        -0.5000 
     22 CA          0.1782  -22.0288  -43.7964 C.3       10 UNK         0.1400 
     23 CB          1.4941  -21.3957  -43.3209 C.3       10 UNK        -0.1800 
     24 N          -0.8884  -21.0252  -43.7786 N.am      10 UNK        -0.5000 
     25 C          -2.1775  -21.2817  -44.0469 C.2       9 UNK         0.5000 
     26 O          -2.6157  -22.4093  -44.2659 O.2       9 UNK        -0.5000 
     27 CA         -3.1303  -20.0770  -44.1420 C.3       9 UNK         0.1400 
     28 CB         -3.6972  -19.7194  -42.7606 C.3       9 UNK        -0.1800 
     29 N          -2.4947  -18.8988  -44.7278 N.am      9 UNK        -0.5000 
     30 C          -2.0030  -18.8187  -45.9722 C.2       8 UNK         0.5000 
     31 O          -2.0778  -19.7277  -46.7995 O.2       8 UNK        -0.5000 
     32 CA         -1.2330  -17.5331  -46.3161 C.3       8 UNK         0.1400 
     33 CB         -2.1754  -16.3587  -46.6193 C.3       8 UNK        -0.1800 
     34 N          -0.3384  -17.1662  -45.2186 N.am      8 UNK        -0.5000 
     35 C           0.8565  -17.7317  -45.0068 C.2       7 UNK         0.5000 
     36 O           1.3751  -18.5258  -45.7895 O.2       7 UNK        -0.5000 
     37 CA          1.6137  -17.3428  -43.7253 C.3       7 UNK         0.1400 
     38 CB          2.7781  -16.4000  -44.0484 C.3       7 UNK        -0.1800 
     39 N           0.7560  -16.7296  -42.7097 N.am      7 UNK        -0.5000 
     40 C          -0.0844  -17.4298  -41.9382 C.2       6 UNK         0.5000 
     41 O          -0.2452  -18.6466  -42.0401 O.2       6 UNK        -0.5000 
     42 CA         -0.9135  -16.6342  -40.9141 C.3       6 UNK         0.1400 
     43 CB         -0.0253  -16.1376  -39.7628 C.3       6 UNK        -0.1800 
     44 N          -1.6532  -15.5008  -41.4788 N.am      6 UNK        -0.5000 
     45 C          -2.5208  -15.5621  -42.4986 C.2       5 UNK         0.5000 
     46 O          -2.6992  -16.5674  -43.1819 O.2       5 UNK        -0.5000 
     47 CA         -3.3278  -14.2931  -42.8300 C.3       5 UNK         0.1400 
     48 CB         -4.7650  -14.4390  -42.3088 C.3       5 UNK        -0.1800 
     49 N          -2.7473  -13.0709  -42.2664 N.am      5 UNK        -0.5000 
     50 C          -1.7280  -12.3509  -42.7559 C.2       4 UNK         0.5000 
     51 O          -1.3263  -11.3434  -42.1720 O.2       4 UNK        -0.5000 
     52 CA         -1.0692  -12.7553  -44.0967 C.3       4 UNK         0.1400 
     53 CB         -1.7828  -12.0769  -45.2765 C.3       4 UNK        -0.1800 
     54 N           0.3424  -12.3867  -44.1337 N.am      4 UNK        -0.5000 
     55 C           1.3005  -12.9346  -43.3787 C.2       3 UNK         0.5000 
     56 O           1.1069  -13.8845  -42.6162 O.2       3 UNK        -0.5000 
     57 CA          2.7123  -12.3466  -43.5643 C.3       3 UNK         0.1400 
     58 CB          3.7501  -12.9344  -42.5927 C.3       3 UNK        -0.1800 
     59 N           3.1655  -12.5515  -44.9406 N.am      3 UNK        -0.5000 
     60 C           2.9024  -11.7270  -45.9628 C.2       2 UNK         0.5000 
     61 O           2.2913  -10.6642  -45.8420 O.2       2 UNK        -0.5000 
     62 CA          3.3588  -12.1908  -47.3566 C.3       2 UNK         0.1400 
     63 CB          4.8571  -11.9199  -47.5594 C.3       2 UNK        -0.1800 
     64 N           3.0857  -13.6062  -47.6103 N.am      2 UNK        -0.5000 
     65 C           1.8723  -14.1608  -47.7123 C.2       1 UNK         0.5000 
     66 O           0.8294  -13.5332  -47.5273 O.2       1 UNK        -0.5000 
     67 C          -0.8743  -23.0472  -48.0403 C.2       11 UNK         0.5000 
     68 O          -0.7928  -24.0495  -48.7520 O.2       11 UNK        -0.5000 
     69 N          -2.0329  -22.5809  -47.5521 N.am      12 UNK        -0.5000 
     70 CA         -3.3259  -23.2300  -47.7658 C.3       12 UNK         0.1400 
     71 CB         -4.4646  -22.3075  -47.3179 C.3       12 UNK        -0.1800 
     72 C          -3.4255  -24.6116  -47.0978 C.2       12 UNK         0.5000 
     73 O          -3.9260  -25.5493  -47.7171 O.2       12 UNK        -0.5000 
     74 N          -2.9047  -24.7330  -45.8710 N.am      13 UNK        -0.5000 
     75 CA         -2.7869  -26.0010  -45.1514 C.3       13 UNK         0.1400 
     76 CB         -2.3503  -25.7278  -43.7042 C.3       13 UNK        -0.1800 
     77 C          -1.8199  -26.9845  -45.8384 C.2       13 UNK         0.5000 
     78 O          -2.0732  -28.1898  -45.8281 O.2       13 UNK        -0.5000 
     79 N          -0.7394  -26.4534  -46.4261 N.am      14 UNK        -0.5000 
     80 CA          0.2768  -27.2233  -47.1359 C.3       14 UNK         0.1400 
     81 CB          1.5552  -26.3822  -47.2781 C.3       14 UNK        -0.1800 
     82 C          -0.1903  -27.7360  -48.5102 C.2       14 UNK         0.5000 
     83 O           0.0271  -28.9117  -48.8085 O.2       14 UNK        -0.5000 
     84 N          -0.7773  -26.8573  -49.3375 N.am      15 UNK        -0.5000 
     85 CA         -0.9859  -27.1239  -50.7646 C.3       15 UNK         0.1400 
     86 CB          0.3117  -26.7974  -51.5337 C.3       15 UNK        -0.1800 
     87 C          -2.2147  -26.4104  -51.3600 C.2       15 UNK         0.5000 
     88 O          -2.2025  -26.0862  -52.5492 O.2       15 UNK        -0.5000 
     89 N          -3.2588  -26.1760  -50.5510 N.am      16 UNK        -0.5000 
     90 CA         -4.5618  -25.5697  -50.8869 C.3       16 UNK         0.1400 
     91 CB         -5.2990  -26.3607  -51.9844 C.3       16 UNK        -0.1800 
     92 C          -4.5054  -24.0674  -51.2283 C.2       16 UNK         0.5000 
     93 O          -5.3442  -23.3071  -50.7408 O.2       16 UNK        -0.5000 
     94 N          -3.5085  -23.6644  -52.0276 N.am      17 UNK        -0.5000 
     95 CA         -3.1074  -22.2943  -52.3640 C.3       17 UNK         0.1400 
     96 CB         -2.3811  -21.6586  -51.1608 C.3       17 UNK        -0.1800 
     97 C          -4.2577  -21.4120  -52.8876 C.2       17 UNK         0.5000 
     98 O          -4.3201  -20.2309  -52.5522 O.2       17 UNK        -0.5000 
     99 N          -5.1804  -22.0079  -53.6580 N.am      18 UNK        -0.5000 
    100 CA        -6.4049  -21.3907  -54.1870 C.3       18 UNK         0.1400 
    101 CB        -6.0578  -20.4077  -55.3250 C.3       18 UNK        -0.1800 
    102 C         -7.2810  -20.7470  -53.0858 C.2       18 UNK         0.5000 
    103 O         -7.7914  -19.6413  -53.2707 O.2       18 UNK        -0.5000 
    104 N         -7.3940  -21.4407  -51.9419 N.am      19 UNK        -0.5000 
    105 CA        -8.0429  -21.0011  -50.7018 C.3       19 UNK         0.1400 
    106 CB        -9.5587  -20.7885  -50.9013 C.3       19 UNK        -0.1800 
    107 C         -7.3250  -19.7863  -50.0768 C.2       19 UNK         0.5000 
    108 O         -7.9656  -18.7982  -49.7161 O.2       19 UNK        -0.5000 
    109 N         -5.9919  -19.8967  -49.9842 N.am      20 UNK        -0.5000 
    110 CA        -5.0245  -18.9427  -49.4227 C.3       20 UNK         0.1400 
    111 CB        -5.3943  -18.5585  -47.9730 C.3       20 UNK        -0.1800 
    112 C         -4.7546  -17.6901  -50.2846 C.2       20 UNK         0.5000 
    113 O         -3.8789  -16.9037  -49.9226 O.2       20 UNK        -0.5000 
    114 N         -5.4762  -17.5092  -51.3988 N.am      21 UNK        -0.5000 
    115 CA        -5.3064  -16.3761  -52.3115 C.3       21 UNK         0.1400 
    116 CB        -6.5550  -16.2526  -53.1982 C.3       21 UNK        -0.1800 
    117 C         -4.0383  -16.4963  -53.1780 C.2       21 UNK         0.5000 
    118 O         -3.3505  -15.4994  -53.3984 O.2       21 UNK        -0.5000 
    119 N         -3.7682  -17.7202  -53.6450 N.am      22 UNK        -0.5000 
    120 CA        -2.6258  -18.1575  -54.4615 C.3       22 UNK         0.1400 
    121 C         -2.3806  -17.3881  -55.7968 C.2       22 UNK         0.5000 
    122 N         -3.3896  -16.7503  -56.3774 N.am      22 UNK        -0.7600 
    123 O         -1.2767  -17.3888  -56.3349 O.2       22 UNK        -0.5000 
    124 C124       -1.3487  -18.3812  -53.6019 C.3       23 UNK        -0.0398 
    125 S125       -0.5684  -19.9871  -53.9878 S.3       23 UNK        -0.2404 
    126 C126        1.1455  -19.5065  -54.3498 C.3       23 UNK        -0.0205 
    127 H127        4.2477  -18.4483  -46.6486 H         1 UNK         0.0600 
    128 H128        5.5943  -17.3508  -46.3252 H         1 UNK         0.0600 
    129 H129        5.5050  -18.2147  -47.8640 H         1 UNK         0.0600 
    130 H130        2.4325  -17.3565  -47.0487 H         1 UNK         0.3000 
    131 H131        0.9056  -15.9887  -47.5086 H         1 UNK         0.0600 
    132 H132        1.4268  -17.0024  -49.7626 H         1 UNK         0.0800 
    133 H133        0.3481  -15.6702  -49.6903 H         1 UNK         0.0800 
    134 H134        3.9937  -15.7116  -52.4017 H         1 UNK         0.0800 
    135 H135        4.4232  -16.1256  -50.7722 H         1 UNK         0.0800 
    136 H136        2.1421  -17.0764  -53.5901 H         1 UNK         0.1150 
    137 H137        1.8393  -21.1585  -52.2986 H         1 UNK         0.1150 
    138 H138        3.9749  -18.3116  -49.9215 H         1 UNK         0.1150 
    139 H139        2.9405  -21.9004  -50.2836 H         1 UNK         0.0800 
    140 H140        4.3136  -20.9447  -49.7859 H         1 UNK         0.0800 
    141 H141        0.6357  -21.4832  -49.6522 H         1 UNK         0.0800 
    142 H142        0.0339  -20.3264  -48.4925 H         1 UNK         0.0800 
    143 H143        1.2230  -23.0336  -47.7100 H         1 UNK         0.0600 
    144 H144        0.3083  -20.8574  -46.0881 H         1 UNK         0.3000 
    145 H145       -0.0964  -22.8157  -43.0909 H         1 UNK         0.0600 
    146 H146        1.3881  -20.9609  -42.3268 H         1 UNK         0.0600 
    147 H147        2.2868  -22.1428  -43.2664 H         1 UNK         0.0600 
    148 H148        1.8319  -20.6110  -43.9977 H         1 UNK         0.0600 
    149 H149       -0.6285  -20.0809  -43.5179 H         1 UNK         0.3000 
    150 H150       -3.9631  -20.3580  -44.7887 H         1 UNK         0.0600 
    151 H151       -4.4286  -18.9142  -42.8321 H         1 UNK         0.0600 
    152 H152       -4.1985  -20.5766  -42.3096 H         1 UNK         0.0600 
    153 H153       -2.9132  -19.3971  -42.0746 H         1 UNK         0.0600 
    154 H154       -2.4312  -18.0825  -44.1229 H         1 UNK         0.3000 
    155 H155       -0.6434  -17.7313  -47.2137 H         1 UNK         0.0600 
    156 H156       -2.8798  -16.1746  -45.8083 H         1 UNK         0.0600 
    157 H157       -2.7565  -16.5541  -47.5194 H         1 UNK         0.0600 
    158 H158       -1.6170  -15.4384  -46.7934 H         1 UNK         0.0600 
    159 H159       -0.7140  -16.5593  -44.5045 H         1 UNK         0.3000 
    160 H160        2.0389  -18.2581  -43.3085 H         1 UNK         0.0600 
    161 H161        2.4374  -15.4847  -44.5320 H         1 UNK         0.0600 
    162 H162        3.4942  -16.8805  -44.7134 H         1 UNK         0.0600 
    163 H163        3.3189  -16.1338  -43.1415 H         1 UNK         0.0600 
    164 H164        0.8345  -15.7219  -42.5815 H         1 UNK         0.3000 
    165 H165       -1.6517  -17.3216  -40.4961 H         1 UNK         0.0600 
    166 H166       -0.6231  -15.6913  -38.9680 H         1 UNK         0.0600 
    167 H167        0.5391  -16.9596  -39.3204 H         1 UNK         0.0600 
    168 H168        0.6932  -15.3898  -40.1016 H         1 UNK         0.0600 
    169 H169       -1.5449  -14.6173  -41.0026 H         1 UNK         0.3000 
    170 H170       -3.3848  -14.2091  -43.9161 H         1 UNK         0.0600 
    171 H171       -5.2451  -15.3255  -42.7262 H         1 UNK         0.0600 
    172 H172       -4.7937  -14.5317  -41.2224 H         1 UNK         0.0600 
    173 H173       -5.3753  -13.5801  -42.5889 H         1 UNK         0.0600 
    174 H174       -3.1682  -12.7572  -41.4041 H         1 UNK         0.3000 
    175 H175       -1.1133  -13.8351  -44.2362 H         1 UNK         0.0600 
    176 H176       -1.7135  -10.9900  -45.2157 H         1 UNK         0.0600 
    177 H177       -1.3513  -12.3867  -46.2285 H         1 UNK         0.0600 
    178 H178       -2.8418  -12.3351  -45.3031 H         1 UNK         0.0600 
    179 H179        0.5983  -11.6219  -44.7453 H         1 UNK         0.3000 
    180 H180        2.6440  -11.2771  -43.3536 H         1 UNK         0.0600 
    181 H181        3.9260  -13.9929  -42.7730 H         1 UNK         0.0600 
    182 H182        3.4235  -12.8257  -41.5577 H         1 UNK         0.0600 
    183 H183        4.7065  -12.4197  -42.6857 H         1 UNK         0.0600 
    184 H184        3.6404  -13.4198  -45.1378 H         1 UNK         0.3000 
    185 H185        2.8055  -11.6085  -48.0963 H         1 UNK         0.0600 
    186 H186        5.0910  -10.8678  -47.3917 H         1 UNK         0.0600 
    187 H187        5.4698  -12.5076  -46.8746 H         1 UNK         0.0600 
    188 H188        5.1660  -12.1635  -48.5762 H         1 UNK         0.0600 
    189 H189        3.8824  -14.2057  -47.8214 H         1 UNK         0.3000 
    190 H190       -2.0307  -21.7167  -47.0195 H         1 UNK         0.3000 
    191 H191       -3.4230  -23.3836  -48.8370 H         1 UNK         0.0600 
    192 H192       -4.3743  -21.3306  -47.7878 H         1 UNK         0.0600 
    193 H193       -5.4331  -22.7197  -47.6036 H         1 UNK         0.0600 
    194 H194       -4.4721  -22.1655  -46.2381 H         1 UNK         0.0600 
    195 H195       -2.5751  -23.8994  -45.3899 H         1 UNK         0.3000 
    196 H196       -3.7740  -26.4674  -45.1270 H         1 UNK         0.0600 
    197 H197       -2.2740  -26.6561  -43.1366 H         1 UNK         0.0600 
    198 H198       -3.0691  -25.0895  -43.1901 H         1 UNK         0.0600 
    199 H199       -1.3782  -25.2355  -43.6629 H         1 UNK         0.0600 
    200 H200       -0.5769  -25.4576  -46.3336 H         1 UNK         0.3000 
    201 H201        0.5247  -28.0947  -46.5258 H         1 UNK         0.0600 
    202 H202        1.9386  -26.0794  -46.3036 H         1 UNK         0.0600 
    203 H203        1.3836  -25.4802  -47.8650 H         1 UNK         0.0600 
    204 H204        2.3427  -26.9504  -47.7749 H         1 UNK         0.0600 
    205 H205       -0.8962  -25.8908  -49.0376 H         1 UNK         0.3000 
    206 H206       -1.1952  -28.1867  -50.9017 H         1 UNK         0.0600 
    207 H207        1.1571  -27.3685  -51.1499 H         1 UNK         0.0600 
    208 H208        0.2205  -27.0408  -52.5930 H         1 UNK         0.0600 
    209 H209        0.5612  -25.7384  -51.4570 H         1 UNK         0.0600 
    210 H210       -3.1597  -26.4186  -49.5718 H         1 UNK         0.3000 
    211 H211       -5.1675  -25.6537  -49.9842 H         1 UNK         0.0600 
    212 H212       -4.7915  -26.3030  -52.9475 H         1 UNK         0.0600 
    213 H213       -6.3083  -25.9731  -52.1282 H         1 UNK         0.0600 
    214 H214       -5.3913  -27.4131  -51.7161 H         1 UNK         0.0600 
    215 H215       -2.9058  -24.4018  -52.3876 H         1 UNK         0.3000 
    216 H216       -2.3907  -22.3743  -53.1819 H         1 UNK         0.0600 
    217 H217       -1.9898  -20.6711  -51.4051 H         1 UNK         0.0600 
    218 H218       -1.5345  -22.2706  -50.8528 H         1 UNK         0.0600 
    219 H219       -3.0447  -21.5412  -50.3048 H         1 UNK         0.0600 
    220 H220       -5.0583  -22.9902  -53.8596 H         1 UNK         0.3000 
    221 H221       -6.9994  -22.1982  -54.6164 H         1 UNK         0.0600 
    222 H222       -5.5190  -19.5352  -54.9575 H         1 UNK         0.0600 
    223 H223       -5.4415  -20.8859  -56.0862 H         1 UNK         0.0600 
    224 H224       -6.9610  -20.0477  -55.8189 H         1 UNK         0.0600 
    225 H225       -6.8656  -22.3021  -51.8597 H         1 UNK         0.3000 
    226 H226       -7.9217  -21.8205  -49.9915 H         1 UNK         0.0600 
    227 H227      -10.0267  -21.6720  -51.3353 H         1 UNK         0.0600 
    228 H228      -10.0515  -20.5959  -49.9477 H         1 UNK         0.0600 
    229 H229       -9.7722  -19.9409  -51.5528 H         1 UNK         0.0600 
    230 H230       -5.5774  -20.7296  -50.3818 H         1 UNK         0.3000 
    231 H231       -4.0765  -19.4809  -49.3844 H         1 UNK         0.0600 
    232 H232       -6.2462  -17.8792  -47.9384 H         1 UNK         0.0600 
    233 H233       -4.5642  -18.0552  -47.4799 H         1 UNK         0.0600 
    234 H234       -5.6418  -19.4325  -47.3720 H         1 UNK         0.0600 
    235 H235       -6.1658  -18.2052  -51.6462 H         1 UNK         0.3000 
    236 H236       -5.2223  -15.4627  -51.7186 H         1 UNK         0.0600 
    237 H237       -7.4538  -16.1166  -52.5965 H         1 UNK         0.0600 
    238 H238       -6.4766  -15.3934  -53.8655 H         1 UNK         0.0600 
    239 H239       -6.6991  -17.1385  -53.8180 H         1 UNK         0.0600 
    240 H240       -4.3440  -18.4867  -53.3085 H         1 UNK         0.3000 
    241 H241       -2.9594  -19.1351  -54.8107 H         1 UNK         0.0600 
    242 H242       -4.3014  -16.7360  -55.9500 H         1 UNK         0.3800 
    243 H243       -3.2330  -16.2600  -57.2439 H         1 UNK         0.3800 
    244 H244       -1.5981  -18.4057  -52.5400 H         1 UNK         0.0800 
    245 H245       -0.6389  -17.5601  -53.7134 H         1 UNK         0.0800 
    246 H246        1.6450  -20.3383  -54.8482 H         1 UNK         0.0800 
    247 H247        1.1496  -18.6776  -55.0598 H         1 UNK         0.0800 
@<TRIPOS>BOND
     1    1    2 1    
     2    1  127 1    
     3    1  128 1    
     4    1  129 1    
     5    2    3 2    
     6    2    4 am   BACKBONE|DICT|INTERRES
     7    4    5 1    
     8    4  130 1    
     9    5    6 1    
    10    5   65 1    
    11    5  131 1    
    12    6    7 1    
    13    6  132 1    
    14    6  133 1    
    15    7    8 1    
    16    8    9 1    
    17    8  134 1    
    18    8  135 1    
    19    9   10 ar   
    20    9   14 ar   
    21   10   11 ar   
    22   10  136 1    
    23   11   12 ar   
    24   11  126 1    
    25   12   13 ar   
    26   12  137 1    
    27   13   14 ar   
    28   13   15 1    
    29   14  138 1    
    30   15   16 1    
    31   15  139 1    
    32   15  140 1    
    33   16   17 1    
    34   17   18 1    
    35   17  141 1    
    36   17  142 1    
    37   18   19 1    
    38   18   67 1    
    39   18  143 1    
    40   19   20 am   BACKBONE|DICT|INTERRES
    41   19  144 1    
    42   20   21 2    
    43   20   22 1    
    44   22   23 1    
    45   22   24 1    
    46   22  145 1    
    47   23  146 1    
    48   23  147 1    
    49   23  148 1    
    50   24   25 am   BACKBONE|DICT|INTERRES
    51   24  149 1    
    52   25   26 2    
    53   25   27 1    
    54   27   28 1    
    55   27   29 1    
    56   27  150 1    
    57   28  151 1    
    58   28  152 1    
    59   28  153 1    
    60   29   30 am   BACKBONE|DICT|INTERRES
    61   29  154 1    
    62   30   31 2    
    63   30   32 1    
    64   32   33 1    
    65   32   34 1    
    66   32  155 1    
    67   33  156 1    
    68   33  157 1    
    69   33  158 1    
    70   34   35 am   BACKBONE|DICT|INTERRES
    71   34  159 1    
    72   35   36 2    
    73   35   37 1    
    74   37   38 1    
    75   37   39 1    
    76   37  160 1    
    77   38  161 1    
    78   38  162 1    
    79   38  163 1    
    80   39   40 am   BACKBONE|DICT|INTERRES
    81   39  164 1    
    82   40   41 2    
    83   40   42 1    
    84   42   43 1    
    85   42   44 1    
    86   42  165 1    
    87   43  166 1    
    88   43  167 1    
    89   43  168 1    
    90   44   45 am   BACKBONE|DICT|INTERRES
    91   44  169 1    
    92   45   46 2    
    93   45   47 1    
    94   47   48 1    
    95   47   49 1    
    96   47  170 1    
    97   48  171 1    
    98   48  172 1    
    99   48  173 1    
   100   49   50 am   BACKBONE|DICT|INTERRES
   101   49  174 1    
   102   50   51 2    
   103   50   52 1    
   104   52   53 1    
   105   52   54 1    
   106   52  175 1    
   107   53  176 1    
   108   53  177 1    
   109   53  178 1    
   110   54   55 am   BACKBONE|DICT|INTERRES
   111   54  179 1    
   112   55   56 2    
   113   55   57 1    
   114   57   58 1    
   115   57   59 1    
   116   57  180 1    
   117   58  181 1    
   118   58  182 1    
   119   58  183 1    
   120   59   60 am   BACKBONE|DICT|INTERRES
   121   59  184 1    
   122   60   61 2    
   123   60   62 1    
   124   62   63 1    
   125   62   64 1    
   126   62  185 1    
   127   63  186 1    
   128   63  187 1    
   129   63  188 1    
   130   64   65 am   BACKBONE|DICT|INTERRES
   131   64  189 1    
   132   65   66 2    
   133   67   68 2    
   134   67   69 am   BACKBONE|DICT|INTERRES
   135   69   70 1    
   136   69  190 1    
   137   70   71 1    
   138   70   72 1    
   139   70  191 1    
   140   71  192 1    
   141   71  193 1    
   142   71  194 1    
   143   72   73 2    
   144   72   74 am   BACKBONE|DICT|INTERRES
   145   74   75 1    
   146   74  195 1    
   147   75   76 1    
   148   75   77 1    
   149   75  196 1    
   150   76  197 1    
   151   76  198 1    
   152   76  199 1    
   153   77   78 2    
   154   77   79 am   BACKBONE|DICT|INTERRES
   155   79   80 1    
   156   79  200 1    
   157   80   81 1    
   158   80   82 1    
   159   80  201 1    
   160   81  202 1    
   161   81  203 1    
   162   81  204 1    
   163   82   83 2    
   164   82   84 am   BACKBONE|DICT|INTERRES
   165   84   85 1    
   166   84  205 1    
   167   85   86 1    
   168   85   87 1    
   169   85  206 1    
   170   86  207 1    
   171   86  208 1    
   172   86  209 1    
   173   87   88 2    
   174   87   89 am   BACKBONE|DICT|INTERRES
   175   89   90 1    
   176   89  210 1    
   177   90   91 1    
   178   90   92 1    
   179   90  211 1    
   180   91  212 1    
   181   91  213 1    
   182   91  214 1    
   183   92   93 2    
   184   92   94 am   BACKBONE|DICT|INTERRES
   185   94   95 1    
   186   94  215 1    
   187   95   96 1    
   188   95   97 1    
   189   95  216 1    
   190   96  217 1    
   191   96  218 1    
   192   96  219 1    
   193   97   98 2    
   194   97   99 am   BACKBONE|DICT|INTERRES
   195   99  100 1    
   196   99  220 1    
   197  100  101 1    
   198  100  102 1    
   199  100  221 1    
   200  101  222 1    
   201  101  223 1    
   202  101  224 1    
   203  102  103 2    
   204  102  104 am   BACKBONE|DICT|INTERRES
   205  104  105 1    
   206  104  225 1    
   207  105  106 1    
   208  105  107 1    
   209  105  226 1    
   210  106  227 1    
   211  106  228 1    
   212  106  229 1    
   213  107  108 2    
   214  107  109 am   BACKBONE|DICT|INTERRES
   215  109  110 1    
   216  109  230 1    
   217  110  111 1    
   218  110  112 1    
   219  110  231 1    
   220  111  232 1    
   221  111  233 1    
   222  111  234 1    
   223  112  113 2    
   224  112  114 am   BACKBONE|DICT|INTERRES
   225  114  115 1    
   226  114  235 1    
   227  115  116 1    
   228  115  117 1    
   229  115  236 1    
   230  116  237 1    
   231  116  238 1    
   232  116  239 1    
   233  117  118 2    
   234  117  119 am   BACKBONE|DICT|INTERRES
   235  119  120 1    
   236  119  240 1    
   237  120  121 1    
   238  120  124 1    
   239  120  241 1    
   240  121  122 am   BACKBONE|DICT|INTERRES
   241  121  123 2    
   242  122  242 1    
   243  122  243 1    
   244  124  125 1    
   245  124  244 1    
   246  124  245 1    
   247  125  126 1    
   248  126  246 1    
   249  126  247 1    
@<TRIPOS>SUBSTRUCTURE
     1 UNK         1 GROUP             0       ****    0 ROOT    
