@<TRIPOS>MOLECULE
3R540
247   249    1
SMALL
USER_CHARGES


@<TRIPOS>ATOM
      1 CA         -1.6672  -13.4104  -42.2978 C.3       0 UNK        -0.1800 
      2 C          -1.4807  -12.3216  -43.3448 C.2       0 UNK         0.5000 
      3 O          -1.1131  -11.1966  -43.0014 O.2       0 UNK        -0.5000 
      4 N          -1.7399  -12.6469  -44.6188 N.am      1 UNK        -0.5000 
      5 CA         -1.5428  -11.7585  -45.7681 C.3       1 UNK         0.1400 
      6 C6         -2.1721  -12.3174  -47.0702 C.3       23 UNK        -0.0398 
      7 S7         -1.6069  -13.9822  -47.5737 S.3       23 UNK        -0.2404 
      8 C8         -0.3448  -13.5575  -48.8132 C.3       23 UNK        -0.0205 
      9 C9          0.1172  -14.7819  -49.5867 C.ar      23 UNK        -0.0193 
     10 C10        -0.3751  -15.0296  -50.8714 C.ar      23 UNK        -0.1150 
     11 C11         0.0821  -16.1268  -51.6062 C.ar      23 UNK        -0.0193 
     12 C12         1.0329  -16.9829  -51.0444 C.ar      23 UNK        -0.1150 
     13 C13         1.5128  -16.7644  -49.7480 C.ar      23 UNK        -0.0193 
     14 C14         1.0569  -15.6539  -49.0297 C.ar      23 UNK        -0.1150 
     15 C15         2.5389  -17.7015  -49.1170 C.3       23 UNK        -0.0205 
     16 S16         2.1931  -19.4776  -49.3716 S.3       23 UNK        -0.2404 
     17 C17         0.4525  -19.6128  -48.8433 C.3       23 UNK        -0.0398 
     18 CA          0.1237  -21.0113  -48.2682 C.3       11 UNK         0.1400 
     19 N           0.6749  -21.2116  -46.9239 N.am      11 UNK        -0.5000 
     20 C           0.7245  -22.3904  -46.2877 C.2       10 UNK         0.5000 
     21 O           0.3603  -23.4517  -46.7923 O.2       10 UNK        -0.5000 
     22 CA          1.2195  -22.3802  -44.8286 C.3       10 UNK         0.1400 
     23 CB          2.7536  -22.3430  -44.7597 C.3       10 UNK        -0.1800 
     24 N           0.6606  -21.2673  -44.0608 N.am      10 UNK        -0.5000 
     25 C          -0.6381  -21.1371  -43.7530 C.2       9 UNK         0.5000 
     26 O          -1.4939  -21.9808  -44.0187 O.2       9 UNK        -0.5000 
     27 CA         -1.0601  -19.8225  -43.0735 C.3       9 UNK         0.1400 
     28 CB         -0.8886  -19.9074  -41.5492 C.3       9 UNK        -0.1800 
     29 N          -0.3210  -18.6708  -43.5926 N.am      9 UNK        -0.5000 
     30 C          -0.4707  -18.1793  -44.8307 C.2       8 UNK         0.5000 
     31 O          -1.2657  -18.6299  -45.6526 O.2       8 UNK        -0.5000 
     32 CA          0.4560  -17.0211  -45.2364 C.3       8 UNK         0.1400 
     33 CB         -0.1008  -15.6860  -44.7281 C.3       8 UNK        -0.1800 
     34 N           1.8306  -17.1976  -44.7643 N.am      8 UNK        -0.5000 
     35 C           2.6309  -18.2031  -45.1444 C.2       7 UNK         0.5000 
     36 O           2.2997  -19.0646  -45.9555 O.2       7 UNK        -0.5000 
     37 CA          4.0069  -18.3012  -44.4618 C.3       7 UNK         0.1400 
     38 CB          5.0461  -17.4570  -45.2144 C.3       7 UNK        -0.1800 
     39 N           3.9923  -17.9323  -43.0407 N.am      7 UNK        -0.5000 
     40 C           3.2543  -18.5616  -42.1106 C.2       6 UNK         0.5000 
     41 O           2.4633  -19.4671  -42.3769 O.2       6 UNK        -0.5000 
     42 CA          3.4038  -18.1179  -40.6477 C.3       6 UNK         0.1400 
     43 CB          4.3998  -19.0308  -39.9095 C.3       6 UNK        -0.1800 
     44 N           3.8055  -16.7148  -40.5150 N.am      6 UNK        -0.5000 
     45 C           3.5808  -15.9662  -39.4268 C.2       5 UNK         0.5000 
     46 O           2.9828  -16.3720  -38.4292 O.2       5 UNK        -0.5000 
     47 CA          4.1258  -14.5253  -39.4384 C.3       5 UNK         0.1400 
     48 CB          5.4972  -14.4702  -38.7470 C.3       5 UNK        -0.1800 
     49 N           4.2487  -13.9528  -40.7811 N.am      5 UNK        -0.5000 
     50 C           3.2179  -13.4887  -41.4979 C.2       4 UNK         0.5000 
     51 O           2.0420  -13.5539  -41.1331 O.2       4 UNK        -0.5000 
     52 CA          3.5624  -12.8659  -42.8630 C.3       4 UNK         0.1400 
     53 CB          3.2810  -13.8643  -43.9923 C.3       4 UNK        -0.1800 
     54 N           2.8043  -11.6401  -43.1063 N.am      4 UNK        -0.5000 
     55 C           2.9867  -10.4911  -42.4382 C.2       3 UNK         0.5000 
     56 O           3.8480  -10.3471  -41.5678 O.2       3 UNK        -0.5000 
     57 CA          2.0595   -9.3085  -42.7997 C.3       3 UNK         0.1400 
     58 CB          2.6864   -7.9335  -42.4860 C.3       3 UNK        -0.1800 
     59 N           1.5624   -9.3530  -44.1784 N.am      3 UNK        -0.5000 
     60 C           2.2768   -9.3171  -45.3155 C.2       2 UNK         0.5000 
     61 O           3.4963   -9.1467  -45.3528 O.2       2 UNK        -0.5000 
     62 CA          1.4886   -9.5129  -46.6334 C.3       2 UNK         0.1400 
     63 CB          2.3104  -10.2589  -47.7063 C.3       2 UNK        -0.1800 
     64 N           0.1756  -10.1515  -46.4508 N.am      2 UNK        -0.5000 
     65 C          -0.0580  -11.3737  -45.9493 C.2       1 UNK         0.5000 
     66 O           0.8326  -12.1546  -45.6040 O.2       1 UNK        -0.5000 
     67 C          -1.3957  -21.2716  -48.3225 C.2       11 UNK         0.5000 
     68 O          -1.8653  -21.8465  -49.3015 O.2       11 UNK        -0.5000 
     69 N          -2.1347  -20.8577  -47.2840 N.am      12 UNK        -0.5000 
     70 CA         -3.5890  -21.0045  -47.1812 C.3       12 UNK         0.1400 
     71 CB         -4.1204  -20.0035  -46.1438 C.3       12 UNK        -0.1800 
     72 C          -4.0676  -22.4298  -46.8387 C.2       12 UNK         0.5000 
     73 O          -5.2713  -22.6840  -46.9226 O.2       12 UNK        -0.5000 
     74 N          -3.1507  -23.3287  -46.4545 N.am      13 UNK        -0.5000 
     75 CA         -3.4310  -24.7114  -46.0600 C.3       13 UNK         0.1400 
     76 CB         -2.1137  -25.4057  -45.6869 C.3       13 UNK        -0.1800 
     77 C          -4.1726  -25.5155  -47.1463 C.2       13 UNK         0.5000 
     78 O          -3.8818  -25.3573  -48.3344 O.2       13 UNK        -0.5000 
     79 N          -5.1220  -26.3564  -46.7097 N.am      14 UNK        -0.5000 
     80 CA         -5.9997  -27.1963  -47.5362 C.3       14 UNK         0.1400 
     81 CB         -5.1916  -28.3280  -48.2059 C.3       14 UNK        -0.1800 
     82 C          -6.8371  -26.3763  -48.5422 C.2       14 UNK         0.5000 
     83 O          -6.9466  -26.7557  -49.7091 O.2       14 UNK        -0.5000 
     84 N          -7.3780  -25.2405  -48.0721 N.am      15 UNK        -0.5000 
     85 CA         -8.1205  -24.2341  -48.8431 C.3       15 UNK         0.1400 
     86 CB         -9.4776  -24.7963  -49.3164 C.3       15 UNK        -0.1800 
     87 C          -7.2707  -23.6596  -49.9946 C.2       15 UNK         0.5000 
     88 O          -7.7063  -23.6422  -51.1464 O.2       15 UNK        -0.5000 
     89 N          -6.0406  -23.2552  -49.6528 N.am      16 UNK        -0.5000 
     90 CA         -4.9693  -22.8115  -50.5470 C.3       16 UNK         0.1400 
     91 CB         -5.2963  -21.4298  -51.1490 C.3       16 UNK        -0.1800 
     92 C          -4.6096  -23.8713  -51.6060 C.2       16 UNK         0.5000 
     93 O          -4.5456  -23.5587  -52.7966 O.2       16 UNK        -0.5000 
     94 N          -4.4171  -25.1166  -51.1478 N.am      17 UNK        -0.5000 
     95 CA         -4.1797  -26.3276  -51.9421 C.3       17 UNK         0.1400 
     96 CB         -2.7715  -26.2885  -52.5713 C.3       17 UNK        -0.1800 
     97 C          -5.2952  -26.5827  -52.9796 C.2       17 UNK         0.5000 
     98 O          -5.0048  -26.8734  -54.1402 O.2       17 UNK        -0.5000 
     99 N          -6.5524  -26.4328  -52.5377 N.am      18 UNK        -0.5000 
    100 CA        -7.7810  -26.4286  -53.3380 C.3       18 UNK         0.1400 
    101 CB        -8.0630  -27.8276  -53.9246 C.3       18 UNK        -0.1800 
    102 C         -7.7793  -25.3046  -54.3983 C.2       18 UNK         0.5000 
    103 O         -8.0435  -25.5565  -55.5758 O.2       18 UNK        -0.5000 
    104 N         -7.4741  -24.0825  -53.9383 N.am      19 UNK        -0.5000 
    105 CA        -7.3747  -22.8293  -54.6915 C.3       19 UNK         0.1400 
    106 CB        -8.7744  -22.3680  -55.1477 C.3       19 UNK        -0.1800 
    107 C         -6.3480  -22.8890  -55.8431 C.2       19 UNK         0.5000 
    108 O         -6.6663  -22.5152  -56.9744 O.2       19 UNK        -0.5000 
    109 N         -5.1361  -23.3662  -55.5335 N.am      20 UNK        -0.5000 
    110 CA        -4.0466  -23.5519  -56.4941 C.3       20 UNK         0.1400 
    111 CB        -3.9713  -25.0332  -56.8957 C.3       20 UNK        -0.1800 
    112 C         -2.6801  -23.0650  -55.9809 C.2       20 UNK         0.5000 
    113 O         -1.7906  -22.8533  -56.8068 O.2       20 UNK        -0.5000 
    114 N         -2.5098  -22.8799  -54.6613 N.am      21 UNK        -0.5000 
    115 CA        -1.2306  -22.5210  -54.0293 C.3       21 UNK         0.1400 
    116 CB        -1.3871  -22.5266  -52.5016 C.3       21 UNK        -0.1800 
    117 C         -0.6419  -21.1749  -54.4950 C.2       21 UNK         0.5000 
    118 O          0.5805  -21.0357  -54.5526 O.2       21 UNK        -0.5000 
    119 N         -1.5214  -20.2287  -54.8400 N.am      22 UNK        -0.5000 
    120 CA        -1.1735  -18.9222  -55.4207 C.3       22 UNK         0.1400 
    121 C         -1.1947  -18.9107  -56.9793 C.2       22 UNK         0.5000 
    122 N         -1.3778  -20.0352  -57.6625 N.am      22 UNK        -0.7600 
    123 O         -1.0238  -17.8590  -57.5899 O.2       22 UNK        -0.5000 
    124 C124       -2.0386  -17.7832  -54.8195 C.3       23 UNK        -0.0398 
    125 S125       -1.7852  -17.5967  -53.0208 S.3       23 UNK        -0.2404 
    126 C126       -0.4330  -16.3797  -53.0135 C.3       23 UNK        -0.0205 
    127 H127       -2.1087  -14.3117  -42.7235 H         1 UNK         0.0600 
    128 H128       -2.3205  -13.0573  -41.5001 H         1 UNK         0.0600 
    129 H129       -0.7046  -13.6750  -41.8600 H         1 UNK         0.0600 
    130 H130       -2.0103  -13.5914  -44.8490 H         1 UNK         0.3000 
    131 H131       -2.0790  -10.8368  -45.5312 H         1 UNK         0.0600 
    132 H132       -3.2527  -12.3789  -46.9355 H         1 UNK         0.0800 
    133 H133       -2.0328  -11.6162  -47.8946 H         1 UNK         0.0800 
    134 H134       -0.7431  -12.8113  -49.5023 H         1 UNK         0.0800 
    135 H135        0.5109  -13.0953  -48.3190 H         1 UNK         0.0800 
    136 H136       -1.1061  -14.3615  -51.3050 H         1 UNK         0.1150 
    137 H137        1.3892  -17.8292  -51.6148 H         1 UNK         0.1150 
    138 H138        1.4344  -15.4605  -48.0352 H         1 UNK         0.1150 
    139 H139        3.5206  -17.4744  -49.5338 H         1 UNK         0.0800 
    140 H140        2.6120  -17.5128  -48.0466 H         1 UNK         0.0800 
    141 H141       -0.1585  -19.3958  -49.7222 H         1 UNK         0.0800 
    142 H142        0.2233  -18.8353  -48.1126 H         1 UNK         0.0800 
    143 H143        0.5822  -21.7584  -48.9201 H         1 UNK         0.0600 
    144 H144        1.0767  -20.3933  -46.4727 H         1 UNK         0.3000 
    145 H145        0.8856  -23.3078  -44.3587 H         1 UNK         0.0600 
    146 H146        3.1846  -23.2123  -45.2578 H         1 UNK         0.0600 
    147 H147        3.1613  -21.4562  -45.2434 H         1 UNK         0.0600 
    148 H148        3.1030  -22.3517  -43.7271 H         1 UNK         0.0600 
    149 H149        1.3029  -20.5406  -43.7654 H         1 UNK         0.3000 
    150 H150       -2.1201  -19.6654  -43.2831 H         1 UNK         0.0600 
    151 H151       -1.4796  -20.7270  -41.1385 H         1 UNK         0.0600 
    152 H152       -1.2226  -18.9909  -41.0627 H         1 UNK         0.0600 
    153 H153        0.1491  -20.0803  -41.2643 H         1 UNK         0.0600 
    154 H154        0.4025  -18.2915  -42.9998 H         1 UNK         0.3000 
    155 H155        0.4728  -16.9876  -46.3276 H         1 UNK         0.0600 
    156 H156        0.3942  -14.8473  -45.2163 H         1 UNK         0.0600 
    157 H157        0.0222  -15.5771  -43.6502 H         1 UNK         0.0600 
    158 H158       -1.1651  -15.5990  -44.9490 H         1 UNK         0.0600 
    159 H159        2.1694  -16.5428  -44.0770 H         1 UNK         0.3000 
    160 H160        4.3216  -19.3452  -44.5202 H         1 UNK         0.0600 
    161 H161        4.7958  -16.3968  -45.2062 H         1 UNK         0.0600 
    162 H162        5.1117  -17.7659  -46.2587 H         1 UNK         0.0600 
    163 H163        6.0396  -17.5730  -44.7812 H         1 UNK         0.0600 
    164 H164        4.6714  -17.2458  -42.7548 H         1 UNK         0.3000 
    165 H165        2.4192  -18.2420  -40.1912 H         1 UNK         0.0600 
    166 H166        4.4213  -18.8152  -38.8412 H         1 UNK         0.0600 
    167 H167        4.1254  -20.0809  -40.0197 H         1 UNK         0.0600 
    168 H168        5.4130  -18.9127  -40.2953 H         1 UNK         0.0600 
    169 H169        4.2758  -16.2875  -41.2965 H         1 UNK         0.3000 
    170 H170        3.4332  -13.9085  -38.8613 H         1 UNK         0.0600 
    171 H171        5.4387  -14.8624  -37.7307 H         1 UNK         0.0600 
    172 H172        6.2433  -15.0584  -39.2828 H         1 UNK         0.0600 
    173 H173        5.8629  -13.4456  -38.6770 H         1 UNK         0.0600 
    174 H174        5.1864  -13.8531  -41.1432 H         1 UNK         0.3000 
    175 H175        4.6252  -12.6155  -42.8832 H         1 UNK         0.0600 
    176 H176        3.5617  -13.4563  -44.9637 H         1 UNK         0.0600 
    177 H177        3.8442  -14.7848  -43.8455 H         1 UNK         0.0600 
    178 H178        2.2244  -14.1234  -44.0319 H         1 UNK         0.0600 
    179 H179        2.0714  -11.6930  -43.8039 H         1 UNK         0.3000 
    180 H180        1.1804   -9.4192  -42.1632 H         1 UNK         0.0600 
    181 H181        3.6177   -7.7783  -43.0312 H         1 UNK         0.0600 
    182 H182        2.9115   -7.8391  -41.4231 H         1 UNK         0.0600 
    183 H183        2.0064   -7.1217  -42.7443 H         1 UNK         0.0600 
    184 H184        0.5696   -9.5216  -44.2636 H         1 UNK         0.3000 
    185 H185        1.2880   -8.5099  -47.0124 H         1 UNK         0.0600 
    186 H186        3.2110   -9.7022  -47.9675 H         1 UNK         0.0600 
    187 H187        2.6259  -11.2449  -47.3638 H         1 UNK         0.0600 
    188 H188        1.7356  -10.3908  -48.6230 H         1 UNK         0.0600 
    189 H189       -0.6162   -9.5706  -46.6915 H         1 UNK         0.3000 
    190 H190       -1.6862  -20.3228  -46.5461 H         1 UNK         0.3000 
    191 H191       -4.0264  -20.7460  -48.1475 H         1 UNK         0.0600 
    192 H192       -3.8758  -18.9787  -46.4235 H         1 UNK         0.0600 
    193 H193       -5.2061  -20.0626  -46.0572 H         1 UNK         0.0600 
    194 H194       -3.7007  -20.1925  -45.1554 H         1 UNK         0.0600 
    195 H195       -2.1839  -23.0372  -46.4178 H         1 UNK         0.3000 
    196 H196       -4.0599  -24.6659  -45.1688 H         1 UNK         0.0600 
    197 H197       -2.2940  -26.4155  -45.3163 H         1 UNK         0.0600 
    198 H198       -1.5860  -24.8601  -44.9041 H         1 UNK         0.0600 
    199 H199       -1.4481  -25.4864  -46.5472 H         1 UNK         0.0600 
    200 H200       -5.2867  -26.4136  -45.7141 H         1 UNK         0.3000 
    201 H201       -6.7154  -27.6620  -46.8572 H         1 UNK         0.0600 
    202 H202       -4.6480  -28.9139  -47.4649 H         1 UNK         0.0600 
    203 H203       -4.4668  -27.9416  -48.9223 H         1 UNK         0.0600 
    204 H204       -5.8479  -29.0142  -48.7423 H         1 UNK         0.0600 
    205 H205       -7.1951  -24.9991  -47.1080 H         1 UNK         0.3000 
    206 H206       -8.3228  -23.4044  -48.1641 H         1 UNK         0.0600 
    207 H207      -10.0605  -25.1763  -48.4775 H         1 UNK         0.0600 
    208 H208      -10.0723  -24.0205  -49.7999 H         1 UNK         0.0600 
    209 H209       -9.3561  -25.6075  -50.0348 H         1 UNK         0.0600 
    210 H210       -5.7877  -23.3053  -48.6698 H         1 UNK         0.3000 
    211 H211       -4.0870  -22.7058  -49.9222 H         1 UNK         0.0600 
    212 H212       -6.1760  -21.4647  -51.7911 H         1 UNK         0.0600 
    213 H213       -4.4660  -21.0570  -51.7493 H         1 UNK         0.0600 
    214 H214       -5.4834  -20.6956  -50.3657 H         1 UNK         0.0600 
    215 H215       -4.4391  -25.2545  -50.1396 H         1 UNK         0.3000 
    216 H216       -4.2101  -27.1651  -51.2444 H         1 UNK         0.0600 
    217 H217       -2.5331  -27.2378  -53.0520 H         1 UNK         0.0600 
    218 H218       -2.0072  -26.1065  -51.8160 H         1 UNK         0.0600 
    219 H219       -2.6874  -25.5099  -53.3297 H         1 UNK         0.0600 
    220 H220       -6.6823  -26.2581  -51.5441 H         1 UNK         0.3000 
    221 H221       -8.5912  -26.1944  -52.6458 H         1 UNK         0.0600 
    222 H222       -7.3154  -28.1192  -54.6627 H         1 UNK         0.0600 
    223 H223       -8.0763  -28.5864  -53.1423 H         1 UNK         0.0600 
    224 H224       -9.0351  -27.8529  -54.4181 H         1 UNK         0.0600 
    225 H225       -7.3189  -23.9890  -52.9366 H         1 UNK         0.3000 
    226 H226       -6.9979  -22.0839  -53.9905 H         1 UNK         0.0600 
    227 H227       -9.4583  -22.2943  -54.3021 H         1 UNK         0.0600 
    228 H228       -8.7292  -21.3832  -55.6140 H         1 UNK         0.0600 
    229 H229       -9.2110  -23.0550  -55.8733 H         1 UNK         0.0600 
    230 H230       -4.9568  -23.6322  -54.5674 H         1 UNK         0.3000 
    231 H231       -4.2483  -22.9697  -57.3954 H         1 UNK         0.0600 
    232 H232       -3.6800  -25.6601  -56.0531 H         1 UNK         0.0600 
    233 H233       -3.2363  -25.1873  -57.6867 H         1 UNK         0.0600 
    234 H234       -4.9310  -25.3936  -57.2667 H         1 UNK         0.0600 
    235 H235       -3.2806  -23.0709  -54.0268 H         1 UNK         0.3000 
    236 H236       -0.5090  -23.2961  -54.2954 H         1 UNK         0.0600 
    237 H237       -1.6639  -23.5134  -52.1331 H         1 UNK         0.0600 
    238 H238       -0.4534  -22.2526  -52.0084 H         1 UNK         0.0600 
    239 H239       -2.1474  -21.8175  -52.1733 H         1 UNK         0.0600 
    240 H240       -2.5055  -20.4403  -54.7694 H         1 UNK         0.3000 
    241 H241       -0.1374  -18.6940  -55.1653 H         1 UNK         0.0600 
    242 H242       -1.3790  -20.0000  -58.6696 H         1 UNK         0.3800 
    243 H243       -1.4750  -20.9318  -57.1982 H         1 UNK         0.3800 
    244 H244       -1.8209  -16.8272  -55.2991 H         1 UNK         0.0800 
    245 H245       -3.0968  -17.9758  -55.0015 H         1 UNK         0.0800 
    246 H246       -0.7808  -15.4477  -53.4620 H         1 UNK         0.0800 
    247 H247        0.3843  -16.7380  -53.6412 H         1 UNK         0.0800 
@<TRIPOS>BOND
     1    1    2 1    
     2    1  127 1    
     3    1  128 1    
     4    1  129 1    
     5    2    3 2    
     6    2    4 am   BACKBONE|DICT|INTERRES
     7    4    5 1    
     8    4  130 1    
     9    5    6 1    
    10    5   65 1    
    11    5  131 1    
    12    6    7 1    
    13    6  132 1    
    14    6  133 1    
    15    7    8 1    
    16    8    9 1    
    17    8  134 1    
    18    8  135 1    
    19    9   10 ar   
    20    9   14 ar   
    21   10   11 ar   
    22   10  136 1    
    23   11   12 ar   
    24   11  126 1    
    25   12   13 ar   
    26   12  137 1    
    27   13   14 ar   
    28   13   15 1    
    29   14  138 1    
    30   15   16 1    
    31   15  139 1    
    32   15  140 1    
    33   16   17 1    
    34   17   18 1    
    35   17  141 1    
    36   17  142 1    
    37   18   19 1    
    38   18   67 1    
    39   18  143 1    
    40   19   20 am   BACKBONE|DICT|INTERRES
    41   19  144 1    
    42   20   21 2    
    43   20   22 1    
    44   22   23 1    
    45   22   24 1    
    46   22  145 1    
    47   23  146 1    
    48   23  147 1    
    49   23  148 1    
    50   24   25 am   BACKBONE|DICT|INTERRES
    51   24  149 1    
    52   25   26 2    
    53   25   27 1    
    54   27   28 1    
    55   27   29 1    
    56   27  150 1    
    57   28  151 1    
    58   28  152 1    
    59   28  153 1    
    60   29   30 am   BACKBONE|DICT|INTERRES
    61   29  154 1    
    62   30   31 2    
    63   30   32 1    
    64   32   33 1    
    65   32   34 1    
    66   32  155 1    
    67   33  156 1    
    68   33  157 1    
    69   33  158 1    
    70   34   35 am   BACKBONE|DICT|INTERRES
    71   34  159 1    
    72   35   36 2    
    73   35   37 1    
    74   37   38 1    
    75   37   39 1    
    76   37  160 1    
    77   38  161 1    
    78   38  162 1    
    79   38  163 1    
    80   39   40 am   BACKBONE|DICT|INTERRES
    81   39  164 1    
    82   40   41 2    
    83   40   42 1    
    84   42   43 1    
    85   42   44 1    
    86   42  165 1    
    87   43  166 1    
    88   43  167 1    
    89   43  168 1    
    90   44   45 am   BACKBONE|DICT|INTERRES
    91   44  169 1    
    92   45   46 2    
    93   45   47 1    
    94   47   48 1    
    95   47   49 1    
    96   47  170 1    
    97   48  171 1    
    98   48  172 1    
    99   48  173 1    
   100   49   50 am   BACKBONE|DICT|INTERRES
   101   49  174 1    
   102   50   51 2    
   103   50   52 1    
   104   52   53 1    
   105   52   54 1    
   106   52  175 1    
   107   53  176 1    
   108   53  177 1    
   109   53  178 1    
   110   54   55 am   BACKBONE|DICT|INTERRES
   111   54  179 1    
   112   55   56 2    
   113   55   57 1    
   114   57   58 1    
   115   57   59 1    
   116   57  180 1    
   117   58  181 1    
   118   58  182 1    
   119   58  183 1    
   120   59   60 am   BACKBONE|DICT|INTERRES
   121   59  184 1    
   122   60   61 2    
   123   60   62 1    
   124   62   63 1    
   125   62   64 1    
   126   62  185 1    
   127   63  186 1    
   128   63  187 1    
   129   63  188 1    
   130   64   65 am   BACKBONE|DICT|INTERRES
   131   64  189 1    
   132   65   66 2    
   133   67   68 2    
   134   67   69 am   BACKBONE|DICT|INTERRES
   135   69   70 1    
   136   69  190 1    
   137   70   71 1    
   138   70   72 1    
   139   70  191 1    
   140   71  192 1    
   141   71  193 1    
   142   71  194 1    
   143   72   73 2    
   144   72   74 am   BACKBONE|DICT|INTERRES
   145   74   75 1    
   146   74  195 1    
   147   75   76 1    
   148   75   77 1    
   149   75  196 1    
   150   76  197 1    
   151   76  198 1    
   152   76  199 1    
   153   77   78 2    
   154   77   79 am   BACKBONE|DICT|INTERRES
   155   79   80 1    
   156   79  200 1    
   157   80   81 1    
   158   80   82 1    
   159   80  201 1    
   160   81  202 1    
   161   81  203 1    
   162   81  204 1    
   163   82   83 2    
   164   82   84 am   BACKBONE|DICT|INTERRES
   165   84   85 1    
   166   84  205 1    
   167   85   86 1    
   168   85   87 1    
   169   85  206 1    
   170   86  207 1    
   171   86  208 1    
   172   86  209 1    
   173   87   88 2    
   174   87   89 am   BACKBONE|DICT|INTERRES
   175   89   90 1    
   176   89  210 1    
   177   90   91 1    
   178   90   92 1    
   179   90  211 1    
   180   91  212 1    
   181   91  213 1    
   182   91  214 1    
   183   92   93 2    
   184   92   94 am   BACKBONE|DICT|INTERRES
   185   94   95 1    
   186   94  215 1    
   187   95   96 1    
   188   95   97 1    
   189   95  216 1    
   190   96  217 1    
   191   96  218 1    
   192   96  219 1    
   193   97   98 2    
   194   97   99 am   BACKBONE|DICT|INTERRES
   195   99  100 1    
   196   99  220 1    
   197  100  101 1    
   198  100  102 1    
   199  100  221 1    
   200  101  222 1    
   201  101  223 1    
   202  101  224 1    
   203  102  103 2    
   204  102  104 am   BACKBONE|DICT|INTERRES
   205  104  105 1    
   206  104  225 1    
   207  105  106 1    
   208  105  107 1    
   209  105  226 1    
   210  106  227 1    
   211  106  228 1    
   212  106  229 1    
   213  107  108 2    
   214  107  109 am   BACKBONE|DICT|INTERRES
   215  109  110 1    
   216  109  230 1    
   217  110  111 1    
   218  110  112 1    
   219  110  231 1    
   220  111  232 1    
   221  111  233 1    
   222  111  234 1    
   223  112  113 2    
   224  112  114 am   BACKBONE|DICT|INTERRES
   225  114  115 1    
   226  114  235 1    
   227  115  116 1    
   228  115  117 1    
   229  115  236 1    
   230  116  237 1    
   231  116  238 1    
   232  116  239 1    
   233  117  118 2    
   234  117  119 am   BACKBONE|DICT|INTERRES
   235  119  120 1    
   236  119  240 1    
   237  120  121 1    
   238  120  124 1    
   239  120  241 1    
   240  121  122 am   BACKBONE|DICT|INTERRES
   241  121  123 2    
   242  122  242 1    
   243  122  243 1    
   244  124  125 1    
   245  124  244 1    
   246  124  245 1    
   247  125  126 1    
   248  126  246 1    
   249  126  247 1    
@<TRIPOS>SUBSTRUCTURE
     1 UNK         1 GROUP             0       ****    0 ROOT    
