@<TRIPOS>MOLECULE
3R540
247   249    1
SMALL
USER_CHARGES


@<TRIPOS>ATOM
      1 CA          6.8849  -15.0300  -48.5572 C.3       0 UNK        -0.1800 
      2 C           6.3972  -13.6649  -48.0741 C.2       0 UNK         0.5000 
      3 O           7.2179  -12.7688  -47.8884 O.2       0 UNK        -0.5000 
      4 N           5.0912  -13.4413  -47.8687 N.am      1 UNK        -0.5000 
      5 CA          3.9816  -14.3974  -47.9488 C.3       1 UNK         0.1400 
      6 C6          2.6140  -13.6766  -47.8629 C.3       23 UNK        -0.0398 
      7 S7          2.2574  -12.6904  -49.3568 S.3       23 UNK        -0.2404 
      8 C8          0.4940  -13.0736  -49.6552 C.3       23 UNK        -0.0205 
      9 C9          0.2151  -14.3746  -50.4113 C.ar      23 UNK        -0.0193 
     10 C10        -0.9381  -14.4629  -51.1974 C.ar      23 UNK        -0.1150 
     11 C11        -1.2547  -15.6414  -51.8802 C.ar      23 UNK        -0.0193 
     12 C12        -0.4108  -16.7494  -51.7711 C.ar      23 UNK        -0.1150 
     13 C13         0.7419  -16.6801  -50.9858 C.ar      23 UNK        -0.0193 
     14 C14         1.0498  -15.4938  -50.3183 C.ar      23 UNK        -0.1150 
     15 C15         1.6602  -17.8817  -50.8390 C.3       23 UNK        -0.0205 
     16 S16         1.5080  -18.6270  -49.1862 S.3       23 UNK        -0.2404 
     17 C17        -0.1409  -19.3885  -49.3123 C.3       23 UNK        -0.0398 
     18 CA         -0.3493  -20.4862  -48.2453 C.3       11 UNK         0.1400 
     19 N          -0.4898  -19.9516  -46.8854 N.am      11 UNK        -0.5000 
     20 C          -0.5207  -20.7126  -45.7810 C.2       10 UNK         0.5000 
     21 O          -0.3368  -21.9289  -45.7864 O.2       10 UNK        -0.5000 
     22 CA         -0.8912  -20.0221  -44.4581 C.3       10 UNK         0.1400 
     23 CB          0.3400  -19.4220  -43.7643 C.3       10 UNK        -0.1800 
     24 N          -1.9313  -19.0096  -44.6480 N.am      10 UNK        -0.5000 
     25 C          -3.2133  -19.3101  -44.9061 C.2       9 UNK         0.5000 
     26 O          -3.6507  -20.4604  -44.9114 O.2       9 UNK        -0.5000 
     27 CA         -4.1567  -18.1499  -45.2722 C.3       9 UNK         0.1400 
     28 CB         -4.8819  -17.6084  -44.0323 C.3       9 UNK        -0.1800 
     29 N          -3.4655  -17.0615  -45.9638 N.am      9 UNK        -0.5000 
     30 C          -3.0398  -17.1433  -47.2335 C.2       8 UNK         0.5000 
     31 O          -3.2053  -18.1383  -47.9386 O.2       8 UNK        -0.5000 
     32 CA         -2.2617  -15.9377  -47.7972 C.3       8 UNK         0.1400 
     33 CB         -3.2332  -14.9167  -48.4071 C.3       8 UNK        -0.1800 
     34 N          -1.4276  -15.2577  -46.8049 N.am      8 UNK        -0.5000 
     35 C          -0.4549  -15.8293  -46.0827 C.2       7 UNK         0.5000 
     36 O          -0.1455  -17.0162  -46.1835 O.2       7 UNK        -0.5000 
     37 CA          0.2673  -14.9421  -45.0463 C.3       7 UNK         0.1400 
     38 CB          0.0176  -13.4286  -45.2345 C.3       7 UNK        -0.1800 
     39 N          -0.0401  -15.3136  -43.6623 N.am      7 UNK        -0.5000 
     40 C          -1.2555  -15.4455  -43.1042 C.2       6 UNK         0.5000 
     41 O          -2.3096  -15.3796  -43.7379 O.2       6 UNK        -0.5000 
     42 CA         -1.3204  -15.6632  -41.5768 C.3       6 UNK         0.1400 
     43 CB         -1.6348  -17.1257  -41.2309 C.3       6 UNK        -0.1800 
     44 N          -0.0981  -15.2692  -40.8752 N.am      6 UNK        -0.5000 
     45 C           0.3111  -14.0067  -40.6914 C.2       5 UNK         0.5000 
     46 O          -0.3473  -13.0199  -41.0216 O.2       5 UNK        -0.5000 
     47 CA          1.6992  -13.8127  -40.0473 C.3       5 UNK         0.1400 
     48 CB          1.5558  -13.5011  -38.5496 C.3       5 UNK        -0.1800 
     49 N           2.6134  -14.9509  -40.2114 N.am      5 UNK        -0.5000 
     50 C           3.0748  -15.4071  -41.3833 C.2       4 UNK         0.5000 
     51 O           2.7121  -14.9740  -42.4795 O.2       4 UNK        -0.5000 
     52 CA          4.0755  -16.5670  -41.3229 C.3       4 UNK         0.1400 
     53 CB          3.3446  -17.9198  -41.3729 C.3       4 UNK        -0.1800 
     54 N           4.9727  -16.4570  -42.4657 N.am      4 UNK        -0.5000 
     55 C           6.2576  -16.8332  -42.4992 C.2       3 UNK         0.5000 
     56 O           6.8480  -17.3322  -41.5393 O.2       3 UNK        -0.5000 
     57 CA          6.9920  -16.6125  -43.8408 C.3       3 UNK         0.1400 
     58 CB          8.3092  -17.4069  -43.9659 C.3       3 UNK        -0.1800 
     59 N           6.1027  -16.8477  -44.9828 N.am      3 UNK        -0.5000 
     60 C           5.5180  -17.9992  -45.3399 C.2       2 UNK         0.5000 
     61 O           5.8262  -19.0962  -44.8735 O.2       2 UNK        -0.5000 
     62 CA          4.3644  -17.9296  -46.3660 C.3       2 UNK         0.1400 
     63 CB          3.0236  -18.1772  -45.6520 C.3       2 UNK        -0.1800 
     64 N           4.2819  -16.7174  -47.2009 N.am      2 UNK        -0.5000 
     65 C           4.0942  -15.4437  -46.8248 C.2       1 UNK         0.5000 
     66 O           4.0381  -15.0718  -45.6523 O.2       1 UNK        -0.5000 
     67 C          -1.5309  -21.4027  -48.6228 C.2       11 UNK         0.5000 
     68 O          -1.2964  -22.4865  -49.1546 O.2       11 UNK        -0.5000 
     69 N          -2.7660  -20.9884  -48.3027 N.am      12 UNK        -0.5000 
     70 CA         -3.9765  -21.7929  -48.4880 C.3       12 UNK         0.1400 
     71 CB         -5.2197  -20.9531  -48.1640 C.3       12 UNK        -0.1800 
     72 C          -3.9571  -23.0941  -47.6653 C.2       12 UNK         0.5000 
     73 O          -4.2894  -24.1517  -48.1990 O.2       12 UNK        -0.5000 
     74 N          -3.5253  -23.0103  -46.3983 N.am      13 UNK        -0.5000 
     75 CA         -3.3429  -24.1602  -45.5103 C.3       13 UNK         0.1400 
     76 CB         -3.0168  -23.6781  -44.0894 C.3       13 UNK        -0.1800 
     77 C          -2.2706  -25.1411  -46.0205 C.2       13 UNK         0.5000 
     78 O          -2.5198  -26.3469  -46.0473 O.2       13 UNK        -0.5000 
     79 N          -1.1229  -24.6101  -46.4675 N.am      14 UNK        -0.5000 
     80 CA         -0.0302  -25.3718  -47.0811 C.3       14 UNK         0.1400 
     81 CB          1.1787  -24.4497  -47.2994 C.3       14 UNK        -0.1800 
     82 C          -0.4367  -26.0571  -48.4006 C.2       14 UNK         0.5000 
     83 O           0.0299  -27.1609  -48.6829 O.2       14 UNK        -0.5000 
     84 N          -1.3359  -25.4142  -49.1563 N.am      15 UNK        -0.5000 
     85 CA         -1.9590  -25.9339  -50.3737 C.3       15 UNK         0.1400 
     86 CB         -2.3901  -24.7471  -51.2521 C.3       15 UNK        -0.1800 
     87 C          -3.1397  -26.8950  -50.1018 C.2       15 UNK         0.5000 
     88 O          -3.8318  -27.2675  -51.0489 O.2       15 UNK        -0.5000 
     89 N          -3.3570  -27.2821  -48.8350 N.am      16 UNK        -0.5000 
     90 CA         -4.3771  -28.2170  -48.3484 C.3       16 UNK         0.1400 
     91 CB         -4.1552  -29.6318  -48.9244 C.3       16 UNK        -0.1800 
     92 C          -5.8144  -27.6935  -48.5425 C.2       16 UNK         0.5000 
     93 O          -6.6969  -28.4392  -48.9708 O.2       16 UNK        -0.5000 
     94 N          -6.0112  -26.4101  -48.2107 N.am      17 UNK        -0.5000 
     95 CA         -7.2597  -25.6419  -48.2681 C.3       17 UNK         0.1400 
     96 CB         -8.3745  -26.2911  -47.4205 C.3       17 UNK        -0.1800 
     97 C          -7.7113  -25.2923  -49.7006 C.2       17 UNK         0.5000 
     98 O          -8.8709  -24.9258  -49.9021 O.2       17 UNK        -0.5000 
     99 N          -6.7862  -25.3689  -50.6660 N.am      18 UNK        -0.5000 
    100 CA        -6.9572  -24.8407  -52.0180 C.3       18 UNK         0.1400 
    101 CB        -5.9512  -25.5276  -52.9534 C.3       18 UNK        -0.1800 
    102 C         -6.7763  -23.3095  -52.0399 C.2       18 UNK         0.5000 
    103 O         -6.3251  -22.7183  -51.0559 O.2       18 UNK        -0.5000 
    104 N         -7.1216  -22.6935  -53.1777 N.am      19 UNK        -0.5000 
    105 CA        -7.0903  -21.2425  -53.3845 C.3       19 UNK         0.1400 
    106 CB        -7.7956  -20.9128  -54.7096 C.3       19 UNK        -0.1800 
    107 C         -5.6825  -20.6148  -53.3631 C.2       19 UNK         0.5000 
    108 O         -5.5803  -19.4078  -53.1527 O.2       19 UNK        -0.5000 
    109 N         -4.6368  -21.4195  -53.6171 N.am      20 UNK        -0.5000 
    110 CA        -3.2100  -21.0540  -53.5988 C.3       20 UNK         0.1400 
    111 CB        -2.7374  -20.8207  -52.1498 C.3       20 UNK        -0.1800 
    112 C         -2.8435  -19.8803  -54.5368 C.2       20 UNK         0.5000 
    113 O         -1.9154  -19.1239  -54.2489 O.2       20 UNK        -0.5000 
    114 N         -3.5992  -19.7528  -55.6383 N.am      21 UNK        -0.5000 
    115 CA        -3.5546  -18.6818  -56.6403 C.3       21 UNK         0.1400 
    116 CB        -2.1880  -18.6428  -57.3569 C.3       21 UNK        -0.1800 
    117 C         -3.9873  -17.2950  -56.1098 C.2       21 UNK         0.5000 
    118 O         -3.7302  -16.2909  -56.7765 O.2       21 UNK        -0.5000 
    119 N         -4.6587  -17.2480  -54.9498 N.am      22 UNK        -0.5000 
    120 CA        -5.2016  -16.0169  -54.3502 C.3       22 UNK         0.1400 
    121 C         -6.5416  -15.5346  -54.9818 C.2       22 UNK         0.5000 
    122 N         -7.1880  -16.3010  -55.8525 N.am      22 UNK        -0.7600 
    123 O         -7.0004  -14.4353  -54.6831 O.2       22 UNK        -0.5000 
    124 C124       -5.3392  -16.1285  -52.8067 C.3       23 UNK        -0.0398 
    125 S125       -3.8368  -16.6120  -51.8804 S.3       23 UNK        -0.2404 
    126 C126       -2.5073  -15.7138  -52.7363 C.3       23 UNK        -0.0205 
    127 H127        7.8620  -14.9329  -49.0308 H         1 UNK         0.0600 
    128 H128        6.2133  -15.4689  -49.2936 H         1 UNK         0.0600 
    129 H129        6.9914  -15.7173  -47.7182 H         1 UNK         0.0600 
    130 H130        4.8208  -12.5197  -47.5578 H         1 UNK         0.3000 
    131 H131        4.0366  -14.9079  -48.9114 H         1 UNK         0.0600 
    132 H132        1.8078  -14.3973  -47.7190 H         1 UNK         0.0800 
    133 H133        2.5817  -13.0153  -46.9951 H         1 UNK         0.0800 
    134 H134        0.0784  -12.2384  -50.2209 H         1 UNK         0.0800 
    135 H135       -0.0445  -13.0918  -48.7075 H         1 UNK         0.0800 
    136 H136       -1.5990  -13.6107  -51.2736 H         1 UNK         0.1150 
    137 H137       -0.6602  -17.6644  -52.2908 H         1 UNK         0.1150 
    138 H138        1.9425  -15.4687  -49.7185 H         1 UNK         0.1150 
    139 H139        1.4542  -18.6298  -51.6062 H         1 UNK         0.0800 
    140 H140        2.6932  -17.5657  -50.9909 H         1 UNK         0.0800 
    141 H141       -0.2319  -19.8101  -50.3148 H         1 UNK         0.0800 
    142 H142       -0.9031  -18.6127  -49.2361 H         1 UNK         0.0800 
    143 H143        0.5400  -21.1205  -48.2465 H         1 UNK         0.0600 
    144 H144       -0.5833  -18.9460  -46.7908 H         1 UNK         0.3000 
    145 H145       -1.2843  -20.7971  -43.7968 H         1 UNK         0.0600 
    146 H146        0.6272  -18.4619  -44.1887 H         1 UNK         0.0600 
    147 H147        1.1990  -20.0900  -43.8387 H         1 UNK         0.0600 
    148 H148        0.1538  -19.2773  -42.7030 H         1 UNK         0.0600 
    149 H149       -1.6246  -18.0513  -44.7448 H         1 UNK         0.3000 
    150 H150       -4.9176  -18.5488  -45.9459 H         1 UNK         0.0600 
    151 H151       -4.1911  -17.1720  -43.3135 H         1 UNK         0.0600 
    152 H152       -5.6070  -16.8417  -44.3053 H         1 UNK         0.0600 
    153 H153       -5.4266  -18.4036  -43.5217 H         1 UNK         0.0600 
    154 H154       -3.2341  -16.2421  -45.4118 H         1 UNK         0.3000 
    155 H155       -1.6048  -16.3053  -48.5883 H         1 UNK         0.0600 
    156 H156       -3.8930  -14.4882  -47.6518 H         1 UNK         0.0600 
    157 H157       -2.6983  -14.0985  -48.8883 H         1 UNK         0.0600 
    158 H158       -3.8636  -15.3821  -49.1649 H         1 UNK         0.0600 
    159 H159       -1.6493  -14.2904  -46.6220 H         1 UNK         0.3000 
    160 H160        1.3337  -15.1235  -45.1835 H         1 UNK         0.0600 
    161 H161       -1.0126  -13.1501  -45.0094 H         1 UNK         0.0600 
    162 H162        0.2338  -13.1050  -46.2520 H         1 UNK         0.0600 
    163 H163        0.6624  -12.8496  -44.5729 H         1 UNK         0.0600 
    164 H164        0.7719  -15.3743  -43.0580 H         1 UNK         0.3000 
    165 H165       -2.1428  -15.0471  -41.2071 H         1 UNK         0.0600 
    166 H166       -1.9139  -17.2254  -40.1818 H         1 UNK         0.0600 
    167 H167       -2.4631  -17.5135  -41.8230 H         1 UNK         0.0600 
    168 H168       -0.7751  -17.7690  -41.4037 H         1 UNK         0.0600 
    169 H169        0.5038  -16.0137  -40.5565 H         1 UNK         0.3000 
    170 H170        2.1591  -12.9491  -40.5324 H         1 UNK         0.0600 
    171 H171        0.9054  -12.6401  -38.3891 H         1 UNK         0.0600 
    172 H172        1.1273  -14.3423  -38.0033 H         1 UNK         0.0600 
    173 H173        2.5206  -13.2642  -38.1008 H         1 UNK         0.0600 
    174 H174        2.9465  -15.3773  -39.3583 H         1 UNK         0.3000 
    175 H175        4.6457  -16.4896  -40.3948 H         1 UNK         0.0600 
    176 H176        2.7610  -18.0273  -42.2884 H         1 UNK         0.0600 
    177 H177        4.0497  -18.7501  -41.3293 H         1 UNK         0.0600 
    178 H178        2.6609  -18.0296  -40.5304 H         1 UNK         0.0600 
    179 H179        4.5623  -16.0027  -43.2739 H         1 UNK         0.3000 
    180 H180        7.2477  -15.5526  -43.8726 H         1 UNK         0.0600 
    181 H181        8.1548  -18.4790  -43.8432 H         1 UNK         0.0600 
    182 H182        9.0238  -17.0942  -43.2039 H         1 UNK         0.0600 
    183 H183        8.7776  -17.2431  -44.9363 H         1 UNK         0.0600 
    184 H184        5.6839  -16.0115  -45.3758 H         1 UNK         0.3000 
    185 H185        4.5254  -18.7566  -47.0593 H         1 UNK         0.0600 
    186 H186        3.0456  -19.1167  -45.0996 H         1 UNK         0.0600 
    187 H187        2.7870  -17.3856  -44.9402 H         1 UNK         0.0600 
    188 H188        2.2026  -18.2442  -46.3632 H         1 UNK         0.0600 
    189 H189        4.3481  -16.9066  -48.1912 H         1 UNK         0.3000 
    190 H190       -2.8918  -20.0495  -47.9354 H         1 UNK         0.3000 
    191 H191       -4.0322  -22.0746  -49.5401 H         1 UNK         0.0600 
    192 H192       -5.2435  -20.6506  -47.1178 H         1 UNK         0.0600 
    193 H193       -6.1304  -21.5195  -48.3634 H         1 UNK         0.0600 
    194 H194       -5.2570  -20.0527  -48.7775 H         1 UNK         0.0600 
    195 H195       -3.3219  -22.0958  -46.0076 H         1 UNK         0.3000 
    196 H196       -4.2918  -24.6994  -45.4719 H         1 UNK         0.0600 
    197 H197       -2.9166  -24.5214  -43.4051 H         1 UNK         0.0600 
    198 H198       -3.8067  -23.0354  -43.7002 H         1 UNK         0.0600 
    199 H199       -2.0830  -23.1173  -44.0569 H         1 UNK         0.0600 
    200 H200       -0.9760  -23.6080  -46.3720 H         1 UNK         0.3000 
    201 H201        0.2621  -26.1556  -46.3794 H         1 UNK         0.0600 
    202 H202        1.5211  -24.0192  -46.3583 H         1 UNK         0.0600 
    203 H203        0.9405  -23.6285  -47.9756 H         1 UNK         0.0600 
    204 H204        2.0168  -24.9985  -47.7306 H         1 UNK         0.0600 
    205 H205       -1.6142  -24.4779  -48.8801 H         1 UNK         0.3000 
    206 H206       -1.2092  -26.5012  -50.9283 H         1 UNK         0.0600 
    207 H207       -1.5697  -24.0447  -51.3998 H         1 UNK         0.0600 
    208 H208       -2.6957  -25.0862  -52.2413 H         1 UNK         0.0600 
    209 H209       -3.2247  -24.2005  -50.8112 H         1 UNK         0.0600 
    210 H210       -2.7671  -26.8853  -48.1133 H         1 UNK         0.3000 
    211 H211       -4.2291  -28.2835  -47.2696 H         1 UNK         0.0600 
    212 H212       -4.3432  -29.6699  -49.9976 H         1 UNK         0.0600 
    213 H213       -4.8225  -30.3534  -48.4518 H         1 UNK         0.0600 
    214 H214       -3.1346  -29.9725  -48.7498 H         1 UNK         0.0600 
    215 H215       -5.1961  -25.8503  -47.9740 H         1 UNK         0.3000 
    216 H216       -7.0262  -24.6838  -47.8017 H         1 UNK         0.0600 
    217 H217       -9.2242  -25.6161  -47.3121 H         1 UNK         0.0600 
    218 H218       -8.0210  -26.5278  -46.4170 H         1 UNK         0.0600 
    219 H219       -8.7483  -27.2098  -47.8726 H         1 UNK         0.0600 
    220 H220       -5.8533  -25.6576  -50.4084 H         1 UNK         0.3000 
    221 H221       -7.9664  -25.0731  -52.3644 H         1 UNK         0.0600 
    222 H222       -4.9262  -25.2645  -52.6988 H         1 UNK         0.0600 
    223 H223       -6.0398  -26.6130  -52.9001 H         1 UNK         0.0600 
    224 H224       -6.1149  -25.2412  -53.9926 H         1 UNK         0.0600 
    225 H225       -7.4771  -23.2463  -53.9445 H         1 UNK         0.3000 
    226 H226       -7.6574  -20.7796  -52.5741 H         1 UNK         0.0600 
    227 H227       -8.8284  -21.2620  -54.7047 H         1 UNK         0.0600 
    228 H228       -7.8211  -19.8359  -54.8830 H         1 UNK         0.0600 
    229 H229       -7.2894  -21.3706  -55.5604 H         1 UNK         0.0600 
    230 H230       -4.8373  -22.3908  -53.8058 H         1 UNK         0.3000 
    231 H231       -2.6684  -21.9197  -53.9824 H         1 UNK         0.0600 
    232 H232       -1.6617  -20.6495  -52.1085 H         1 UNK         0.0600 
    233 H233       -2.9447  -21.6918  -51.5308 H         1 UNK         0.0600 
    234 H234       -3.2266  -19.9579  -51.6957 H         1 UNK         0.0600 
    235 H235       -4.3342  -20.4333  -55.7682 H         1 UNK         0.3000 
    236 H236       -4.3010  -18.9517  -57.3885 H         1 UNK         0.0600 
    237 H237       -2.2183  -17.9787  -58.2213 H         1 UNK         0.0600 
    238 H238       -1.3948  -18.2836  -56.7009 H         1 UNK         0.0600 
    239 H239       -1.9035  -19.6305  -57.7196 H         1 UNK         0.0600 
    240 H240       -4.8303  -18.1018  -54.4269 H         1 UNK         0.3000 
    241 H241       -4.4977  -15.2105  -54.5576 H         1 UNK         0.0600 
    242 H242       -8.0510  -15.9735  -56.2577 H         1 UNK         0.3800 
    243 H243       -6.8245  -17.2045  -56.1076 H         1 UNK         0.3800 
    244 H244       -5.6692  -15.1738  -52.3934 H         1 UNK         0.0800 
    245 H245       -6.1220  -16.8453  -52.5540 H         1 UNK         0.0800 
    246 H246       -2.8453  -14.7066  -52.9832 H         1 UNK         0.0800 
    247 H247       -2.2775  -16.2119  -53.6793 H         1 UNK         0.0800 
@<TRIPOS>BOND
     1    1    2 1    
     2    1  127 1    
     3    1  128 1    
     4    1  129 1    
     5    2    3 2    
     6    2    4 am   BACKBONE|DICT|INTERRES
     7    4    5 1    
     8    4  130 1    
     9    5    6 1    
    10    5   65 1    
    11    5  131 1    
    12    6    7 1    
    13    6  132 1    
    14    6  133 1    
    15    7    8 1    
    16    8    9 1    
    17    8  134 1    
    18    8  135 1    
    19    9   10 ar   
    20    9   14 ar   
    21   10   11 ar   
    22   10  136 1    
    23   11   12 ar   
    24   11  126 1    
    25   12   13 ar   
    26   12  137 1    
    27   13   14 ar   
    28   13   15 1    
    29   14  138 1    
    30   15   16 1    
    31   15  139 1    
    32   15  140 1    
    33   16   17 1    
    34   17   18 1    
    35   17  141 1    
    36   17  142 1    
    37   18   19 1    
    38   18   67 1    
    39   18  143 1    
    40   19   20 am   BACKBONE|DICT|INTERRES
    41   19  144 1    
    42   20   21 2    
    43   20   22 1    
    44   22   23 1    
    45   22   24 1    
    46   22  145 1    
    47   23  146 1    
    48   23  147 1    
    49   23  148 1    
    50   24   25 am   BACKBONE|DICT|INTERRES
    51   24  149 1    
    52   25   26 2    
    53   25   27 1    
    54   27   28 1    
    55   27   29 1    
    56   27  150 1    
    57   28  151 1    
    58   28  152 1    
    59   28  153 1    
    60   29   30 am   BACKBONE|DICT|INTERRES
    61   29  154 1    
    62   30   31 2    
    63   30   32 1    
    64   32   33 1    
    65   32   34 1    
    66   32  155 1    
    67   33  156 1    
    68   33  157 1    
    69   33  158 1    
    70   34   35 am   BACKBONE|DICT|INTERRES
    71   34  159 1    
    72   35   36 2    
    73   35   37 1    
    74   37   38 1    
    75   37   39 1    
    76   37  160 1    
    77   38  161 1    
    78   38  162 1    
    79   38  163 1    
    80   39   40 am   BACKBONE|DICT|INTERRES
    81   39  164 1    
    82   40   41 2    
    83   40   42 1    
    84   42   43 1    
    85   42   44 1    
    86   42  165 1    
    87   43  166 1    
    88   43  167 1    
    89   43  168 1    
    90   44   45 am   BACKBONE|DICT|INTERRES
    91   44  169 1    
    92   45   46 2    
    93   45   47 1    
    94   47   48 1    
    95   47   49 1    
    96   47  170 1    
    97   48  171 1    
    98   48  172 1    
    99   48  173 1    
   100   49   50 am   BACKBONE|DICT|INTERRES
   101   49  174 1    
   102   50   51 2    
   103   50   52 1    
   104   52   53 1    
   105   52   54 1    
   106   52  175 1    
   107   53  176 1    
   108   53  177 1    
   109   53  178 1    
   110   54   55 am   BACKBONE|DICT|INTERRES
   111   54  179 1    
   112   55   56 2    
   113   55   57 1    
   114   57   58 1    
   115   57   59 1    
   116   57  180 1    
   117   58  181 1    
   118   58  182 1    
   119   58  183 1    
   120   59   60 am   BACKBONE|DICT|INTERRES
   121   59  184 1    
   122   60   61 2    
   123   60   62 1    
   124   62   63 1    
   125   62   64 1    
   126   62  185 1    
   127   63  186 1    
   128   63  187 1    
   129   63  188 1    
   130   64   65 am   BACKBONE|DICT|INTERRES
   131   64  189 1    
   132   65   66 2    
   133   67   68 2    
   134   67   69 am   BACKBONE|DICT|INTERRES
   135   69   70 1    
   136   69  190 1    
   137   70   71 1    
   138   70   72 1    
   139   70  191 1    
   140   71  192 1    
   141   71  193 1    
   142   71  194 1    
   143   72   73 2    
   144   72   74 am   BACKBONE|DICT|INTERRES
   145   74   75 1    
   146   74  195 1    
   147   75   76 1    
   148   75   77 1    
   149   75  196 1    
   150   76  197 1    
   151   76  198 1    
   152   76  199 1    
   153   77   78 2    
   154   77   79 am   BACKBONE|DICT|INTERRES
   155   79   80 1    
   156   79  200 1    
   157   80   81 1    
   158   80   82 1    
   159   80  201 1    
   160   81  202 1    
   161   81  203 1    
   162   81  204 1    
   163   82   83 2    
   164   82   84 am   BACKBONE|DICT|INTERRES
   165   84   85 1    
   166   84  205 1    
   167   85   86 1    
   168   85   87 1    
   169   85  206 1    
   170   86  207 1    
   171   86  208 1    
   172   86  209 1    
   173   87   88 2    
   174   87   89 am   BACKBONE|DICT|INTERRES
   175   89   90 1    
   176   89  210 1    
   177   90   91 1    
   178   90   92 1    
   179   90  211 1    
   180   91  212 1    
   181   91  213 1    
   182   91  214 1    
   183   92   93 2    
   184   92   94 am   BACKBONE|DICT|INTERRES
   185   94   95 1    
   186   94  215 1    
   187   95   96 1    
   188   95   97 1    
   189   95  216 1    
   190   96  217 1    
   191   96  218 1    
   192   96  219 1    
   193   97   98 2    
   194   97   99 am   BACKBONE|DICT|INTERRES
   195   99  100 1    
   196   99  220 1    
   197  100  101 1    
   198  100  102 1    
   199  100  221 1    
   200  101  222 1    
   201  101  223 1    
   202  101  224 1    
   203  102  103 2    
   204  102  104 am   BACKBONE|DICT|INTERRES
   205  104  105 1    
   206  104  225 1    
   207  105  106 1    
   208  105  107 1    
   209  105  226 1    
   210  106  227 1    
   211  106  228 1    
   212  106  229 1    
   213  107  108 2    
   214  107  109 am   BACKBONE|DICT|INTERRES
   215  109  110 1    
   216  109  230 1    
   217  110  111 1    
   218  110  112 1    
   219  110  231 1    
   220  111  232 1    
   221  111  233 1    
   222  111  234 1    
   223  112  113 2    
   224  112  114 am   BACKBONE|DICT|INTERRES
   225  114  115 1    
   226  114  235 1    
   227  115  116 1    
   228  115  117 1    
   229  115  236 1    
   230  116  237 1    
   231  116  238 1    
   232  116  239 1    
   233  117  118 2    
   234  117  119 am   BACKBONE|DICT|INTERRES
   235  119  120 1    
   236  119  240 1    
   237  120  121 1    
   238  120  124 1    
   239  120  241 1    
   240  121  122 am   BACKBONE|DICT|INTERRES
   241  121  123 2    
   242  122  242 1    
   243  122  243 1    
   244  124  125 1    
   245  124  244 1    
   246  124  245 1    
   247  125  126 1    
   248  126  246 1    
   249  126  247 1    
@<TRIPOS>SUBSTRUCTURE
     1 UNK         1 GROUP             0       ****    0 ROOT    
