@<TRIPOS>MOLECULE
3R540
247   249    1
SMALL
USER_CHARGES


@<TRIPOS>ATOM
      1 CA          3.3776  -14.4712  -55.2225 C.3       0 UNK        -0.1800 
      2 C           3.7359  -14.5121  -53.7435 C.2       0 UNK         0.5000 
      3 O           4.7395  -13.9238  -53.3389 O.2       0 UNK        -0.5000 
      4 N           2.9266  -15.2107  -52.9394 N.am      1 UNK        -0.5000 
      5 CA          3.0569  -15.2986  -51.4826 C.3       1 UNK         0.1400 
      6 C6          2.2562  -16.4954  -50.9019 C.3       23 UNK        -0.0398 
      7 S7          0.4894  -16.5341  -51.3808 S.3       23 UNK        -0.2404 
      8 C8          0.2089  -18.3183  -51.6152 C.3       23 UNK        -0.0205 
      9 C9          0.0943  -19.0444  -50.2852 C.ar      23 UNK        -0.0193 
     10 C10        -1.0926  -18.9698  -49.5517 C.ar      23 UNK        -0.1150 
     11 C11        -1.2082  -19.6267  -48.3252 C.ar      23 UNK        -0.0193 
     12 C12        -0.1343  -20.3800  -47.8460 C.ar      23 UNK        -0.1150 
     13 C13         1.0644  -20.4669  -48.5667 C.ar      23 UNK        -0.0193 
     14 C14         1.1669  -19.7908  -49.7876 C.ar      23 UNK        -0.1150 
     15 C15         2.2557  -21.2934  -48.0805 C.3       23 UNK        -0.0205 
     16 S16         2.3519  -21.5030  -46.2686 S.3       23 UNK        -0.2404 
     17 C17         2.0117  -23.2902  -46.0438 C.3       23 UNK        -0.0398 
     18 CA          0.5207  -23.6803  -45.8220 C.3       11 UNK         0.1400 
     19 N          -0.1595  -22.7253  -44.9392 N.am      11 UNK        -0.5000 
     20 C          -1.2517  -22.9274  -44.1935 C.2       10 UNK         0.5000 
     21 O          -1.8767  -23.9893  -44.1827 O.2       10 UNK        -0.5000 
     22 CA         -1.7246  -21.7317  -43.3412 C.3       10 UNK         0.1400 
     23 CB         -2.6388  -22.1456  -42.1708 C.3       10 UNK        -0.1800 
     24 N          -0.6266  -20.8813  -42.8714 N.am      10 UNK        -0.5000 
     25 C           0.3875  -21.2121  -42.0578 C.2       9 UNK         0.5000 
     26 O           0.5617  -22.3365  -41.5871 O.2       9 UNK        -0.5000 
     27 CA          1.3667  -20.0777  -41.6960 C.3       9 UNK         0.1400 
     28 CB          2.4330  -19.9068  -42.7887 C.3       9 UNK        -0.1800 
     29 N           0.6862  -18.7997  -41.4775 N.am      9 UNK        -0.5000 
     30 C          -0.1275  -18.5384  -40.4441 C.2       8 UNK         0.5000 
     31 O          -0.3182  -19.3165  -39.5085 O.2       8 UNK        -0.5000 
     32 CA         -0.8739  -17.1919  -40.4703 C.3       8 UNK         0.1400 
     33 CB         -0.0117  -16.0659  -39.8790 C.3       8 UNK        -0.1800 
     34 N          -1.3050  -16.8260  -41.8195 N.am      8 UNK        -0.5000 
     35 C          -2.3083  -17.4235  -42.4788 C.2       7 UNK         0.5000 
     36 O          -3.0094  -18.3149  -42.0001 O.2       7 UNK        -0.5000 
     37 CA         -2.5659  -16.9528  -43.9215 C.3       7 UNK         0.1400 
     38 CB         -3.4779  -15.7167  -43.9070 C.3       7 UNK        -0.1800 
     39 N          -1.3375  -16.6475  -44.6588 N.am      7 UNK        -0.5000 
     40 C          -0.3630  -17.5280  -44.9325 C.2       6 UNK         0.5000 
     41 O          -0.4205  -18.7195  -44.6343 O.2       6 UNK        -0.5000 
     42 CA          0.9159  -16.9770  -45.5887 C.3       6 UNK         0.1400 
     43 CB          0.7460  -16.8148  -47.1041 C.3       6 UNK        -0.1800 
     44 N           1.3247  -15.6966  -45.0196 N.am      6 UNK        -0.5000 
     45 C           1.6835  -15.4962  -43.7457 C.2       5 UNK         0.5000 
     46 O           1.7181  -16.3862  -42.8961 O.2       5 UNK        -0.5000 
     47 CA          2.0225  -14.0493  -43.3553 C.3       5 UNK         0.1400 
     48 CB          3.4781  -13.7146  -43.7149 C.3       5 UNK        -0.1800 
     49 N           1.1272  -13.1006  -44.0174 N.am      5 UNK        -0.5000 
     50 C          -0.1190  -12.8301  -43.6075 C.2       4 UNK         0.5000 
     51 O          -0.6237  -13.3115  -42.5925 O.2       4 UNK        -0.5000 
     52 CA         -0.9472  -11.8777  -44.4925 C.3       4 UNK         0.1400 
     53 CB         -0.6360  -10.4132  -44.1491 C.3       4 UNK        -0.1800 
     54 N          -0.7420  -12.0916  -45.9277 N.am      4 UNK        -0.5000 
     55 C          -1.1131  -13.1998  -46.5831 C.2       3 UNK         0.5000 
     56 O          -1.6590  -14.1590  -46.0424 O.2       3 UNK        -0.5000 
     57 CA         -0.7933  -13.2736  -48.0877 C.3       3 UNK         0.1400 
     58 CB         -1.8992  -12.5895  -48.9047 C.3       3 UNK        -0.1800 
     59 N           0.5104  -12.7386  -48.4958 N.am      3 UNK        -0.5000 
     60 C           1.6975  -13.0077  -47.9359 C.2       2 UNK         0.5000 
     61 O           1.8424  -13.6162  -46.8753 O.2       2 UNK        -0.5000 
     62 CA          2.9380  -12.5967  -48.7457 C.3       2 UNK         0.1400 
     63 CB          4.1398  -12.2781  -47.8389 C.3       2 UNK        -0.1800 
     64 N           3.2940  -13.6961  -49.6413 N.am      2 UNK        -0.5000 
     65 C           2.6739  -13.9676  -50.7971 C.2       1 UNK         0.5000 
     66 O           1.8176  -13.2326  -51.2979 O.2       1 UNK        -0.5000 
     67 C          -0.2557  -23.9893  -47.1294 C.2       11 UNK         0.5000 
     68 O           0.3376  -24.0536  -48.2077 O.2       11 UNK        -0.5000 
     69 N          -1.5710  -24.2197  -47.0131 N.am      12 UNK        -0.5000 
     70 CA         -2.5102  -24.4816  -48.1083 C.3       12 UNK         0.1400 
     71 CB         -3.9207  -24.6726  -47.5294 C.3       12 UNK        -0.1800 
     72 C          -2.1339  -25.6918  -48.9817 C.2       12 UNK         0.5000 
     73 O          -2.3380  -25.6528  -50.1947 O.2       12 UNK        -0.5000 
     74 N          -1.5606  -26.7285  -48.3551 N.am      13 UNK        -0.5000 
     75 CA         -1.0862  -27.9451  -49.0166 C.3       13 UNK         0.1400 
     76 CB         -0.7358  -28.9923  -47.9487 C.3       13 UNK        -0.1800 
     77 C           0.1150  -27.7046  -49.9516 C.2       13 UNK         0.5000 
     78 O           0.2453  -28.4050  -50.9561 O.2       13 UNK        -0.5000 
     79 N           0.9595  -26.7196  -49.6156 N.am      14 UNK        -0.5000 
     80 CA          2.0818  -26.2843  -50.4461 C.3       14 UNK         0.1400 
     81 CB          3.1725  -25.6722  -49.5533 C.3       14 UNK        -0.1800 
     82 C           1.6245  -25.2749  -51.5123 C.2       14 UNK         0.5000 
     83 O           2.1237  -25.3107  -52.6374 O.2       14 UNK        -0.5000 
     84 N           0.6840  -24.3973  -51.1364 N.am      15 UNK        -0.5000 
     85 CA          0.1138  -23.3584  -51.9915 C.3       15 UNK         0.1400 
     86 CB         -0.7536  -22.4347  -51.1288 C.3       15 UNK        -0.1800 
     87 C          -0.7343  -23.9156  -53.1465 C.2       15 UNK         0.5000 
     88 O          -0.6957  -23.3638  -54.2469 O.2       15 UNK        -0.5000 
     89 N          -1.5206  -24.9615  -52.8532 N.am      16 UNK        -0.5000 
     90 CA         -2.5166  -25.6381  -53.6917 C.3       16 UNK         0.1400 
     91 CB         -1.8869  -26.2351  -54.9648 C.3       16 UNK        -0.1800 
     92 C          -3.7421  -24.7601  -54.0135 C.2       16 UNK         0.5000 
     93 O          -4.8698  -25.1662  -53.7317 O.2       16 UNK        -0.5000 
     94 N          -3.5038  -23.5689  -54.5762 N.am      17 UNK        -0.5000 
     95 CA         -4.5210  -22.5580  -54.8686 C.3       17 UNK         0.1400 
     96 CB         -3.9752  -21.5943  -55.9332 C.3       17 UNK        -0.1800 
     97 C          -4.9558  -21.7776  -53.6136 C.2       17 UNK         0.5000 
     98 O          -6.0899  -21.3025  -53.5607 O.2       17 UNK        -0.5000 
     99 N          -4.0383  -21.6424  -52.6418 N.am      18 UNK        -0.5000 
    100 CA        -4.1967  -21.0111  -51.3212 C.3       18 UNK         0.1400 
    101 CB        -5.2567  -21.7616  -50.4940 C.3       18 UNK        -0.1800 
    102 C         -4.4493  -19.4870  -51.3318 C.2       18 UNK         0.5000 
    103 O         -4.6299  -18.9044  -50.2609 O.2       18 UNK        -0.5000 
    104 N         -4.4643  -18.8648  -52.5222 N.am      19 UNK        -0.5000 
    105 CA        -4.6100  -17.4273  -52.8083 C.3       19 UNK         0.1400 
    106 CB        -3.3304  -16.6797  -52.3803 C.3       19 UNK        -0.1800 
    107 C         -5.8799  -16.7594  -52.2298 C.2       19 UNK         0.5000 
    108 O         -5.9301  -15.5322  -52.1372 O.2       19 UNK        -0.5000 
    109 N         -6.8611  -17.5751  -51.8126 N.am      20 UNK        -0.5000 
    110 CA        -8.0229  -17.2243  -50.9834 C.3       20 UNK         0.1400 
    111 CB        -8.9796  -16.2769  -51.7368 C.3       20 UNK        -0.1800 
    112 C         -7.6430  -16.6935  -49.5778 C.2       20 UNK         0.5000 
    113 O         -8.4841  -16.0963  -48.9042 O.2       20 UNK        -0.5000 
    114 N         -6.3937  -16.9300  -49.1541 N.am      21 UNK        -0.5000 
    115 CA        -5.8253  -16.4987  -47.8791 C.3       21 UNK         0.1400 
    116 CB        -4.3947  -15.9899  -48.1297 C.3       21 UNK        -0.1800 
    117 C         -5.8451  -17.6280  -46.8330 C.2       21 UNK         0.5000 
    118 O         -5.8696  -17.3366  -45.6374 O.2       21 UNK        -0.5000 
    119 N         -5.8602  -18.8876  -47.2868 N.am      22 UNK        -0.5000 
    120 CA        -5.9350  -20.0886  -46.4374 C.3       22 UNK         0.1400 
    121 C         -6.8401  -21.2136  -47.0170 C.2       22 UNK         0.5000 
    122 N         -7.6818  -20.9369  -48.0065 N.am      22 UNK        -0.7600 
    123 O         -6.8080  -22.3474  -46.5475 O.2       22 UNK        -0.5000 
    124 C124       -4.5381  -20.5728  -45.9619 C.3       23 UNK        -0.0398 
    125 S125       -3.3816  -21.0188  -47.3043 S.3       23 UNK        -0.2404 
    126 C126       -2.4603  -19.4679  -47.4806 C.3       23 UNK        -0.0205 
    127 H127        3.2119  -13.4416  -55.5398 H         1 UNK         0.0600 
    128 H128        4.1910  -14.8862  -55.8178 H         1 UNK         0.0600 
    129 H129        2.4738  -15.0424  -55.4365 H         1 UNK         0.0600 
    130 H130        2.0936  -15.6382  -53.3185 H         1 UNK         0.3000 
    131 H131        4.1116  -15.4806  -51.2638 H         1 UNK         0.0600 
    132 H132        2.3214  -16.5178  -49.8134 H         1 UNK         0.0800 
    133 H133        2.7285  -17.4199  -51.2357 H         1 UNK         0.0800 
    134 H134        1.0045  -18.7454  -52.2275 H         1 UNK         0.0800 
    135 H135       -0.7123  -18.4650  -52.1789 H         1 UNK         0.0800 
    136 H136       -1.9154  -18.3773  -49.9252 H         1 UNK         0.1150 
    137 H137       -0.2431  -20.8814  -46.8983 H         1 UNK         0.1150 
    138 H138        2.0831  -19.8532  -50.3576 H         1 UNK         0.1150 
    139 H139        2.2351  -22.2627  -48.5781 H         1 UNK         0.0800 
    140 H140        3.1802  -20.8102  -48.3994 H         1 UNK         0.0800 
    141 H141        2.5665  -23.5803  -45.1506 H         1 UNK         0.0800 
    142 H142        2.4758  -23.8655  -46.8453 H         1 UNK         0.0800 
    143 H143        0.5358  -24.6347  -45.2917 H         1 UNK         0.0600 
    144 H144        0.2742  -21.8137  -44.8914 H         1 UNK         0.3000 
    145 H145       -2.3142  -21.1047  -44.0105 H         1 UNK         0.0600 
    146 H146       -2.9666  -21.2747  -41.6028 H         1 UNK         0.0600 
    147 H147       -3.5344  -22.6514  -42.5333 H         1 UNK         0.0600 
    148 H148       -2.1340  -22.8248  -41.4833 H         1 UNK         0.0600 
    149 H149       -0.6128  -19.9469  -43.2755 H         1 UNK         0.3000 
    150 H150        1.8725  -20.3560  -40.7691 H         1 UNK         0.0600 
    151 H151        2.9716  -20.8398  -42.9592 H         1 UNK         0.0600 
    152 H152        3.1674  -19.1517  -42.5080 H         1 UNK         0.0600 
    153 H153        1.9930  -19.6052  -43.7392 H         1 UNK         0.0600 
    154 H154        0.8372  -18.0743  -42.1707 H         1 UNK         0.3000 
    155 H155       -1.7640  -17.2935  -39.8455 H         1 UNK         0.0600 
    156 H156        0.9117  -15.9215  -40.4392 H         1 UNK         0.0600 
    157 H157        0.2643  -16.2900  -38.8479 H         1 UNK         0.0600 
    158 H158       -0.5505  -15.1181  -39.8734 H         1 UNK         0.0600 
    159 H159       -0.7719  -16.1087  -42.2909 H         1 UNK         0.3000 
    160 H160       -3.0834  -17.7556  -44.4494 H         1 UNK         0.0600 
    161 H161       -3.7713  -15.4281  -44.9147 H         1 UNK         0.0600 
    162 H162       -2.9881  -14.8595  -43.4433 H         1 UNK         0.0600 
    163 H163       -4.3961  -15.9142  -43.3522 H         1 UNK         0.0600 
    164 H164       -1.2464  -15.6939  -44.9995 H         1 UNK         0.3000 
    165 H165        1.7244  -17.6887  -45.4098 H         1 UNK         0.0600 
    166 H166        1.5740  -16.2590  -47.5424 H         1 UNK         0.0600 
    167 H167        0.7287  -17.7851  -47.5910 H         1 UNK         0.0600 
    168 H168       -0.1806  -16.3019  -47.3587 H         1 UNK         0.0600 
    169 H169        1.3698  -14.9085  -45.6613 H         1 UNK         0.3000 
    170 H170        1.9090  -13.9552  -42.2730 H         1 UNK         0.0600 
    171 H171        4.1684  -14.3971  -43.2175 H         1 UNK         0.0600 
    172 H172        3.6583  -13.7900  -44.7879 H         1 UNK         0.0600 
    173 H173        3.7381  -12.7033  -43.4021 H         1 UNK         0.0600 
    174 H174        1.4348  -12.7381  -44.9107 H         1 UNK         0.3000 
    175 H175       -2.0016  -12.0608  -44.2738 H         1 UNK         0.0600 
    176 H176       -1.2802   -9.7321  -44.7056 H         1 UNK         0.0600 
    177 H177       -0.7984  -10.2182  -43.0881 H         1 UNK         0.0600 
    178 H178        0.3998  -10.1570  -44.3753 H         1 UNK         0.0600 
    179 H179       -0.2827  -11.3555  -46.4434 H         1 UNK         0.3000 
    180 H180       -0.7928  -14.3291  -48.3626 H         1 UNK         0.0600 
    181 H181       -1.9134  -11.5117  -48.7388 H         1 UNK         0.0600 
    182 H182       -2.8828  -12.9769  -48.6352 H         1 UNK         0.0600 
    183 H183       -1.7658  -12.7643  -49.9726 H         1 UNK         0.0600 
    184 H184        0.5229  -12.2749  -49.3941 H         1 UNK         0.3000 
    185 H185        2.7040  -11.7022  -49.3271 H         1 UNK         0.0600 
    186 H186        4.4553  -13.1463  -47.2586 H         1 UNK         0.0600 
    187 H187        4.9948  -11.9406  -48.4248 H         1 UNK         0.0600 
    188 H188        3.8951  -11.4834  -47.1330 H         1 UNK         0.0600 
    189 H189        3.9732  -14.3514  -49.2822 H         1 UNK         0.3000 
    190 H190       -1.9636  -24.1806  -46.0771 H         1 UNK         0.3000 
    191 H191       -2.5185  -23.5979  -48.7478 H         1 UNK         0.0600 
    192 H192       -3.9759  -25.5508  -46.8850 H         1 UNK         0.0600 
    193 H193       -4.6551  -24.8003  -48.3258 H         1 UNK         0.0600 
    194 H194       -4.2327  -23.8109  -46.9403 H         1 UNK         0.0600 
    195 H195       -1.4322  -26.6718  -47.3556 H         1 UNK         0.3000 
    196 H196       -1.9036  -28.3376  -49.6252 H         1 UNK         0.0600 
    197 H197       -0.4013  -29.9228  -48.4093 H         1 UNK         0.0600 
    198 H198       -1.6014  -29.2304  -47.3302 H         1 UNK         0.0600 
    199 H199        0.0628  -28.6458  -47.2914 H         1 UNK         0.0600 
    200 H200        0.7508  -26.1523  -48.8049 H         1 UNK         0.3000 
    201 H201        2.5117  -27.1484  -50.9574 H         1 UNK         0.0600 
    202 H202        3.5029  -26.3787  -48.7918 H         1 UNK         0.0600 
    203 H203        2.8240  -24.7715  -49.0486 H         1 UNK         0.0600 
    204 H204        4.0471  -25.3967  -50.1437 H         1 UNK         0.0600 
    205 H205        0.3819  -24.4011  -50.1676 H         1 UNK         0.3000 
    206 H206        0.9371  -22.7763  -52.4105 H         1 UNK         0.0600 
    207 H207       -0.2404  -22.1537  -50.2131 H         1 UNK         0.0600 
    208 H208       -0.9991  -21.5182  -51.6656 H         1 UNK         0.0600 
    209 H209       -1.6872  -22.9150  -50.8373 H         1 UNK         0.0600 
    210 H210       -1.5321  -25.2682  -51.8833 H         1 UNK         0.3000 
    211 H211       -2.8795  -26.4726  -53.0894 H         1 UNK         0.0600 
    212 H212       -1.5137  -25.4662  -55.6415 H         1 UNK         0.0600 
    213 H213       -2.6187  -26.8252  -55.5176 H         1 UNK         0.0600 
    214 H214       -1.0557  -26.8957  -54.7180 H         1 UNK         0.0600 
    215 H215       -2.5334  -23.3239  -54.7547 H         1 UNK         0.3000 
    216 H216       -5.4045  -23.0541  -55.2763 H         1 UNK         0.0600 
    217 H217       -4.7142  -20.8338  -56.1892 H         1 UNK         0.0600 
    218 H218       -3.7254  -22.1250  -56.8522 H         1 UNK         0.0600 
    219 H219       -3.0770  -21.0794  -55.5897 H         1 UNK         0.0600 
    220 H220       -3.1346  -22.0555  -52.8159 H         1 UNK         0.3000 
    221 H221       -3.2460  -21.1319  -50.8036 H         1 UNK         0.0600 
    222 H222       -6.2587  -21.6464  -50.9073 H         1 UNK         0.0600 
    223 H223       -5.0331  -22.8271  -50.4390 H         1 UNK         0.0600 
    224 H224       -5.2847  -21.3888  -49.4725 H         1 UNK         0.0600 
    225 H225       -4.3578  -19.4529  -53.3358 H         1 UNK         0.3000 
    226 H226       -4.6978  -17.3396  -53.8919 H         1 UNK         0.0600 
    227 H227       -2.4525  -17.0975  -52.8704 H         1 UNK         0.0600 
    228 H228       -3.3718  -15.6255  -52.6561 H         1 UNK         0.0600 
    229 H229       -3.1727  -16.7291  -51.3026 H         1 UNK         0.0600 
    230 H230       -6.7149  -18.5651  -51.9534 H         1 UNK         0.3000 
    231 H231       -8.5584  -18.1590  -50.8120 H         1 UNK         0.0600 
    232 H232       -9.2254  -16.6677  -52.7241 H         1 UNK         0.0600 
    233 H233       -8.5511  -15.2828  -51.8655 H         1 UNK         0.0600 
    234 H234       -9.9181  -16.1572  -51.1944 H         1 UNK         0.0600 
    235 H235       -5.7736  -17.4700  -49.7513 H         1 UNK         0.3000 
    236 H236       -6.4075  -15.6702  -47.4705 H         1 UNK         0.0600 
    237 H237       -3.8759  -15.7696  -47.1970 H         1 UNK         0.0600 
    238 H238       -3.7937  -16.7138  -48.6785 H         1 UNK         0.0600 
    239 H239       -4.4095  -15.0714  -48.7162 H         1 UNK         0.0600 
    240 H240       -5.7639  -19.0533  -48.2802 H         1 UNK         0.3000 
    241 H241       -6.4760  -19.8070  -45.5322 H         1 UNK         0.0600 
    242 H242       -8.2728  -21.6707  -48.3636 H         1 UNK         0.3800 
    243 H243       -7.7844  -19.9988  -48.3539 H         1 UNK         0.3800 
    244 H244       -4.0845  -19.8028  -45.3380 H         1 UNK         0.0800 
    245 H245       -4.6409  -21.4397  -45.3073 H         1 UNK         0.0800 
    246 H246       -3.1195  -18.7185  -47.9125 H         1 UNK         0.0800 
    247 H247       -2.1783  -19.1014  -46.4966 H         1 UNK         0.0800 
@<TRIPOS>BOND
     1    1    2 1    
     2    1  127 1    
     3    1  128 1    
     4    1  129 1    
     5    2    3 2    
     6    2    4 am   BACKBONE|DICT|INTERRES
     7    4    5 1    
     8    4  130 1    
     9    5    6 1    
    10    5   65 1    
    11    5  131 1    
    12    6    7 1    
    13    6  132 1    
    14    6  133 1    
    15    7    8 1    
    16    8    9 1    
    17    8  134 1    
    18    8  135 1    
    19    9   10 ar   
    20    9   14 ar   
    21   10   11 ar   
    22   10  136 1    
    23   11   12 ar   
    24   11  126 1    
    25   12   13 ar   
    26   12  137 1    
    27   13   14 ar   
    28   13   15 1    
    29   14  138 1    
    30   15   16 1    
    31   15  139 1    
    32   15  140 1    
    33   16   17 1    
    34   17   18 1    
    35   17  141 1    
    36   17  142 1    
    37   18   19 1    
    38   18   67 1    
    39   18  143 1    
    40   19   20 am   BACKBONE|DICT|INTERRES
    41   19  144 1    
    42   20   21 2    
    43   20   22 1    
    44   22   23 1    
    45   22   24 1    
    46   22  145 1    
    47   23  146 1    
    48   23  147 1    
    49   23  148 1    
    50   24   25 am   BACKBONE|DICT|INTERRES
    51   24  149 1    
    52   25   26 2    
    53   25   27 1    
    54   27   28 1    
    55   27   29 1    
    56   27  150 1    
    57   28  151 1    
    58   28  152 1    
    59   28  153 1    
    60   29   30 am   BACKBONE|DICT|INTERRES
    61   29  154 1    
    62   30   31 2    
    63   30   32 1    
    64   32   33 1    
    65   32   34 1    
    66   32  155 1    
    67   33  156 1    
    68   33  157 1    
    69   33  158 1    
    70   34   35 am   BACKBONE|DICT|INTERRES
    71   34  159 1    
    72   35   36 2    
    73   35   37 1    
    74   37   38 1    
    75   37   39 1    
    76   37  160 1    
    77   38  161 1    
    78   38  162 1    
    79   38  163 1    
    80   39   40 am   BACKBONE|DICT|INTERRES
    81   39  164 1    
    82   40   41 2    
    83   40   42 1    
    84   42   43 1    
    85   42   44 1    
    86   42  165 1    
    87   43  166 1    
    88   43  167 1    
    89   43  168 1    
    90   44   45 am   BACKBONE|DICT|INTERRES
    91   44  169 1    
    92   45   46 2    
    93   45   47 1    
    94   47   48 1    
    95   47   49 1    
    96   47  170 1    
    97   48  171 1    
    98   48  172 1    
    99   48  173 1    
   100   49   50 am   BACKBONE|DICT|INTERRES
   101   49  174 1    
   102   50   51 2    
   103   50   52 1    
   104   52   53 1    
   105   52   54 1    
   106   52  175 1    
   107   53  176 1    
   108   53  177 1    
   109   53  178 1    
   110   54   55 am   BACKBONE|DICT|INTERRES
   111   54  179 1    
   112   55   56 2    
   113   55   57 1    
   114   57   58 1    
   115   57   59 1    
   116   57  180 1    
   117   58  181 1    
   118   58  182 1    
   119   58  183 1    
   120   59   60 am   BACKBONE|DICT|INTERRES
   121   59  184 1    
   122   60   61 2    
   123   60   62 1    
   124   62   63 1    
   125   62   64 1    
   126   62  185 1    
   127   63  186 1    
   128   63  187 1    
   129   63  188 1    
   130   64   65 am   BACKBONE|DICT|INTERRES
   131   64  189 1    
   132   65   66 2    
   133   67   68 2    
   134   67   69 am   BACKBONE|DICT|INTERRES
   135   69   70 1    
   136   69  190 1    
   137   70   71 1    
   138   70   72 1    
   139   70  191 1    
   140   71  192 1    
   141   71  193 1    
   142   71  194 1    
   143   72   73 2    
   144   72   74 am   BACKBONE|DICT|INTERRES
   145   74   75 1    
   146   74  195 1    
   147   75   76 1    
   148   75   77 1    
   149   75  196 1    
   150   76  197 1    
   151   76  198 1    
   152   76  199 1    
   153   77   78 2    
   154   77   79 am   BACKBONE|DICT|INTERRES
   155   79   80 1    
   156   79  200 1    
   157   80   81 1    
   158   80   82 1    
   159   80  201 1    
   160   81  202 1    
   161   81  203 1    
   162   81  204 1    
   163   82   83 2    
   164   82   84 am   BACKBONE|DICT|INTERRES
   165   84   85 1    
   166   84  205 1    
   167   85   86 1    
   168   85   87 1    
   169   85  206 1    
   170   86  207 1    
   171   86  208 1    
   172   86  209 1    
   173   87   88 2    
   174   87   89 am   BACKBONE|DICT|INTERRES
   175   89   90 1    
   176   89  210 1    
   177   90   91 1    
   178   90   92 1    
   179   90  211 1    
   180   91  212 1    
   181   91  213 1    
   182   91  214 1    
   183   92   93 2    
   184   92   94 am   BACKBONE|DICT|INTERRES
   185   94   95 1    
   186   94  215 1    
   187   95   96 1    
   188   95   97 1    
   189   95  216 1    
   190   96  217 1    
   191   96  218 1    
   192   96  219 1    
   193   97   98 2    
   194   97   99 am   BACKBONE|DICT|INTERRES
   195   99  100 1    
   196   99  220 1    
   197  100  101 1    
   198  100  102 1    
   199  100  221 1    
   200  101  222 1    
   201  101  223 1    
   202  101  224 1    
   203  102  103 2    
   204  102  104 am   BACKBONE|DICT|INTERRES
   205  104  105 1    
   206  104  225 1    
   207  105  106 1    
   208  105  107 1    
   209  105  226 1    
   210  106  227 1    
   211  106  228 1    
   212  106  229 1    
   213  107  108 2    
   214  107  109 am   BACKBONE|DICT|INTERRES
   215  109  110 1    
   216  109  230 1    
   217  110  111 1    
   218  110  112 1    
   219  110  231 1    
   220  111  232 1    
   221  111  233 1    
   222  111  234 1    
   223  112  113 2    
   224  112  114 am   BACKBONE|DICT|INTERRES
   225  114  115 1    
   226  114  235 1    
   227  115  116 1    
   228  115  117 1    
   229  115  236 1    
   230  116  237 1    
   231  116  238 1    
   232  116  239 1    
   233  117  118 2    
   234  117  119 am   BACKBONE|DICT|INTERRES
   235  119  120 1    
   236  119  240 1    
   237  120  121 1    
   238  120  124 1    
   239  120  241 1    
   240  121  122 am   BACKBONE|DICT|INTERRES
   241  121  123 2    
   242  122  242 1    
   243  122  243 1    
   244  124  125 1    
   245  124  244 1    
   246  124  245 1    
   247  125  126 1    
   248  126  246 1    
   249  126  247 1    
@<TRIPOS>SUBSTRUCTURE
     1 UNK         1 GROUP             0       ****    0 ROOT    
