@<TRIPOS>MOLECULE
3R540
247   249    1
SMALL
USER_CHARGES


@<TRIPOS>ATOM
      1 CA          0.7988  -14.8359  -48.5147 C.3       0 UNK        -0.1800 
      2 C           0.3790  -14.4836  -47.0959 C.2       0 UNK         0.5000 
      3 O           1.2350  -14.2511  -46.2438 O.2       0 UNK        -0.5000 
      4 N          -0.9345  -14.4179  -46.8374 N.am      1 UNK        -0.5000 
      5 CA         -1.5077  -14.1682  -45.5066 C.3       1 UNK         0.1400 
      6 C6         -3.0233  -14.4877  -45.4378 C.3       23 UNK        -0.0398 
      7 S7         -3.3914  -16.2377  -45.8135 S.3       23 UNK        -0.2404 
      8 C8         -4.1796  -16.1296  -47.4514 C.3       23 UNK        -0.0205 
      9 C9         -3.7490  -17.2881  -48.3362 C.ar      23 UNK        -0.0193 
     10 C10        -4.5971  -18.3756  -48.5682 C.ar      23 UNK        -0.1150 
     11 C11        -4.1870  -19.4428  -49.3838 C.ar      23 UNK        -0.0193 
     12 C12        -2.9168  -19.3945  -49.9670 C.ar      23 UNK        -0.1150 
     13 C13        -2.0523  -18.3251  -49.7212 C.ar      23 UNK        -0.0193 
     14 C14        -2.4810  -17.2704  -48.9169 C.ar      23 UNK        -0.1150 
     15 C15        -0.6446  -18.3084  -50.2968 C.3       23 UNK        -0.0205 
     16 S16         0.3715  -19.7102  -49.7347 S.3       23 UNK        -0.2404 
     17 C17         0.2929  -19.5796  -47.9126 C.3       23 UNK        -0.0398 
     18 CA         -0.0169  -20.9484  -47.2565 C.3       11 UNK         0.1400 
     19 N           0.5925  -21.0787  -45.9309 N.am      11 UNK        -0.5000 
     20 C           0.8827  -22.2575  -45.3630 C.2       10 UNK         0.5000 
     21 O           0.5512  -23.3424  -45.8414 O.2       10 UNK        -0.5000 
     22 CA          1.6954  -22.2249  -44.0566 C.3       10 UNK         0.1400 
     23 CB          3.1392  -21.7668  -44.3177 C.3       10 UNK        -0.1800 
     24 N           1.0877  -21.3708  -43.0419 N.am      10 UNK        -0.5000 
     25 C          -0.0534  -21.6564  -42.4010 C.2       9 UNK         0.5000 
     26 O          -0.6847  -22.7027  -42.5543 O.2       9 UNK        -0.5000 
     27 CA         -0.5949  -20.5802  -41.4417 C.3       9 UNK         0.1400 
     28 CB          0.0626  -20.7065  -40.0593 C.3       9 UNK        -0.1800 
     29 N          -0.4229  -19.2133  -41.9376 N.am      9 UNK        -0.5000 
     30 C          -0.9253  -18.7498  -43.0911 C.2       8 UNK         0.5000 
     31 O          -1.5636  -19.4332  -43.8870 O.2       8 UNK        -0.5000 
     32 CA         -0.6108  -17.2905  -43.4458 C.3       8 UNK         0.1400 
     33 CB         -1.3572  -16.3272  -42.5040 C.3       8 UNK        -0.1800 
     34 N           0.8246  -17.0204  -43.4193 N.am      8 UNK        -0.5000 
     35 C           1.7374  -17.6480  -44.1765 C.2       7 UNK         0.5000 
     36 O           1.4637  -18.4848  -45.0370 O.2       7 UNK        -0.5000 
     37 CA          3.2126  -17.3425  -43.8704 C.3       7 UNK         0.1400 
     38 CB          3.6688  -16.0522  -44.5674 C.3       7 UNK        -0.1800 
     39 N           3.4594  -17.2480  -42.4311 N.am      7 UNK        -0.5000 
     40 C           3.3656  -18.2785  -41.5771 C.2       6 UNK         0.5000 
     41 O           3.1123  -19.4333  -41.9198 O.2       6 UNK        -0.5000 
     42 CA          3.5394  -17.9484  -40.0838 C.3       6 UNK         0.1400 
     43 CB          5.0279  -17.8632  -39.7148 C.3       6 UNK        -0.1800 
     44 N           2.8738  -16.6981  -39.7146 N.am      6 UNK        -0.5000 
     45 C           1.5441  -16.5247  -39.7049 C.2       5 UNK         0.5000 
     46 O           0.7386  -17.4234  -39.9449 O.2       5 UNK        -0.5000 
     47 CA          1.0333  -15.0972  -39.4275 C.3       5 UNK         0.1400 
     48 CB          0.8588  -14.8694  -37.9189 C.3       5 UNK        -0.1800 
     49 N           1.9119  -14.0608  -39.9797 N.am      5 UNK        -0.5000 
     50 C           2.1274  -13.8779  -41.2885 C.2       4 UNK         0.5000 
     51 O           1.5803  -14.5436  -42.1702 O.2       4 UNK        -0.5000 
     52 CA          3.1815  -12.8331  -41.6721 C.3       4 UNK         0.1400 
     53 CB          4.5937  -13.4270  -41.4838 C.3       4 UNK        -0.1800 
     54 N           2.9693  -12.4422  -43.0632 N.am      4 UNK        -0.5000 
     55 C           3.5945  -11.4490  -43.7051 C.2       3 UNK         0.5000 
     56 O           4.4205  -10.7021  -43.1786 O.2       3 UNK        -0.5000 
     57 CA          3.2305  -11.2478  -45.1857 C.3       3 UNK         0.1400 
     58 CB          3.9449  -12.2820  -46.0700 C.3       3 UNK        -0.1800 
     59 N           1.7870  -11.2993  -45.4266 N.am      3 UNK        -0.5000 
     60 C           0.9454  -10.3004  -45.1150 C.2       2 UNK         0.5000 
     61 O           1.3023   -9.2701  -44.5418 O.2       2 UNK        -0.5000 
     62 CA         -0.5322  -10.4362  -45.5369 C.3       2 UNK         0.1400 
     63 CB         -0.8248   -9.5409  -46.7515 C.3       2 UNK        -0.1800 
     64 N          -0.9181  -11.8063  -45.8673 N.am      2 UNK        -0.5000 
     65 C          -1.2180  -12.7506  -44.9667 C.2       1 UNK         0.5000 
     66 O          -1.2563  -12.5443  -43.7536 O.2       1 UNK        -0.5000 
     67 C          -1.5200  -21.2980  -47.2637 C.2       11 UNK         0.5000 
     68 O          -1.9775  -21.9392  -48.2100 O.2       11 UNK        -0.5000 
     69 N          -2.2569  -20.9551  -46.1942 N.am      12 UNK        -0.5000 
     70 CA         -3.6916  -21.2422  -46.0506 C.3       12 UNK         0.1400 
     71 CB         -4.2735  -20.4565  -44.8667 C.3       12 UNK        -0.1800 
     72 C          -4.0329  -22.7412  -45.9289 C.2       12 UNK         0.5000 
     73 O          -5.2027  -23.1045  -46.0438 O.2       12 UNK        -0.5000 
     74 N          -3.0198  -23.5899  -45.7182 N.am      13 UNK        -0.5000 
     75 CA         -3.1346  -25.0451  -45.7694 C.3       13 UNK         0.1400 
     76 CB         -2.0401  -25.6510  -44.8760 C.3       13 UNK        -0.1800 
     77 C          -3.0378  -25.6041  -47.2063 C.2       13 UNK         0.5000 
     78 O          -3.2378  -26.8069  -47.3839 O.2       13 UNK        -0.5000 
     79 N          -2.7093  -24.7602  -48.1960 N.am      14 UNK        -0.5000 
     80 CA         -2.4269  -25.1564  -49.5716 C.3       14 UNK         0.1400 
     81 CB         -0.9066  -25.3796  -49.7243 C.3       14 UNK        -0.1800 
     82 C          -3.0281  -24.1433  -50.5654 C.2       14 UNK         0.5000 
     83 O          -4.2460  -23.9429  -50.5686 O.2       14 UNK        -0.5000 
     84 N          -2.1835  -23.5650  -51.4259 N.am      15 UNK        -0.5000 
     85 CA         -2.5464  -22.7094  -52.5475 C.3       15 UNK         0.1400 
     86 CB         -2.8571  -23.6012  -53.7646 C.3       15 UNK        -0.1800 
     87 C          -1.3761  -21.7676  -52.8580 C.2       15 UNK         0.5000 
     88 O          -0.2347  -22.0626  -52.4932 O.2       15 UNK        -0.5000 
     89 N          -1.6681  -20.6793  -53.5762 N.am      16 UNK        -0.5000 
     90 CA         -0.7030  -19.6956  -54.0586 C.3       16 UNK         0.1400 
     91 CB         -1.4285  -18.3498  -54.2525 C.3       16 UNK        -0.1800 
     92 C          -0.0441  -20.2020  -55.3555 C.2       16 UNK         0.5000 
     93 O          -0.3549  -19.7102  -56.4410 O.2       16 UNK        -0.5000 
     94 N           0.8260  -21.2122  -55.2125 N.am      17 UNK        -0.5000 
     95 CA          1.5442  -21.9186  -56.2808 C.3       17 UNK         0.1400 
     96 CB          2.5429  -20.9804  -56.9916 C.3       17 UNK        -0.1800 
     97 C           0.5808  -22.6358  -57.2504 C.2       17 UNK         0.5000 
     98 O           0.6503  -22.4381  -58.4647 O.2       17 UNK        -0.5000 
     99 N          -0.3116  -23.4514  -56.6683 N.am      18 UNK        -0.5000 
    100 CA        -1.3436  -24.2629  -57.3298 C.3       18 UNK         0.1400 
    101 CB        -0.7134  -25.3057  -58.2777 C.3       18 UNK        -0.1800 
    102 C         -2.4645  -23.4382  -58.0019 C.2       18 UNK         0.5000 
    103 O         -3.1305  -23.9355  -58.9118 O.2       18 UNK        -0.5000 
    104 N         -2.6816  -22.2111  -57.5183 N.am      19 UNK        -0.5000 
    105 CA        -3.7877  -21.3307  -57.8792 C.3       19 UNK         0.1400 
    106 CB        -3.2683  -20.2141  -58.7980 C.3       19 UNK        -0.1800 
    107 C         -4.3715  -20.7478  -56.5856 C.2       19 UNK         0.5000 
    108 O         -3.6434  -20.6226  -55.5988 O.2       19 UNK        -0.5000 
    109 N         -5.6686  -20.4078  -56.6055 N.am      20 UNK        -0.5000 
    110 CA        -6.4357  -19.8479  -55.4814 C.3       20 UNK         0.1400 
    111 CB        -5.9998  -18.3921  -55.2106 C.3       20 UNK        -0.1800 
    112 C         -6.3746  -20.7371  -54.2183 C.2       20 UNK         0.5000 
    113 O         -6.1039  -20.2459  -53.1217 O.2       20 UNK        -0.5000 
    114 N         -6.5691  -22.0477  -54.4203 N.am      21 UNK        -0.5000 
    115 CA        -6.4442  -23.0825  -53.3962 C.3       21 UNK         0.1400 
    116 CB        -6.5434  -24.4634  -54.0619 C.3       21 UNK        -0.1800 
    117 C         -7.4766  -22.9435  -52.2660 C.2       21 UNK         0.5000 
    118 O         -8.6516  -22.6802  -52.5342 O.2       21 UNK        -0.5000 
    119 N         -7.0113  -23.1546  -51.0324 N.am      22 UNK        -0.5000 
    120 CA        -7.8215  -23.1064  -49.8070 C.3       22 UNK         0.1400 
    121 C         -8.4148  -24.4875  -49.4002 C.2       22 UNK         0.5000 
    122 N         -8.0903  -25.5833  -50.0765 N.am      22 UNK        -0.7600 
    123 O         -9.2030  -24.5657  -48.4618 O.2       22 UNK        -0.5000 
    124 C124       -7.0157  -22.4799  -48.6436 C.3       23 UNK        -0.0398 
    125 S125       -6.6986  -20.6959  -48.8737 S.3       23 UNK        -0.2404 
    126 C126       -5.0336  -20.6960  -49.6268 C.3       23 UNK        -0.0205 
    127 H127        1.2457  -15.8299  -48.5337 H         1 UNK         0.0600 
    128 H128        1.5396  -14.1215  -48.8743 H         1 UNK         0.0600 
    129 H129       -0.0454  -14.8230  -49.2040 H         1 UNK         0.0600 
    130 H130       -1.5996  -14.5959  -47.5743 H         1 UNK         0.3000 
    131 H131       -0.9911  -14.8441  -44.8291 H         1 UNK         0.0600 
    132 H132       -3.4018  -14.2964  -44.4318 H         1 UNK         0.0800 
    133 H133       -3.5899  -13.8301  -46.0987 H         1 UNK         0.0800 
    134 H134       -3.9164  -15.1938  -47.9456 H         1 UNK         0.0800 
    135 H135       -5.2634  -16.1170  -47.3273 H         1 UNK         0.0800 
    136 H136       -5.5667  -18.3838  -48.0937 H         1 UNK         0.1150 
    137 H137       -2.5770  -20.2194  -50.5763 H         1 UNK         0.1150 
    138 H138       -1.8185  -16.4413  -48.7226 H         1 UNK         0.1150 
    139 H139       -0.7053  -18.3337  -51.3826 H         1 UNK         0.0800 
    140 H140       -0.1292  -17.3815  -50.0428 H         1 UNK         0.0800 
    141 H141       -0.4118  -18.8130  -47.5877 H         1 UNK         0.0800 
    142 H142        1.2751  -19.2272  -47.5957 H         1 UNK         0.0800 
    143 H143        0.4668  -21.7090  -47.8748 H         1 UNK         0.0600 
    144 H144        0.8794  -20.2144  -45.4764 H         1 UNK         0.3000 
    145 H145        1.7346  -23.2433  -43.6641 H         1 UNK         0.0600 
    146 H146        3.7426  -21.8370  -43.4125 H         1 UNK         0.0600 
    147 H147        3.6162  -22.3888  -45.0760 H         1 UNK         0.0600 
    148 H148        3.1805  -20.7338  -44.6646 H         1 UNK         0.0600 
    149 H149        1.5718  -20.5078  -42.8192 H         1 UNK         0.3000 
    150 H150       -1.6669  -20.7529  -41.3271 H         1 UNK         0.0600 
    151 H151       -0.0616  -21.7124  -39.6564 H         1 UNK         0.0600 
    152 H152       -0.3832  -20.0129  -39.3461 H         1 UNK         0.0600 
    153 H153        1.1323  -20.4984  -40.1035 H         1 UNK         0.0600 
    154 H154        0.0869  -18.5740  -41.3333 H         1 UNK         0.3000 
    155 H155       -0.9482  -17.1183  -44.4683 H         1 UNK         0.0600 
    156 H156       -1.2031  -16.5746  -41.4549 H         1 UNK         0.0600 
    157 H157       -2.4311  -16.3686  -42.6884 H         1 UNK         0.0600 
    158 H158       -1.0418  -15.2935  -42.6384 H         1 UNK         0.0600 
    159 H159        1.1392  -16.2913  -42.7857 H         1 UNK         0.3000 
    160 H160        3.8116  -18.1676  -44.2615 H         1 UNK         0.0600 
    161 H161        3.1055  -15.1852  -44.2249 H         1 UNK         0.0600 
    162 H162        3.5255  -16.1229  -45.6465 H         1 UNK         0.0600 
    163 H163        4.7266  -15.8576  -44.3910 H         1 UNK         0.0600 
    164 H164        3.6283  -16.3267  -42.0596 H         1 UNK         0.3000 
    165 H165        3.0896  -18.7597  -39.5073 H         1 UNK         0.0600 
    166 H166        5.1597  -17.7018  -38.6448 H         1 UNK         0.0600 
    167 H167        5.5456  -18.7892  -39.9689 H         1 UNK         0.0600 
    168 H168        5.5302  -17.0508  -40.2416 H         1 UNK         0.0600 
    169 H169        3.4650  -15.9118  -39.4912 H         1 UNK         0.3000 
    170 H170        0.0550  -14.9981  -39.9026 H         1 UNK         0.0600 
    171 H171        0.1919  -15.6165  -37.4865 H         1 UNK         0.0600 
    172 H172        1.8097  -14.9315  -37.3881 H         1 UNK         0.0600 
    173 H173        0.4233  -13.8909  -37.7157 H         1 UNK         0.0600 
    174 H174        2.3993  -13.4794  -39.3128 H         1 UNK         0.3000 
    175 H175        3.0552  -11.9565  -41.0339 H         1 UNK         0.0600 
    176 H176        4.7699  -14.2650  -42.1589 H         1 UNK         0.0600 
    177 H177        5.3704  -12.6852  -41.6679 H         1 UNK         0.0600 
    178 H178        4.7406  -13.7880  -40.4652 H         1 UNK         0.0600 
    179 H179        2.2775  -13.0004  -43.5497 H         1 UNK         0.3000 
    180 H180        3.5899  -10.2602  -45.4835 H         1 UNK         0.0600 
    181 H181        3.6640  -13.3022  -45.8103 H         1 UNK         0.0600 
    182 H182        5.0272  -12.2053  -45.9596 H         1 UNK         0.0600 
    183 H183        3.7132  -12.1289  -47.1241 H         1 UNK         0.0600 
    184 H184        1.4261  -12.1457  -45.8506 H         1 UNK         0.3000 
    185 H185       -1.1449  -10.0865  -44.7031 H         1 UNK         0.0600 
    186 H186       -0.5843   -8.4987  -46.5371 H         1 UNK         0.0600 
    187 H187       -0.2402   -9.8399  -47.6225 H         1 UNK         0.0600 
    188 H188       -1.8795   -9.5788  -47.0249 H         1 UNK         0.0600 
    189 H189       -0.9042  -12.0610  -46.8441 H         1 UNK         0.3000 
    190 H190       -1.8273  -20.4449  -45.4244 H         1 UNK         0.3000 
    191 H191       -4.1872  -20.8808  -46.9501 H         1 UNK         0.0600 
    192 H192       -3.8455  -20.7842  -43.9188 H         1 UNK         0.0600 
    193 H193       -5.3539  -20.5908  -44.8021 H         1 UNK         0.0600 
    194 H194       -4.0882  -19.3874  -44.9741 H         1 UNK         0.0600 
    195 H195       -2.0858  -23.2136  -45.6280 H         1 UNK         0.3000 
    196 H196       -4.1034  -25.3450  -45.3648 H         1 UNK         0.0600 
    197 H197       -2.1403  -26.7353  -44.8148 H         1 UNK         0.0600 
    198 H198       -2.0980  -25.2617  -43.8591 H         1 UNK         0.0600 
    199 H199       -1.0427  -25.4362  -45.2602 H         1 UNK         0.0600 
    200 H200       -2.5869  -23.7705  -47.9991 H         1 UNK         0.3000 
    201 H201       -2.9264  -26.1018  -49.7921 H         1 UNK         0.0600 
    202 H202       -0.5568  -26.1533  -49.0405 H         1 UNK         0.0600 
    203 H203       -0.3412  -24.4718  -49.5078 H         1 UNK         0.0600 
    204 H204       -0.6497  -25.7092  -50.7318 H         1 UNK         0.0600 
    205 H205       -1.1866  -23.7037  -51.3186 H         1 UNK         0.3000 
    206 H206       -3.4153  -22.1037  -52.2830 H         1 UNK         0.0600 
    207 H207       -1.9679  -24.1316  -54.1058 H         1 UNK         0.0600 
    208 H208       -3.6091  -24.3532  -53.5285 H         1 UNK         0.0600 
    209 H209       -3.2361  -23.0157  -54.6010 H         1 UNK         0.0600 
    210 H210       -2.5998  -20.5851  -53.9728 H         1 UNK         0.3000 
    211 H211        0.0811  -19.5554  -53.3117 H         1 UNK         0.0600 
    212 H212       -2.1967  -18.4094  -55.0243 H         1 UNK         0.0600 
    213 H213       -0.7267  -17.5694  -54.5485 H         1 UNK         0.0600 
    214 H214       -1.9161  -18.0214  -53.3352 H         1 UNK         0.0600 
    215 H215        0.9621  -21.5726  -54.2745 H         1 UNK         0.3000 
    216 H216        2.1270  -22.7020  -55.7941 H         1 UNK         0.0600 
    217 H217        3.1543  -21.5335  -57.7056 H         1 UNK         0.0600 
    218 H218        3.2212  -20.5136  -56.2776 H         1 UNK         0.0600 
    219 H219        2.0382  -20.1866  -57.5428 H         1 UNK         0.0600 
    220 H220       -0.2775  -23.5316  -55.6624 H         1 UNK         0.3000 
    221 H221       -1.8363  -24.8193  -56.5315 H         1 UNK         0.0600 
    222 H222       -0.2731  -24.8406  -59.1598 H         1 UNK         0.0600 
    223 H223        0.0663  -25.8771  -57.7740 H         1 UNK         0.0600 
    224 H224       -1.4606  -26.0194  -58.6266 H         1 UNK         0.0600 
    225 H225       -2.1131  -21.8723  -56.7539 H         1 UNK         0.3000 
    226 H226       -4.5724  -21.8905  -58.3923 H         1 UNK         0.0600 
    227 H227       -2.8417  -20.6252  -59.7130 H         1 UNK         0.0600 
    228 H228       -4.0731  -19.5375  -59.0873 H         1 UNK         0.0600 
    229 H229       -2.4965  -19.6187  -58.3081 H         1 UNK         0.0600 
    230 H230       -6.1907  -20.5517  -57.4588 H         1 UNK         0.3000 
    231 H231       -7.4811  -19.8277  -55.7925 H         1 UNK         0.0600 
    232 H232       -6.0781  -17.7832  -56.1111 H         1 UNK         0.0600 
    233 H233       -4.9694  -18.3363  -54.8573 H         1 UNK         0.0600 
    234 H234       -6.6310  -17.9300  -54.4507 H         1 UNK         0.0600 
    235 H235       -6.8009  -22.3610  -55.3508 H         1 UNK         0.3000 
    236 H236       -5.4530  -22.9825  -52.9574 H         1 UNK         0.0600 
    237 H237       -7.5207  -24.6187  -54.5207 H         1 UNK         0.0600 
    238 H238       -5.7858  -24.5858  -54.8363 H         1 UNK         0.0600 
    239 H239       -6.3917  -25.2598  -53.3323 H         1 UNK         0.0600 
    240 H240       -6.0315  -23.3963  -50.8998 H         1 UNK         0.3000 
    241 H241       -8.6873  -22.4652  -49.9833 H         1 UNK         0.0600 
    242 H242       -7.4463  -25.5363  -50.8490 H         1 UNK         0.3800 
    243 H243       -8.4888  -26.4692  -49.8073 H         1 UNK         0.3800 
    244 H244       -7.5571  -22.5767  -47.7009 H         1 UNK         0.0800 
    245 H245       -6.0766  -23.0162  -48.5035 H         1 UNK         0.0800 
    246 H246       -5.1425  -20.8509  -50.7003 H         1 UNK         0.0800 
    247 H247       -4.4716  -21.5509  -49.2510 H         1 UNK         0.0800 
@<TRIPOS>BOND
     1    1    2 1    
     2    1  127 1    
     3    1  128 1    
     4    1  129 1    
     5    2    3 2    
     6    2    4 am   BACKBONE|DICT|INTERRES
     7    4    5 1    
     8    4  130 1    
     9    5    6 1    
    10    5   65 1    
    11    5  131 1    
    12    6    7 1    
    13    6  132 1    
    14    6  133 1    
    15    7    8 1    
    16    8    9 1    
    17    8  134 1    
    18    8  135 1    
    19    9   10 ar   
    20    9   14 ar   
    21   10   11 ar   
    22   10  136 1    
    23   11   12 ar   
    24   11  126 1    
    25   12   13 ar   
    26   12  137 1    
    27   13   14 ar   
    28   13   15 1    
    29   14  138 1    
    30   15   16 1    
    31   15  139 1    
    32   15  140 1    
    33   16   17 1    
    34   17   18 1    
    35   17  141 1    
    36   17  142 1    
    37   18   19 1    
    38   18   67 1    
    39   18  143 1    
    40   19   20 am   BACKBONE|DICT|INTERRES
    41   19  144 1    
    42   20   21 2    
    43   20   22 1    
    44   22   23 1    
    45   22   24 1    
    46   22  145 1    
    47   23  146 1    
    48   23  147 1    
    49   23  148 1    
    50   24   25 am   BACKBONE|DICT|INTERRES
    51   24  149 1    
    52   25   26 2    
    53   25   27 1    
    54   27   28 1    
    55   27   29 1    
    56   27  150 1    
    57   28  151 1    
    58   28  152 1    
    59   28  153 1    
    60   29   30 am   BACKBONE|DICT|INTERRES
    61   29  154 1    
    62   30   31 2    
    63   30   32 1    
    64   32   33 1    
    65   32   34 1    
    66   32  155 1    
    67   33  156 1    
    68   33  157 1    
    69   33  158 1    
    70   34   35 am   BACKBONE|DICT|INTERRES
    71   34  159 1    
    72   35   36 2    
    73   35   37 1    
    74   37   38 1    
    75   37   39 1    
    76   37  160 1    
    77   38  161 1    
    78   38  162 1    
    79   38  163 1    
    80   39   40 am   BACKBONE|DICT|INTERRES
    81   39  164 1    
    82   40   41 2    
    83   40   42 1    
    84   42   43 1    
    85   42   44 1    
    86   42  165 1    
    87   43  166 1    
    88   43  167 1    
    89   43  168 1    
    90   44   45 am   BACKBONE|DICT|INTERRES
    91   44  169 1    
    92   45   46 2    
    93   45   47 1    
    94   47   48 1    
    95   47   49 1    
    96   47  170 1    
    97   48  171 1    
    98   48  172 1    
    99   48  173 1    
   100   49   50 am   BACKBONE|DICT|INTERRES
   101   49  174 1    
   102   50   51 2    
   103   50   52 1    
   104   52   53 1    
   105   52   54 1    
   106   52  175 1    
   107   53  176 1    
   108   53  177 1    
   109   53  178 1    
   110   54   55 am   BACKBONE|DICT|INTERRES
   111   54  179 1    
   112   55   56 2    
   113   55   57 1    
   114   57   58 1    
   115   57   59 1    
   116   57  180 1    
   117   58  181 1    
   118   58  182 1    
   119   58  183 1    
   120   59   60 am   BACKBONE|DICT|INTERRES
   121   59  184 1    
   122   60   61 2    
   123   60   62 1    
   124   62   63 1    
   125   62   64 1    
   126   62  185 1    
   127   63  186 1    
   128   63  187 1    
   129   63  188 1    
   130   64   65 am   BACKBONE|DICT|INTERRES
   131   64  189 1    
   132   65   66 2    
   133   67   68 2    
   134   67   69 am   BACKBONE|DICT|INTERRES
   135   69   70 1    
   136   69  190 1    
   137   70   71 1    
   138   70   72 1    
   139   70  191 1    
   140   71  192 1    
   141   71  193 1    
   142   71  194 1    
   143   72   73 2    
   144   72   74 am   BACKBONE|DICT|INTERRES
   145   74   75 1    
   146   74  195 1    
   147   75   76 1    
   148   75   77 1    
   149   75  196 1    
   150   76  197 1    
   151   76  198 1    
   152   76  199 1    
   153   77   78 2    
   154   77   79 am   BACKBONE|DICT|INTERRES
   155   79   80 1    
   156   79  200 1    
   157   80   81 1    
   158   80   82 1    
   159   80  201 1    
   160   81  202 1    
   161   81  203 1    
   162   81  204 1    
   163   82   83 2    
   164   82   84 am   BACKBONE|DICT|INTERRES
   165   84   85 1    
   166   84  205 1    
   167   85   86 1    
   168   85   87 1    
   169   85  206 1    
   170   86  207 1    
   171   86  208 1    
   172   86  209 1    
   173   87   88 2    
   174   87   89 am   BACKBONE|DICT|INTERRES
   175   89   90 1    
   176   89  210 1    
   177   90   91 1    
   178   90   92 1    
   179   90  211 1    
   180   91  212 1    
   181   91  213 1    
   182   91  214 1    
   183   92   93 2    
   184   92   94 am   BACKBONE|DICT|INTERRES
   185   94   95 1    
   186   94  215 1    
   187   95   96 1    
   188   95   97 1    
   189   95  216 1    
   190   96  217 1    
   191   96  218 1    
   192   96  219 1    
   193   97   98 2    
   194   97   99 am   BACKBONE|DICT|INTERRES
   195   99  100 1    
   196   99  220 1    
   197  100  101 1    
   198  100  102 1    
   199  100  221 1    
   200  101  222 1    
   201  101  223 1    
   202  101  224 1    
   203  102  103 2    
   204  102  104 am   BACKBONE|DICT|INTERRES
   205  104  105 1    
   206  104  225 1    
   207  105  106 1    
   208  105  107 1    
   209  105  226 1    
   210  106  227 1    
   211  106  228 1    
   212  106  229 1    
   213  107  108 2    
   214  107  109 am   BACKBONE|DICT|INTERRES
   215  109  110 1    
   216  109  230 1    
   217  110  111 1    
   218  110  112 1    
   219  110  231 1    
   220  111  232 1    
   221  111  233 1    
   222  111  234 1    
   223  112  113 2    
   224  112  114 am   BACKBONE|DICT|INTERRES
   225  114  115 1    
   226  114  235 1    
   227  115  116 1    
   228  115  117 1    
   229  115  236 1    
   230  116  237 1    
   231  116  238 1    
   232  116  239 1    
   233  117  118 2    
   234  117  119 am   BACKBONE|DICT|INTERRES
   235  119  120 1    
   236  119  240 1    
   237  120  121 1    
   238  120  124 1    
   239  120  241 1    
   240  121  122 am   BACKBONE|DICT|INTERRES
   241  121  123 2    
   242  122  242 1    
   243  122  243 1    
   244  124  125 1    
   245  124  244 1    
   246  124  245 1    
   247  125  126 1    
   248  126  246 1    
   249  126  247 1    
@<TRIPOS>SUBSTRUCTURE
     1 UNK         1 GROUP             0       ****    0 ROOT    
