@<TRIPOS>MOLECULE
3R540
247   249    1
SMALL
USER_CHARGES


@<TRIPOS>ATOM
      1 CA          3.9547  -15.2934  -50.9376 C.3       0 UNK        -0.1800 
      2 C           3.7853  -14.9007  -49.4772 C.2       0 UNK         0.5000 
      3 O           4.7624  -14.8654  -48.7299 O.2       0 UNK        -0.5000 
      4 N           2.5527  -14.5786  -49.0710 N.am      1 UNK        -0.5000 
      5 CA          2.1377  -14.1876  -47.7165 C.3       1 UNK         0.1400 
      6 C6          0.6342  -14.4844  -47.4696 C.3       23 UNK        -0.0398 
      7 S7         -0.4758  -13.8844  -48.7975 S.3       23 UNK        -0.2404 
      8 C8         -1.2928  -15.4155  -49.3549 C.3       23 UNK        -0.0205 
      9 C9         -0.4503  -16.2387  -50.3206 C.ar      23 UNK        -0.0193 
     10 C10        -0.7437  -16.2155  -51.6846 C.ar      23 UNK        -0.1150 
     11 C11        -0.0564  -17.0379  -52.5798 C.ar      23 UNK        -0.0193 
     12 C12         0.9839  -17.8447  -52.1039 C.ar      23 UNK        -0.1150 
     13 C13         1.2902  -17.8885  -50.7408 C.ar      23 UNK        -0.0193 
     14 C14         0.5653  -17.0802  -49.8567 C.ar      23 UNK        -0.1150 
     15 C15         2.4013  -18.8244  -50.2612 C.3       23 UNK        -0.0205 
     16 S16         2.1817  -19.4892  -48.5739 S.3       23 UNK        -0.2404 
     17 C17         0.5604  -20.3163  -48.7039 C.3       23 UNK        -0.0398 
     18 CA          0.5084  -21.6497  -47.9213 C.3       11 UNK         0.1400 
     19 N           0.6223  -21.4745  -46.4685 N.am      11 UNK        -0.5000 
     20 C           0.7214  -22.4811  -45.5870 C.2       10 UNK         0.5000 
     21 O           0.7854  -23.6683  -45.9084 O.2       10 UNK        -0.5000 
     22 CA          0.6921  -22.1107  -44.0925 C.3       10 UNK         0.1400 
     23 CB          2.0594  -21.5924  -43.6227 C.3       10 UNK        -0.1800 
     24 N          -0.3519  -21.1362  -43.7701 N.am      10 UNK        -0.5000 
     25 C          -1.6668  -21.3642  -43.9084 C.2       9 UNK         0.5000 
     26 O          -2.1386  -22.4345  -44.2896 O.2       9 UNK        -0.5000 
     27 CA         -2.6169  -20.1886  -43.6175 C.3       9 UNK         0.1400 
     28 CB         -2.8458  -20.0264  -42.1075 C.3       9 UNK        -0.1800 
     29 N          -2.1388  -18.9270  -44.1789 N.am      9 UNK        -0.5000 
     30 C          -1.9432  -18.6983  -45.4848 C.2       8 UNK         0.5000 
     31 O          -2.1964  -19.5110  -46.3735 O.2       8 UNK        -0.5000 
     32 CA         -1.2930  -17.3551  -45.8524 C.3       8 UNK         0.1400 
     33 CB         -2.3294  -16.2197  -45.8397 C.3       8 UNK        -0.1800 
     34 N          -0.1669  -17.0214  -44.9767 N.am      8 UNK        -0.5000 
     35 C           0.9528  -17.7550  -44.8840 C.2       7 UNK         0.5000 
     36 O           1.1647  -18.7607  -45.5568 O.2       7 UNK        -0.5000 
     37 CA          1.9790  -17.3322  -43.8212 C.3       7 UNK         0.1400 
     38 CB          2.8996  -16.2227  -44.3521 C.3       7 UNK        -0.1800 
     39 N           1.3218  -16.8975  -42.5892 N.am      7 UNK        -0.5000 
     40 C           0.7077  -17.7347  -41.7384 C.2       6 UNK         0.5000 
     41 O           0.6880  -18.9573  -41.8823 O.2       6 UNK        -0.5000 
     42 CA         -0.0529  -17.0997  -40.5573 C.3       6 UNK         0.1400 
     43 CB          0.8887  -16.8818  -39.3639 C.3       6 UNK        -0.1800 
     44 N          -0.6878  -15.8284  -40.9085 N.am      6 UNK        -0.5000 
     45 C          -1.6504  -15.6863  -41.8308 C.2       5 UNK         0.5000 
     46 O          -2.1726  -16.6361  -42.4126 O.2       5 UNK        -0.5000 
     47 CA         -2.0632  -14.2481  -42.2080 C.3       5 UNK         0.1400 
     48 CB         -3.3656  -13.8605  -41.4930 C.3       5 UNK        -0.1800 
     49 N          -1.0389  -13.2356  -41.9251 N.am      5 UNK        -0.5000 
     50 C           0.1856  -13.2003  -42.4679 C.2       4 UNK         0.5000 
     51 O           0.5941  -14.0275  -43.2884 O.2       4 UNK        -0.5000 
     52 CA          1.1246  -12.1010  -41.9506 C.3       4 UNK         0.1400 
     53 CB          1.4863  -12.3573  -40.4718 C.3       4 UNK        -0.1800 
     54 N           2.3366  -12.0823  -42.7649 N.am      4 UNK        -0.5000 
     55 C           3.2646  -11.1181  -42.7609 C.2       3 UNK         0.5000 
     56 O           3.1679  -10.0740  -42.1148 O.2       3 UNK        -0.5000 
     57 CA          4.5016  -11.3524  -43.6359 C.3       3 UNK         0.1400 
     58 CB          5.1934  -12.6947  -43.3251 C.3       3 UNK        -0.1800 
     59 N           4.1235  -11.2844  -45.0419 N.am      3 UNK        -0.5000 
     60 C           4.9426  -10.9713  -46.0511 C.2       2 UNK         0.5000 
     61 O           6.1351  -10.6985  -45.8985 O.2       2 UNK        -0.5000 
     62 CA          4.3228  -10.9967  -47.4657 C.3       2 UNK         0.1400 
     63 CB          5.3399  -10.6592  -48.5709 C.3       2 UNK        -0.1800 
     64 N           3.7256  -12.2985  -47.7663 N.am      2 UNK        -0.5000 
     65 C           2.5400  -12.7413  -47.3324 C.2       1 UNK         0.5000 
     66 O           1.8002  -12.0558  -46.6234 O.2       1 UNK        -0.5000 
     67 C          -0.7576  -22.4441  -48.2935 C.2       11 UNK         0.5000 
     68 O          -0.6495  -23.4317  -49.0200 O.2       11 UNK        -0.5000 
     69 N          -1.9154  -22.0389  -47.7495 N.am      12 UNK        -0.5000 
     70 CA         -3.2050  -22.6866  -47.9914 C.3       12 UNK         0.1400 
     71 CB         -4.3329  -21.8580  -47.3602 C.3       12 UNK        -0.1800 
     72 C          -3.2515  -24.1434  -47.4983 C.2       12 UNK         0.5000 
     73 O          -3.8336  -24.9888  -48.1757 O.2       12 UNK        -0.5000 
     74 N          -2.6115  -24.4251  -46.3545 N.am      13 UNK        -0.5000 
     75 CA         -2.4445  -25.7734  -45.8134 C.3       13 UNK         0.1400 
     76 CB         -1.8952  -25.6961  -44.3810 C.3       13 UNK        -0.1800 
     77 C          -1.5459  -26.6574  -46.6971 C.2       13 UNK         0.5000 
     78 O          -1.8880  -27.8165  -46.9319 O.2       13 UNK        -0.5000 
     79 N          -0.4342  -26.0940  -47.1922 N.am      14 UNK        -0.5000 
     80 CA          0.5037  -26.7643  -48.0960 C.3       14 UNK         0.1400 
     81 CB          1.7881  -25.9301  -48.2179 C.3       14 UNK        -0.1800 
     82 C          -0.1029  -27.0478  -49.4836 C.2       14 UNK         0.5000 
     83 O           0.0985  -28.1356  -50.0248 O.2       14 UNK        -0.5000 
     84 N          -0.8549  -26.0778  -50.0204 N.am      15 UNK        -0.5000 
     85 CA         -1.5959  -26.1887  -51.2793 C.3       15 UNK         0.1400 
     86 CB         -1.9818  -24.7780  -51.7496 C.3       15 UNK        -0.1800 
     87 C          -2.8515  -27.0781  -51.1742 C.2       15 UNK         0.5000 
     88 O          -3.3520  -27.5362  -52.2018 O.2       15 UNK        -0.5000 
     89 N          -3.3380  -27.2876  -49.9424 N.am      16 UNK        -0.5000 
     90 CA         -4.5579  -28.0026  -49.5536 C.3       16 UNK         0.1400 
     91 CB         -4.4905  -29.4885  -49.9635 C.3       16 UNK        -0.1800 
     92 C          -5.8551  -27.3036  -50.0185 C.2       16 UNK         0.5000 
     93 O          -6.8975  -27.9528  -50.1227 O.2       16 UNK        -0.5000 
     94 N          -5.7760  -25.9909  -50.2631 N.am      17 UNK        -0.5000 
     95 CA         -6.8564  -25.1065  -50.6803 C.3       17 UNK         0.1400 
     96 CB         -7.3244  -25.4435  -52.1103 C.3       17 UNK        -0.1800 
     97 C          -6.3421  -23.6627  -50.6270 C.2       17 UNK         0.5000 
     98 O          -5.1665  -23.4234  -50.9076 O.2       17 UNK        -0.5000 
     99 N          -7.2424  -22.7199  -50.3285 N.am      18 UNK        -0.5000 
    100 CA        -6.9809  -21.2750  -50.3377 C.3       18 UNK         0.1400 
    101 CB        -7.7940  -20.6242  -49.2061 C.3       18 UNK        -0.1800 
    102 C         -7.2996  -20.6238  -51.7034 C.2       18 UNK         0.5000 
    103 O         -7.3082  -19.3956  -51.8060 O.2       18 UNK        -0.5000 
    104 N         -7.5801  -21.4500  -52.7226 N.am      19 UNK        -0.5000 
    105 CA        -7.8863  -21.0548  -54.0973 C.3       19 UNK         0.1400 
    106 CB        -8.2038  -22.3151  -54.9160 C.3       19 UNK        -0.1800 
    107 C         -6.7362  -20.2650  -54.7476 C.2       19 UNK         0.5000 
    108 O         -5.5692  -20.6125  -54.5482 O.2       19 UNK        -0.5000 
    109 N         -7.0942  -19.2084  -55.4930 N.am      20 UNK        -0.5000 
    110 CA        -6.1932  -18.2461  -56.1458 C.3       20 UNK         0.1400 
    111 CB        -5.4389  -18.9182  -57.3123 C.3       20 UNK        -0.1800 
    112 C         -5.2437  -17.5355  -55.1537 C.2       20 UNK         0.5000 
    113 O         -4.1096  -17.2114  -55.5078 O.2       20 UNK        -0.5000 
    114 N         -5.7130  -17.3622  -53.9086 N.am      21 UNK        -0.5000 
    115 CA        -5.0204  -16.8796  -52.7070 C.3       21 UNK         0.1400 
    116 CB        -4.4645  -15.4552  -52.8992 C.3       21 UNK        -0.1800 
    117 C         -3.9389  -17.8366  -52.1635 C.2       21 UNK         0.5000 
    118 O         -3.7679  -17.9040  -50.9461 O.2       21 UNK        -0.5000 
    119 N         -3.2345  -18.5479  -53.0522 N.am      22 UNK        -0.5000 
    120 CA        -2.1912  -19.5233  -52.7142 C.3       22 UNK         0.1400 
    121 C         -2.7262  -20.7917  -51.9943 C.2       22 UNK         0.5000 
    122 N         -3.9083  -21.2936  -52.3265 N.am      22 UNK        -0.7600 
    123 O         -2.0487  -21.3266  -51.1253 O.2       22 UNK        -0.5000 
    124 C124       -1.3458  -19.9396  -53.9489 C.3       23 UNK        -0.0398 
    125 S125       -0.3592  -18.6917  -54.8722 S.3       23 UNK        -0.2404 
    126 C126       -0.5030  -17.0681  -54.0387 C.3       23 UNK        -0.0205 
    127 H127        2.9932  -15.4107  -51.4387 H         1 UNK         0.0600 
    128 H128        4.4945  -16.2368  -51.0145 H         1 UNK         0.0600 
    129 H129        4.5250  -14.5302  -51.4668 H         1 UNK         0.0600 
    130 H130        1.7976  -14.5975  -49.7432 H         1 UNK         0.3000 
    131 H131        2.6933  -14.8205  -47.0226 H         1 UNK         0.0600 
    132 H132        0.2949  -14.0744  -46.5165 H         1 UNK         0.0800 
    133 H133        0.5068  -15.5568  -47.3534 H         1 UNK         0.0800 
    134 H134       -1.5767  -16.0273  -48.5028 H         1 UNK         0.0800 
    135 H135       -2.2337  -15.1389  -49.8332 H         1 UNK         0.0800 
    136 H136       -1.5469  -15.5889  -52.0449 H         1 UNK         0.1150 
    137 H137        1.5324  -18.4730  -52.7911 H         1 UNK         0.1150 
    138 H138        0.7850  -17.1222  -48.8024 H         1 UNK         0.1150 
    139 H139        2.5006  -19.6679  -50.9463 H         1 UNK         0.0800 
    140 H140        3.3480  -18.2856  -50.2975 H         1 UNK         0.0800 
    141 H141        0.3481  -20.4917  -49.7607 H         1 UNK         0.0800 
    142 H142       -0.2104  -19.6301  -48.3499 H         1 UNK         0.0800 
    143 H143        1.3625  -22.2528  -48.2373 H         1 UNK         0.0600 
    144 H144        0.6329  -20.5165  -46.1275 H         1 UNK         0.3000 
    145 H145        0.4717  -23.0223  -43.5333 H         1 UNK         0.0600 
    146 H146        2.0576  -21.3899  -42.5516 H         1 UNK         0.0600 
    147 H147        2.8406  -22.3293  -43.8135 H         1 UNK         0.0600 
    148 H148        2.3442  -20.6746  -44.1361 H         1 UNK         0.0600 
    149 H149       -0.0438  -20.2377  -43.4170 H         1 UNK         0.3000 
    150 H150       -3.5775  -20.4148  -44.0846 H         1 UNK         0.0600 
    151 H151       -3.2362  -20.9466  -41.6712 H         1 UNK         0.0600 
    152 H152       -3.5672  -19.2355  -41.9012 H         1 UNK         0.0600 
    153 H153       -1.9223  -19.7801  -41.5833 H         1 UNK         0.0600 
    154 H154       -1.9547  -18.1744  -43.5210 H         1 UNK         0.3000 
    155 H155       -0.8994  -17.4575  -46.8645 H         1 UNK         0.0600 
    156 H156       -2.8134  -16.1178  -44.8696 H         1 UNK         0.0600 
    157 H157       -1.8784  -15.2598  -46.0889 H         1 UNK         0.0600 
    158 H158       -3.1165  -16.4090  -46.5706 H         1 UNK         0.0600 
    159 H159       -0.2742  -16.2239  -44.3661 H         1 UNK         0.3000 
    160 H160        2.6007  -18.2000  -43.5907 H         1 UNK         0.0600 
    161 H161        2.3422  -15.3343  -44.6459 H         1 UNK         0.0600 
    162 H162        3.4513  -16.5655  -45.2284 H         1 UNK         0.0600 
    163 H163        3.6331  -15.9275  -43.6019 H         1 UNK         0.0600 
    164 H164        1.2388  -15.8986  -42.4488 H         1 UNK         0.3000 
    165 H165       -0.8375  -17.7961  -40.2543 H         1 UNK         0.0600 
    166 H166        0.3460  -16.5048  -38.4969 H         1 UNK         0.0600 
    167 H167        1.3643  -17.8175  -39.0667 H         1 UNK         0.0600 
    168 H168        1.6814  -16.1707  -39.5999 H         1 UNK         0.0600 
    169 H169       -0.3230  -14.9989  -40.4657 H         1 UNK         0.3000 
    170 H170       -2.2479  -14.2372  -43.2839 H         1 UNK         0.0600 
    171 H171       -4.1578  -14.5796  -41.7066 H         1 UNK         0.0600 
    172 H172       -3.2358  -13.8268  -40.4105 H         1 UNK         0.0600 
    173 H173       -3.7203  -12.8830  -41.8205 H         1 UNK         0.0600 
    174 H174       -1.2922  -12.5256  -41.2529 H         1 UNK         0.3000 
    175 H175        0.6135  -11.1412  -42.0488 H         1 UNK         0.0600 
    176 H176        0.5974  -12.3844  -39.8407 H         1 UNK         0.0600 
    177 H177        2.0079  -13.3072  -40.3468 H         1 UNK         0.0600 
    178 H178        2.1285  -11.5721  -40.0735 H         1 UNK         0.0600 
    179 H179        2.4416  -12.8953  -43.3585 H         1 UNK         0.3000 
    180 H180        5.2050  -10.5459  -43.4173 H         1 UNK         0.0600 
    181 H181        4.5846  -13.5471  -43.6273 H         1 UNK         0.0600 
    182 H182        5.3954  -12.7933  -42.2578 H         1 UNK         0.0600 
    183 H183        6.1493  -12.7725  -43.8430 H         1 UNK         0.0600 
    184 H184        3.1492  -11.4702  -45.2619 H         1 UNK         0.3000 
    185 H185        3.5415  -10.2342  -47.4901 H         1 UNK         0.0600 
    186 H186        5.7849   -9.6768  -48.4080 H         1 UNK         0.0600 
    187 H187        6.1509  -11.3877  -48.6078 H         1 UNK         0.0600 
    188 H188        4.8634  -10.6392  -49.5512 H         1 UNK         0.0600 
    189 H189        4.3091  -12.9605  -48.2664 H         1 UNK         0.3000 
    190 H190       -1.9282  -21.2052  -47.1670 H         1 UNK         0.3000 
    191 H191       -3.3619  -22.7017  -49.0713 H         1 UNK         0.0600 
    192 H192       -4.2086  -21.7667  -46.2807 H         1 UNK         0.0600 
    193 H193       -5.3045  -22.3178  -47.5456 H         1 UNK         0.0600 
    194 H194       -4.3638  -20.8528  -47.7814 H         1 UNK         0.0600 
    195 H195       -2.2104  -23.6640  -45.8143 H         1 UNK         0.3000 
    196 H196       -3.4305  -26.2411  -45.7709 H         1 UNK         0.0600 
    197 H197       -1.7647  -26.6926  -43.9575 H         1 UNK         0.0600 
    198 H198       -2.5773  -25.1522  -43.7275 H         1 UNK         0.0600 
    199 H199       -0.9280  -25.1940  -44.3462 H         1 UNK         0.0600 
    200 H200       -0.2067  -25.1405  -46.9278 H         1 UNK         0.3000 
    201 H201        0.7689  -27.7249  -47.6494 H         1 UNK         0.0600 
    202 H202        2.2635  -25.7960  -47.2461 H         1 UNK         0.0600 
    203 H203        1.5900  -24.9407  -48.6307 H         1 UNK         0.0600 
    204 H204        2.5120  -26.4199  -48.8702 H         1 UNK         0.0600 
    205 H205       -0.9085  -25.1800  -49.5412 H         1 UNK         0.3000 
    206 H206       -0.9394  -26.6326  -52.0303 H         1 UNK         0.0600 
    207 H207       -1.0988  -24.1620  -51.9207 H         1 UNK         0.0600 
    208 H208       -2.5443  -24.8092  -52.6834 H         1 UNK         0.0600 
    209 H209       -2.6004  -24.2669  -51.0111 H         1 UNK         0.0600 
    210 H210       -2.8712  -26.8109  -49.1816 H         1 UNK         0.3000 
    211 H211       -4.5794  -27.9674  -48.4635 H         1 UNK         0.0600 
    212 H212       -4.5531  -29.6155  -51.0444 H         1 UNK         0.0600 
    213 H213       -5.3124  -30.0531  -49.5219 H         1 UNK         0.0600 
    214 H214       -3.5629  -29.9487  -49.6231 H         1 UNK         0.0600 
    215 H215       -4.8957  -25.5180  -50.0845 H         1 UNK         0.3000 
    216 H216       -7.6878  -25.2176  -49.9816 H         1 UNK         0.0600 
    217 H217       -6.5017  -25.3817  -52.8242 H         1 UNK         0.0600 
    218 H218       -8.1015  -24.7545  -52.4429 H         1 UNK         0.0600 
    219 H219       -7.7436  -26.4473  -52.1720 H         1 UNK         0.0600 
    220 H220       -8.1936  -22.9954  -50.1274 H         1 UNK         0.3000 
    221 H221       -5.9234  -21.0908  -50.1358 H         1 UNK         0.0600 
    222 H222       -7.5516  -21.0692  -48.2409 H         1 UNK         0.0600 
    223 H223       -8.8671  -20.7332  -49.3672 H         1 UNK         0.0600 
    224 H224       -7.5788  -19.5575  -49.1305 H         1 UNK         0.0600 
    225 H225       -7.5198  -22.4404  -52.5479 H         1 UNK         0.3000 
    226 H226       -8.7771  -20.4242  -54.0677 H         1 UNK         0.0600 
    227 H227       -9.0525  -22.8561  -54.4971 H         1 UNK         0.0600 
    228 H228       -8.4585  -22.0591  -55.9453 H         1 UNK         0.0600 
    229 H229       -7.3531  -22.9974  -54.9485 H         1 UNK         0.0600 
    230 H230       -8.0800  -19.0083  -55.5937 H         1 UNK         0.3000 
    231 H231       -6.8275  -17.4657  -56.5682 H         1 UNK         0.0600 
    232 H232       -4.7299  -19.6674  -56.9582 H         1 UNK         0.0600 
    233 H233       -4.8762  -18.1840  -57.8899 H         1 UNK         0.0600 
    234 H234       -6.1296  -19.4080  -57.9985 H         1 UNK         0.0600 
    235 H235       -6.6373  -17.7282  -53.7242 H         1 UNK         0.3000 
    236 H236       -5.7912  -16.8250  -51.9365 H         1 UNK         0.0600 
    237 H237       -4.0683  -15.0658  -51.9606 H         1 UNK         0.0600 
    238 H238       -3.6556  -15.4250  -53.6289 H         1 UNK         0.0600 
    239 H239       -5.2435  -14.7695  -53.2321 H         1 UNK         0.0600 
    240 H240       -3.4202  -18.3981  -54.0366 H         1 UNK         0.3000 
    241 H241       -1.5314  -19.0562  -51.9863 H         1 UNK         0.0600 
    242 H242       -4.2438  -22.1188  -51.8369 H         1 UNK         0.3800 
    243 H243       -4.4522  -20.9081  -53.0947 H         1 UNK         0.3800 
    244 H244       -1.9966  -20.4271  -54.6772 H         1 UNK         0.0800 
    245 H245       -0.6290  -20.7063  -53.6483 H         1 UNK         0.0800 
    246 H246        0.1043  -16.3497  -54.5901 H         1 UNK         0.0800 
    247 H247       -1.5330  -16.7233  -54.1344 H         1 UNK         0.0800 
@<TRIPOS>BOND
     1    1    2 1    
     2    1  127 1    
     3    1  128 1    
     4    1  129 1    
     5    2    3 2    
     6    2    4 am   BACKBONE|DICT|INTERRES
     7    4    5 1    
     8    4  130 1    
     9    5    6 1    
    10    5   65 1    
    11    5  131 1    
    12    6    7 1    
    13    6  132 1    
    14    6  133 1    
    15    7    8 1    
    16    8    9 1    
    17    8  134 1    
    18    8  135 1    
    19    9   10 ar   
    20    9   14 ar   
    21   10   11 ar   
    22   10  136 1    
    23   11   12 ar   
    24   11  126 1    
    25   12   13 ar   
    26   12  137 1    
    27   13   14 ar   
    28   13   15 1    
    29   14  138 1    
    30   15   16 1    
    31   15  139 1    
    32   15  140 1    
    33   16   17 1    
    34   17   18 1    
    35   17  141 1    
    36   17  142 1    
    37   18   19 1    
    38   18   67 1    
    39   18  143 1    
    40   19   20 am   BACKBONE|DICT|INTERRES
    41   19  144 1    
    42   20   21 2    
    43   20   22 1    
    44   22   23 1    
    45   22   24 1    
    46   22  145 1    
    47   23  146 1    
    48   23  147 1    
    49   23  148 1    
    50   24   25 am   BACKBONE|DICT|INTERRES
    51   24  149 1    
    52   25   26 2    
    53   25   27 1    
    54   27   28 1    
    55   27   29 1    
    56   27  150 1    
    57   28  151 1    
    58   28  152 1    
    59   28  153 1    
    60   29   30 am   BACKBONE|DICT|INTERRES
    61   29  154 1    
    62   30   31 2    
    63   30   32 1    
    64   32   33 1    
    65   32   34 1    
    66   32  155 1    
    67   33  156 1    
    68   33  157 1    
    69   33  158 1    
    70   34   35 am   BACKBONE|DICT|INTERRES
    71   34  159 1    
    72   35   36 2    
    73   35   37 1    
    74   37   38 1    
    75   37   39 1    
    76   37  160 1    
    77   38  161 1    
    78   38  162 1    
    79   38  163 1    
    80   39   40 am   BACKBONE|DICT|INTERRES
    81   39  164 1    
    82   40   41 2    
    83   40   42 1    
    84   42   43 1    
    85   42   44 1    
    86   42  165 1    
    87   43  166 1    
    88   43  167 1    
    89   43  168 1    
    90   44   45 am   BACKBONE|DICT|INTERRES
    91   44  169 1    
    92   45   46 2    
    93   45   47 1    
    94   47   48 1    
    95   47   49 1    
    96   47  170 1    
    97   48  171 1    
    98   48  172 1    
    99   48  173 1    
   100   49   50 am   BACKBONE|DICT|INTERRES
   101   49  174 1    
   102   50   51 2    
   103   50   52 1    
   104   52   53 1    
   105   52   54 1    
   106   52  175 1    
   107   53  176 1    
   108   53  177 1    
   109   53  178 1    
   110   54   55 am   BACKBONE|DICT|INTERRES
   111   54  179 1    
   112   55   56 2    
   113   55   57 1    
   114   57   58 1    
   115   57   59 1    
   116   57  180 1    
   117   58  181 1    
   118   58  182 1    
   119   58  183 1    
   120   59   60 am   BACKBONE|DICT|INTERRES
   121   59  184 1    
   122   60   61 2    
   123   60   62 1    
   124   62   63 1    
   125   62   64 1    
   126   62  185 1    
   127   63  186 1    
   128   63  187 1    
   129   63  188 1    
   130   64   65 am   BACKBONE|DICT|INTERRES
   131   64  189 1    
   132   65   66 2    
   133   67   68 2    
   134   67   69 am   BACKBONE|DICT|INTERRES
   135   69   70 1    
   136   69  190 1    
   137   70   71 1    
   138   70   72 1    
   139   70  191 1    
   140   71  192 1    
   141   71  193 1    
   142   71  194 1    
   143   72   73 2    
   144   72   74 am   BACKBONE|DICT|INTERRES
   145   74   75 1    
   146   74  195 1    
   147   75   76 1    
   148   75   77 1    
   149   75  196 1    
   150   76  197 1    
   151   76  198 1    
   152   76  199 1    
   153   77   78 2    
   154   77   79 am   BACKBONE|DICT|INTERRES
   155   79   80 1    
   156   79  200 1    
   157   80   81 1    
   158   80   82 1    
   159   80  201 1    
   160   81  202 1    
   161   81  203 1    
   162   81  204 1    
   163   82   83 2    
   164   82   84 am   BACKBONE|DICT|INTERRES
   165   84   85 1    
   166   84  205 1    
   167   85   86 1    
   168   85   87 1    
   169   85  206 1    
   170   86  207 1    
   171   86  208 1    
   172   86  209 1    
   173   87   88 2    
   174   87   89 am   BACKBONE|DICT|INTERRES
   175   89   90 1    
   176   89  210 1    
   177   90   91 1    
   178   90   92 1    
   179   90  211 1    
   180   91  212 1    
   181   91  213 1    
   182   91  214 1    
   183   92   93 2    
   184   92   94 am   BACKBONE|DICT|INTERRES
   185   94   95 1    
   186   94  215 1    
   187   95   96 1    
   188   95   97 1    
   189   95  216 1    
   190   96  217 1    
   191   96  218 1    
   192   96  219 1    
   193   97   98 2    
   194   97   99 am   BACKBONE|DICT|INTERRES
   195   99  100 1    
   196   99  220 1    
   197  100  101 1    
   198  100  102 1    
   199  100  221 1    
   200  101  222 1    
   201  101  223 1    
   202  101  224 1    
   203  102  103 2    
   204  102  104 am   BACKBONE|DICT|INTERRES
   205  104  105 1    
   206  104  225 1    
   207  105  106 1    
   208  105  107 1    
   209  105  226 1    
   210  106  227 1    
   211  106  228 1    
   212  106  229 1    
   213  107  108 2    
   214  107  109 am   BACKBONE|DICT|INTERRES
   215  109  110 1    
   216  109  230 1    
   217  110  111 1    
   218  110  112 1    
   219  110  231 1    
   220  111  232 1    
   221  111  233 1    
   222  111  234 1    
   223  112  113 2    
   224  112  114 am   BACKBONE|DICT|INTERRES
   225  114  115 1    
   226  114  235 1    
   227  115  116 1    
   228  115  117 1    
   229  115  236 1    
   230  116  237 1    
   231  116  238 1    
   232  116  239 1    
   233  117  118 2    
   234  117  119 am   BACKBONE|DICT|INTERRES
   235  119  120 1    
   236  119  240 1    
   237  120  121 1    
   238  120  124 1    
   239  120  241 1    
   240  121  122 am   BACKBONE|DICT|INTERRES
   241  121  123 2    
   242  122  242 1    
   243  122  243 1    
   244  124  125 1    
   245  124  244 1    
   246  124  245 1    
   247  125  126 1    
   248  126  246 1    
   249  126  247 1    
@<TRIPOS>SUBSTRUCTURE
     1 UNK         1 GROUP             0       ****    0 ROOT    
