@<TRIPOS>MOLECULE
3R540
247   249    1
SMALL
USER_CHARGES


@<TRIPOS>ATOM
      1 CA          2.2894  -18.1113  -48.3546 C.3       0 UNK        -0.1800 
      2 C           1.8517  -17.1584  -47.2556 C.2       0 UNK         0.5000 
      3 O           2.5389  -16.1686  -47.0034 O.2       0 UNK        -0.5000 
      4 N           0.7051  -17.4330  -46.6158 N.am      1 UNK        -0.5000 
      5 CA          0.1494  -16.6350  -45.5123 C.3       1 UNK         0.1400 
      6 C6         -1.1227  -17.2539  -44.8773 C.3       23 UNK        -0.0398 
      7 S7         -0.9679  -19.0260  -44.4650 S.3       23 UNK        -0.2404 
      8 C8         -2.2481  -19.7619  -45.5339 C.3       23 UNK        -0.0205 
      9 C9         -1.8411  -19.7283  -46.9983 C.ar      23 UNK        -0.0193 
     10 C10        -2.3378  -18.7459  -47.8595 C.ar      23 UNK        -0.1150 
     11 C11        -1.9347  -18.7080  -49.1975 C.ar      23 UNK        -0.0193 
     12 C12        -1.0235  -19.6578  -49.6698 C.ar      23 UNK        -0.1150 
     13 C13        -0.5410  -20.6623  -48.8250 C.ar      23 UNK        -0.0193 
     14 C14        -0.9591  -20.6895  -47.4922 C.ar      23 UNK        -0.1150 
     15 C15         0.4167  -21.7227  -49.3525 C.3       23 UNK        -0.0205 
     16 S16         1.9629  -21.7688  -48.3893 S.3       23 UNK        -0.2404 
     17 C17         2.0729  -23.5148  -47.8484 C.3       23 UNK        -0.0398 
     18 CA          1.3453  -23.8690  -46.5128 C.3       11 UNK         0.1400 
     19 N           1.4655  -22.8432  -45.4730 N.am      11 UNK        -0.5000 
     20 C           2.5817  -22.5315  -44.8083 C.2       10 UNK         0.5000 
     21 O           3.6561  -23.1159  -44.9513 O.2       10 UNK        -0.5000 
     22 CA          2.4676  -21.3655  -43.8076 C.3       10 UNK         0.1400 
     23 CB          2.7064  -20.0242  -44.5215 C.3       10 UNK        -0.1800 
     24 N           1.1734  -21.3128  -43.1198 N.am      10 UNK        -0.5000 
     25 C           0.7314  -22.2208  -42.2363 C.2       9 UNK         0.5000 
     26 O           1.3507  -23.2465  -41.9503 O.2       9 UNK        -0.5000 
     27 CA         -0.6322  -21.9269  -41.5674 C.3       9 UNK         0.1400 
     28 CB         -0.8516  -22.7277  -40.2670 C.3       9 UNK        -0.1800 
     29 N          -0.8824  -20.4963  -41.3470 N.am      9 UNK        -0.5000 
     30 C          -0.1420  -19.6572  -40.6103 C.2       8 UNK         0.5000 
     31 O           0.8552  -19.9913  -39.9641 O.2       8 UNK        -0.5000 
     32 CA         -0.5810  -18.1878  -40.6064 C.3       8 UNK         0.1400 
     33 CB         -1.5160  -17.8837  -39.4251 C.3       8 UNK        -0.1800 
     34 N           0.6255  -17.3792  -40.5059 N.am      8 UNK        -0.5000 
     35 C           0.8352  -16.2099  -41.1124 C.2       7 UNK         0.5000 
     36 O          -0.0202  -15.6045  -41.7619 O.2       7 UNK        -0.5000 
     37 CA          2.2735  -15.6726  -41.0240 C.3       7 UNK         0.1400 
     38 CB          3.1497  -16.3452  -42.0925 C.3       7 UNK        -0.1800 
     39 N           2.3286  -14.2218  -41.1980 N.am      7 UNK        -0.5000 
     40 C           2.0372  -13.3345  -40.2372 C.2       6 UNK         0.5000 
     41 O           1.7012  -13.6533  -39.0954 O.2       6 UNK        -0.5000 
     42 CA          2.1693  -11.8407  -40.5910 C.3       6 UNK         0.1400 
     43 CB          3.5053  -11.2860  -40.0727 C.3       6 UNK        -0.1800 
     44 N           2.0837  -11.5818  -42.0279 N.am      6 UNK        -0.5000 
     45 C           0.9472  -11.4816  -42.7253 C.2       5 UNK         0.5000 
     46 O          -0.1712  -11.5783  -42.2192 O.2       5 UNK        -0.5000 
     47 CA          1.0730  -11.2313  -44.2407 C.3       5 UNK         0.1400 
     48 CB          1.2755   -9.7363  -44.5508 C.3       5 UNK        -0.1800 
     49 N           2.0795  -12.0634  -44.9121 N.am      5 UNK        -0.5000 
     50 C           3.4167  -12.0424  -44.8151 C.2       4 UNK         0.5000 
     51 O           4.0410  -11.2840  -44.0724 O.2       4 UNK        -0.5000 
     52 CA          4.1885  -13.0615  -45.6739 C.3       4 UNK         0.1400 
     53 CB          4.4644  -14.3376  -44.8692 C.3       4 UNK        -0.1800 
     54 N           3.4783  -13.4235  -46.9006 N.am      4 UNK        -0.5000 
     55 C           3.3768  -12.6323  -47.9770 C.2       3 UNK         0.5000 
     56 O           3.9131  -11.5276  -48.0712 O.2       3 UNK        -0.5000 
     57 CA          2.5108  -13.1592  -49.1326 C.3       3 UNK         0.1400 
     58 CB          3.2622  -14.2264  -49.9441 C.3       3 UNK        -0.1800 
     59 N           1.2449  -13.7105  -48.6502 N.am      3 UNK        -0.5000 
     60 C           0.2035  -12.9712  -48.2429 C.2       2 UNK         0.5000 
     61 O           0.1934  -11.7402  -48.2499 O.2       2 UNK        -0.5000 
     62 CA         -1.0401  -13.7317  -47.7455 C.3       2 UNK         0.1400 
     63 CB         -2.0325  -13.9469  -48.8986 C.3       2 UNK        -0.1800 
     64 N          -0.7184  -15.0268  -47.1445 N.am      2 UNK        -0.5000 
     65 C          -0.1419  -15.1836  -45.9442 C.2       1 UNK         0.5000 
     66 O           0.1876  -14.2488  -45.2171 O.2       1 UNK        -0.5000 
     67 C          -0.1318  -24.2797  -46.6857 C.2       11 UNK         0.5000 
     68 O          -0.5380  -24.6739  -47.7767 O.2       11 UNK        -0.5000 
     69 N          -0.9229  -24.1853  -45.6041 N.am      12 UNK        -0.5000 
     70 CA         -2.3798  -24.3799  -45.5916 C.3       12 UNK         0.1400 
     71 CB         -2.9168  -24.0555  -44.1896 C.3       12 UNK        -0.1800 
     72 C          -2.8708  -25.7683  -46.0539 C.2       12 UNK         0.5000 
     73 O          -4.0192  -25.8911  -46.4804 O.2       12 UNK        -0.5000 
     74 N          -2.0016  -26.7825  -45.9632 N.am      13 UNK        -0.5000 
     75 CA         -2.2624  -28.1446  -46.4280 C.3       13 UNK         0.1400 
     76 CB         -1.3070  -29.1014  -45.6970 C.3       13 UNK        -0.1800 
     77 C          -2.1239  -28.3126  -47.9559 C.2       13 UNK         0.5000 
     78 O          -2.6208  -29.3048  -48.4917 O.2       13 UNK        -0.5000 
     79 N          -1.4383  -27.3790  -48.6304 N.am      14 UNK        -0.5000 
     80 CA         -1.2000  -27.4140  -50.0718 C.3       14 UNK         0.1400 
     81 CB          0.1020  -26.6548  -50.3795 C.3       14 UNK        -0.1800 
     82 C          -2.3687  -26.7876  -50.8490 C.2       14 UNK         0.5000 
     83 O          -3.0782  -25.9271  -50.3237 O.2       14 UNK        -0.5000 
     84 N          -2.4942  -27.1683  -52.1282 N.am      15 UNK        -0.5000 
     85 CA         -3.4510  -26.5945  -53.0839 C.3       15 UNK         0.1400 
     86 CB         -3.4164  -27.4132  -54.3830 C.3       15 UNK        -0.1800 
     87 C          -3.2020  -25.1005  -53.3801 C.2       15 UNK         0.5000 
     88 O          -4.1266  -24.3944  -53.7804 O.2       15 UNK        -0.5000 
     89 N          -1.9701  -24.6354  -53.1283 N.am      16 UNK        -0.5000 
     90 CA         -1.5479  -23.2364  -53.1958 C.3       16 UNK         0.1400 
     91 CB         -0.0300  -23.1724  -52.9638 C.3       16 UNK        -0.1800 
     92 C          -2.2798  -22.3041  -52.2074 C.2       16 UNK         0.5000 
     93 O          -2.2623  -21.0939  -52.4185 O.2       16 UNK        -0.5000 
     94 N          -2.9035  -22.8702  -51.1635 N.am      17 UNK        -0.5000 
     95 CA         -3.6918  -22.1444  -50.1675 C.3       17 UNK         0.1400 
     96 CB         -3.6238  -22.9066  -48.8376 C.3       17 UNK        -0.1800 
     97 C          -5.1527  -21.8932  -50.5921 C.2       17 UNK         0.5000 
     98 O          -5.8951  -21.2712  -49.8298 O.2       17 UNK        -0.5000 
     99 N          -5.5629  -22.3756  -51.7750 N.am      18 UNK        -0.5000 
    100 CA        -6.8623  -22.0696  -52.3748 C.3       18 UNK         0.1400 
    101 CB        -7.0845  -22.9815  -53.5904 C.3       18 UNK        -0.1800 
    102 C         -6.9394  -20.5928  -52.8014 C.2       18 UNK         0.5000 
    103 O         -5.9405  -20.0421  -53.2667 O.2       18 UNK        -0.5000 
    104 N         -8.1290  -19.9865  -52.6923 N.am      19 UNK        -0.5000 
    105 CA        -8.3772  -18.5738  -53.0097 C.3       19 UNK         0.1400 
    106 CB        -9.8437  -18.2349  -52.7048 C.3       19 UNK        -0.1800 
    107 C         -8.0218  -18.1822  -54.4581 C.2       19 UNK         0.5000 
    108 O         -7.5369  -17.0741  -54.6890 O.2       19 UNK        -0.5000 
    109 N         -8.2187  -19.1194  -55.3952 N.am      20 UNK        -0.5000 
    110 CA        -7.8477  -18.9846  -56.8045 C.3       20 UNK         0.1400 
    111 CB        -8.4914  -20.1318  -57.5984 C.3       20 UNK        -0.1800 
    112 C         -6.3237  -18.9546  -57.0425 C.2       20 UNK         0.5000 
    113 O         -5.8864  -18.3859  -58.0436 O.2       20 UNK        -0.5000 
    114 N         -5.5474  -19.5599  -56.1332 N.am      21 UNK        -0.5000 
    115 CA        -4.0866  -19.5520  -56.1569 C.3       21 UNK         0.1400 
    116 CB        -3.5557  -20.8755  -55.5855 C.3       21 UNK        -0.1800 
    117 C         -3.5247  -18.3420  -55.3903 C.2       21 UNK         0.5000 
    118 O         -2.5674  -17.7270  -55.8629 O.2       21 UNK        -0.5000 
    119 N         -4.1337  -18.0054  -54.2439 N.am      22 UNK        -0.5000 
    120 CA        -3.7884  -16.8213  -53.4386 C.3       22 UNK         0.1400 
    121 C         -4.1153  -15.4717  -54.1383 C.2       22 UNK         0.5000 
    122 N         -5.2167  -15.3614  -54.8711 N.am      22 UNK        -0.7600 
    123 O         -3.3586  -14.5127  -54.0143 O.2       22 UNK        -0.5000 
    124 C124       -4.4264  -16.8477  -52.0268 C.3       23 UNK        -0.0398 
    125 S125       -3.9413  -18.2994  -51.0385 S.3       23 UNK        -0.2404 
    126 C126       -2.4993  -17.6558  -50.1378 C.3       23 UNK        -0.0205 
    127 H127        1.4781  -18.7676  -48.6600 H         1 UNK         0.0600 
    128 H128        3.1187  -18.7274  -48.0078 H         1 UNK         0.0600 
    129 H129        2.6180  -17.5536  -49.2313 H         1 UNK         0.0600 
    130 H130        0.1837  -18.2644  -46.8594 H         1 UNK         0.3000 
    131 H131        0.9174  -16.5943  -44.7373 H         1 UNK         0.0600 
    132 H132       -1.3634  -16.7250  -43.9533 H         1 UNK         0.0800 
    133 H133       -1.9883  -17.1125  -45.5250 H         1 UNK         0.0800 
    134 H134       -2.4124  -20.7959  -45.2279 H         1 UNK         0.0800 
    135 H135       -3.1985  -19.2477  -45.3826 H         1 UNK         0.0800 
    136 H136       -3.0443  -18.0146  -47.4929 H         1 UNK         0.1150 
    137 H137       -0.7192  -19.6329  -50.7068 H         1 UNK         0.1150 
    138 H138       -0.5882  -21.4556  -46.8316 H         1 UNK         0.1150 
    139 H139       -0.0841  -22.6897  -49.3425 H         1 UNK         0.0800 
    140 H140        0.6699  -21.5239  -50.3945 H         1 UNK         0.0800 
    141 H141        3.1364  -23.7140  -47.7121 H         1 UNK         0.0800 
    142 H142        1.7771  -24.1729  -48.6669 H         1 UNK         0.0800 
    143 H143        1.8226  -24.7710  -46.1244 H         1 UNK         0.0600 
    144 H144        0.6436  -22.2840  -45.3038 H         1 UNK         0.3000 
    145 H145        3.2452  -21.4960  -43.0521 H         1 UNK         0.0600 
    146 H146        2.6681  -19.1886  -43.8225 H         1 UNK         0.0600 
    147 H147        3.6872  -20.0049  -44.9983 H         1 UNK         0.0600 
    148 H148        1.9635  -19.8445  -45.2996 H         1 UNK         0.0600 
    149 H149        0.5996  -20.5003  -43.3006 H         1 UNK         0.3000 
    150 H150       -1.3878  -22.2552  -42.2792 H         1 UNK         0.0600 
    151 H151       -0.0921  -22.5013  -39.5181 H         1 UNK         0.0600 
    152 H152       -0.8140  -23.8011  -40.4564 H         1 UNK         0.0600 
    153 H153       -1.8270  -22.5116  -39.8312 H         1 UNK         0.0600 
    154 H154       -1.6752  -20.1167  -41.8460 H         1 UNK         0.3000 
    155 H155       -1.0975  -17.9717  -41.5440 H         1 UNK         0.0600 
    156 H156       -1.0364  -18.0940  -38.4682 H         1 UNK         0.0600 
    157 H157       -2.4229  -18.4870  -39.4795 H         1 UNK         0.0600 
    158 H158       -1.8203  -16.8368  -39.4241 H         1 UNK         0.0600 
    159 H159        1.3909  -17.8510  -40.0398 H         1 UNK         0.3000 
    160 H160        2.6818  -15.9192  -40.0412 H         1 UNK         0.0600 
    161 H161        2.7126  -16.2507  -43.0858 H         1 UNK         0.0600 
    162 H162        3.2584  -17.4115  -41.8907 H         1 UNK         0.0600 
    163 H163        4.1522  -15.9176  -42.1167 H         1 UNK         0.0600 
    164 H164        2.5328  -13.8777  -42.1232 H         1 UNK         0.3000 
    165 H165        1.3612  -11.3081  -40.0850 H         1 UNK         0.0600 
    166 H166        3.6016  -11.4375  -38.9967 H         1 UNK         0.0600 
    167 H167        4.3558  -11.7734  -40.5513 H         1 UNK         0.0600 
    168 H168        3.5853  -10.2146  -40.2575 H         1 UNK         0.0600 
    169 H169        2.9563  -11.4599  -42.5350 H         1 UNK         0.3000 
    170 H170        0.1188  -11.5238  -44.6820 H         1 UNK         0.0600 
    171 H171        1.3016   -9.5590  -45.6261 H         1 UNK         0.0600 
    172 H172        2.2011   -9.3501  -44.1236 H         1 UNK         0.0600 
    173 H173        0.4573   -9.1420  -44.1425 H         1 UNK         0.0600 
    174 H174        1.6747  -12.8055  -45.4712 H         1 UNK         0.3000 
    175 H175        5.1469  -12.6117  -45.9416 H         1 UNK         0.0600 
    176 H176        5.1075  -15.0214  -45.4235 H         1 UNK         0.0600 
    177 H177        4.9610  -14.1135  -43.9242 H         1 UNK         0.0600 
    178 H178        3.5372  -14.8630  -44.6457 H         1 UNK         0.0600 
    179 H179        3.0449  -14.3440  -46.9222 H         1 UNK         0.3000 
    180 H180        2.2937  -12.3220  -49.7996 H         1 UNK         0.0600 
    181 H181        3.5180  -15.0950  -49.3368 H         1 UNK         0.0600 
    182 H182        4.1927  -13.8240  -50.3464 H         1 UNK         0.0600 
    183 H183        2.6658  -14.5719  -50.7888 H         1 UNK         0.0600 
    184 H184        1.1884  -14.7145  -48.5672 H         1 UNK         0.3000 
    185 H185       -1.5262  -13.1124  -46.9883 H         1 UNK         0.0600 
    186 H186       -2.3241  -12.9948  -49.3441 H         1 UNK         0.0600 
    187 H187       -1.6028  -14.5601  -49.6916 H         1 UNK         0.0600 
    188 H188       -2.9441  -14.4325  -48.5501 H         1 UNK         0.0600 
    189 H189       -0.9304  -15.8495  -47.6889 H         1 UNK         0.3000 
    190 H190       -0.4979  -23.9471  -44.7208 H         1 UNK         0.3000 
    191 H191       -2.8087  -23.6519  -46.2797 H         1 UNK         0.0600 
    192 H192       -2.7709  -23.0029  -43.9520 H         1 UNK         0.0600 
    193 H193       -3.9885  -24.2483  -44.1233 H         1 UNK         0.0600 
    194 H194       -2.4275  -24.6535  -43.4199 H         1 UNK         0.0600 
    195 H195       -1.0809  -26.5947  -45.5962 H         1 UNK         0.3000 
    196 H196       -3.2853  -28.4177  -46.1600 H         1 UNK         0.0600 
    197 H197       -1.4908  -30.1365  -45.9884 H         1 UNK         0.0600 
    198 H198       -1.4390  -29.0420  -44.6165 H         1 UNK         0.0600 
    199 H199       -0.2634  -28.8778  -45.9219 H         1 UNK         0.0600 
    200 H200       -1.1434  -26.5330  -48.1534 H         1 UNK         0.3000 
    201 H201       -1.0773  -28.4510  -50.3916 H         1 UNK         0.0600 
    202 H202        0.3810  -26.7637  -51.4280 H         1 UNK         0.0600 
    203 H203        0.0060  -25.5872  -50.1783 H         1 UNK         0.0600 
    204 H204        0.9322  -27.0341  -49.7834 H         1 UNK         0.0600 
    205 H205       -1.8706  -27.8749  -52.4918 H         1 UNK         0.3000 
    206 H206       -4.4501  -26.6778  -52.6510 H         1 UNK         0.0600 
    207 H207       -3.6697  -28.4574  -54.1987 H         1 UNK         0.0600 
    208 H208       -4.1370  -27.0285  -55.1061 H         1 UNK         0.0600 
    209 H209       -2.4323  -27.3825  -54.8523 H         1 UNK         0.0600 
    210 H210       -1.2777  -25.2954  -52.8091 H         1 UNK         0.3000 
    211 H211       -1.7591  -22.8745  -54.2034 H         1 UNK         0.0600 
    212 H212        0.2429  -23.5598  -51.9814 H         1 UNK         0.0600 
    213 H213        0.3327  -22.1454  -53.0245 H         1 UNK         0.0600 
    214 H214        0.5094  -23.7500  -53.7148 H         1 UNK         0.0600 
    215 H215       -2.8734  -23.8773  -51.0550 H         1 UNK         0.3000 
    216 H216       -3.2457  -21.1637  -50.0090 H         1 UNK         0.0600 
    217 H217       -4.0950  -22.3372  -48.0357 H         1 UNK         0.0600 
    218 H218       -2.5887  -23.0818  -48.5475 H         1 UNK         0.0600 
    219 H219       -4.1249  -23.8732  -48.8970 H         1 UNK         0.0600 
    220 H220       -4.8990  -22.8664  -52.3607 H         1 UNK         0.3000 
    221 H221       -7.6411  -22.2709  -51.6365 H         1 UNK         0.0600 
    222 H222       -6.3395  -22.8032  -54.3675 H         1 UNK         0.0600 
    223 H223       -7.0294  -24.0336  -53.3104 H         1 UNK         0.0600 
    224 H224       -8.0670  -22.8134  -54.0330 H         1 UNK         0.0600 
    225 H225       -8.9110  -20.5056  -52.3194 H         1 UNK         0.3000 
    226 H226       -7.7461  -17.9766  -52.3488 H         1 UNK         0.0600 
    227 H227      -10.0530  -17.1843  -52.9114 H         1 UNK         0.0600 
    228 H228      -10.5290  -18.8311  -53.3086 H         1 UNK         0.0600 
    229 H229      -10.0798  -18.4106  -51.6551 H         1 UNK         0.0600 
    230 H230       -8.6160  -20.0028  -55.1120 H         1 UNK         0.3000 
    231 H231       -8.2562  -18.0415  -57.1734 H         1 UNK         0.0600 
    232 H232       -8.1348  -21.1053  -57.2592 H         1 UNK         0.0600 
    233 H233       -8.2600  -20.0496  -58.6613 H         1 UNK         0.0600 
    234 H234       -9.5772  -20.1184  -57.5020 H         1 UNK         0.0600 
    235 H235       -5.9732  -19.9386  -55.2956 H         1 UNK         0.3000 
    236 H236       -3.7384  -19.4803  -57.1896 H         1 UNK         0.0600 
    237 H237       -2.4654  -20.8826  -55.5699 H         1 UNK         0.0600 
    238 H238       -3.8993  -21.0433  -54.5654 H         1 UNK         0.0600 
    239 H239       -3.8803  -21.7240  -56.1877 H         1 UNK         0.0600 
    240 H240       -4.8601  -18.6132  -53.8755 H         1 UNK         0.3000 
    241 H241       -2.7055  -16.8412  -53.3004 H         1 UNK         0.0600 
    242 H242       -5.9010  -16.1118  -54.9113 H         1 UNK         0.3800 
    243 H243       -5.4195  -14.4855  -55.3254 H         1 UNK         0.3800 
    244 H244       -5.5142  -16.8488  -52.1092 H         1 UNK         0.0800 
    245 H245       -4.1684  -15.9459  -51.4683 H         1 UNK         0.0800 
    246 H246       -1.7346  -17.3402  -50.8490 H         1 UNK         0.0800 
    247 H247       -2.7927  -16.7696  -49.5750 H         1 UNK         0.0800 
@<TRIPOS>BOND
     1    1    2 1    
     2    1  127 1    
     3    1  128 1    
     4    1  129 1    
     5    2    3 2    
     6    2    4 am   BACKBONE|DICT|INTERRES
     7    4    5 1    
     8    4  130 1    
     9    5    6 1    
    10    5   65 1    
    11    5  131 1    
    12    6    7 1    
    13    6  132 1    
    14    6  133 1    
    15    7    8 1    
    16    8    9 1    
    17    8  134 1    
    18    8  135 1    
    19    9   10 ar   
    20    9   14 ar   
    21   10   11 ar   
    22   10  136 1    
    23   11   12 ar   
    24   11  126 1    
    25   12   13 ar   
    26   12  137 1    
    27   13   14 ar   
    28   13   15 1    
    29   14  138 1    
    30   15   16 1    
    31   15  139 1    
    32   15  140 1    
    33   16   17 1    
    34   17   18 1    
    35   17  141 1    
    36   17  142 1    
    37   18   19 1    
    38   18   67 1    
    39   18  143 1    
    40   19   20 am   BACKBONE|DICT|INTERRES
    41   19  144 1    
    42   20   21 2    
    43   20   22 1    
    44   22   23 1    
    45   22   24 1    
    46   22  145 1    
    47   23  146 1    
    48   23  147 1    
    49   23  148 1    
    50   24   25 am   BACKBONE|DICT|INTERRES
    51   24  149 1    
    52   25   26 2    
    53   25   27 1    
    54   27   28 1    
    55   27   29 1    
    56   27  150 1    
    57   28  151 1    
    58   28  152 1    
    59   28  153 1    
    60   29   30 am   BACKBONE|DICT|INTERRES
    61   29  154 1    
    62   30   31 2    
    63   30   32 1    
    64   32   33 1    
    65   32   34 1    
    66   32  155 1    
    67   33  156 1    
    68   33  157 1    
    69   33  158 1    
    70   34   35 am   BACKBONE|DICT|INTERRES
    71   34  159 1    
    72   35   36 2    
    73   35   37 1    
    74   37   38 1    
    75   37   39 1    
    76   37  160 1    
    77   38  161 1    
    78   38  162 1    
    79   38  163 1    
    80   39   40 am   BACKBONE|DICT|INTERRES
    81   39  164 1    
    82   40   41 2    
    83   40   42 1    
    84   42   43 1    
    85   42   44 1    
    86   42  165 1    
    87   43  166 1    
    88   43  167 1    
    89   43  168 1    
    90   44   45 am   BACKBONE|DICT|INTERRES
    91   44  169 1    
    92   45   46 2    
    93   45   47 1    
    94   47   48 1    
    95   47   49 1    
    96   47  170 1    
    97   48  171 1    
    98   48  172 1    
    99   48  173 1    
   100   49   50 am   BACKBONE|DICT|INTERRES
   101   49  174 1    
   102   50   51 2    
   103   50   52 1    
   104   52   53 1    
   105   52   54 1    
   106   52  175 1    
   107   53  176 1    
   108   53  177 1    
   109   53  178 1    
   110   54   55 am   BACKBONE|DICT|INTERRES
   111   54  179 1    
   112   55   56 2    
   113   55   57 1    
   114   57   58 1    
   115   57   59 1    
   116   57  180 1    
   117   58  181 1    
   118   58  182 1    
   119   58  183 1    
   120   59   60 am   BACKBONE|DICT|INTERRES
   121   59  184 1    
   122   60   61 2    
   123   60   62 1    
   124   62   63 1    
   125   62   64 1    
   126   62  185 1    
   127   63  186 1    
   128   63  187 1    
   129   63  188 1    
   130   64   65 am   BACKBONE|DICT|INTERRES
   131   64  189 1    
   132   65   66 2    
   133   67   68 2    
   134   67   69 am   BACKBONE|DICT|INTERRES
   135   69   70 1    
   136   69  190 1    
   137   70   71 1    
   138   70   72 1    
   139   70  191 1    
   140   71  192 1    
   141   71  193 1    
   142   71  194 1    
   143   72   73 2    
   144   72   74 am   BACKBONE|DICT|INTERRES
   145   74   75 1    
   146   74  195 1    
   147   75   76 1    
   148   75   77 1    
   149   75  196 1    
   150   76  197 1    
   151   76  198 1    
   152   76  199 1    
   153   77   78 2    
   154   77   79 am   BACKBONE|DICT|INTERRES
   155   79   80 1    
   156   79  200 1    
   157   80   81 1    
   158   80   82 1    
   159   80  201 1    
   160   81  202 1    
   161   81  203 1    
   162   81  204 1    
   163   82   83 2    
   164   82   84 am   BACKBONE|DICT|INTERRES
   165   84   85 1    
   166   84  205 1    
   167   85   86 1    
   168   85   87 1    
   169   85  206 1    
   170   86  207 1    
   171   86  208 1    
   172   86  209 1    
   173   87   88 2    
   174   87   89 am   BACKBONE|DICT|INTERRES
   175   89   90 1    
   176   89  210 1    
   177   90   91 1    
   178   90   92 1    
   179   90  211 1    
   180   91  212 1    
   181   91  213 1    
   182   91  214 1    
   183   92   93 2    
   184   92   94 am   BACKBONE|DICT|INTERRES
   185   94   95 1    
   186   94  215 1    
   187   95   96 1    
   188   95   97 1    
   189   95  216 1    
   190   96  217 1    
   191   96  218 1    
   192   96  219 1    
   193   97   98 2    
   194   97   99 am   BACKBONE|DICT|INTERRES
   195   99  100 1    
   196   99  220 1    
   197  100  101 1    
   198  100  102 1    
   199  100  221 1    
   200  101  222 1    
   201  101  223 1    
   202  101  224 1    
   203  102  103 2    
   204  102  104 am   BACKBONE|DICT|INTERRES
   205  104  105 1    
   206  104  225 1    
   207  105  106 1    
   208  105  107 1    
   209  105  226 1    
   210  106  227 1    
   211  106  228 1    
   212  106  229 1    
   213  107  108 2    
   214  107  109 am   BACKBONE|DICT|INTERRES
   215  109  110 1    
   216  109  230 1    
   217  110  111 1    
   218  110  112 1    
   219  110  231 1    
   220  111  232 1    
   221  111  233 1    
   222  111  234 1    
   223  112  113 2    
   224  112  114 am   BACKBONE|DICT|INTERRES
   225  114  115 1    
   226  114  235 1    
   227  115  116 1    
   228  115  117 1    
   229  115  236 1    
   230  116  237 1    
   231  116  238 1    
   232  116  239 1    
   233  117  118 2    
   234  117  119 am   BACKBONE|DICT|INTERRES
   235  119  120 1    
   236  119  240 1    
   237  120  121 1    
   238  120  124 1    
   239  120  241 1    
   240  121  122 am   BACKBONE|DICT|INTERRES
   241  121  123 2    
   242  122  242 1    
   243  122  243 1    
   244  124  125 1    
   245  124  244 1    
   246  124  245 1    
   247  125  126 1    
   248  126  246 1    
   249  126  247 1    
@<TRIPOS>SUBSTRUCTURE
     1 UNK         1 GROUP             0       ****    0 ROOT    
