@<TRIPOS>MOLECULE
3R540
247   249    1
SMALL
USER_CHARGES


@<TRIPOS>ATOM
      1 CA         -1.7874   -9.1830  -47.1369 C.3       0 UNK        -0.1800 
      2 C          -1.2743  -10.6119  -47.0456 C.2       0 UNK         0.5000 
      3 O          -0.8910  -11.0547  -45.9628 O.2       0 UNK        -0.5000 
      4 N          -1.2811  -11.3421  -48.1705 N.am      1 UNK        -0.5000 
      5 CA         -0.7982  -12.7263  -48.3079 C.3       1 UNK         0.1400 
      6 C6         -0.9088  -13.2184  -49.7763 C.3       23 UNK        -0.0398 
      7 S7          0.4518  -14.3311  -50.2517 S.3       23 UNK        -0.2404 
      8 C8         -0.3788  -15.9497  -50.2751 C.3       23 UNK        -0.0205 
      9 C9          0.6319  -17.0613  -50.5071 C.ar      23 UNK        -0.0193 
     10 C10         1.0701  -17.3554  -51.8024 C.ar      23 UNK        -0.1150 
     11 C11         2.0419  -18.3375  -52.0156 C.ar      23 UNK        -0.0193 
     12 C12         2.5754  -19.0248  -50.9211 C.ar      23 UNK        -0.1150 
     13 C13         2.1403  -18.7456  -49.6228 C.ar      23 UNK        -0.0193 
     14 C14         1.1574  -17.7721  -49.4237 C.ar      23 UNK        -0.1150 
     15 C15         2.7705  -19.4639  -48.4387 C.3       23 UNK        -0.0205 
     16 S16         1.9906  -21.0719  -48.1092 S.3       23 UNK        -0.2404 
     17 C17         0.4810  -20.5656  -47.2223 C.3       23 UNK        -0.0398 
     18 CA         -0.4139  -21.7822  -46.8988 C.3       11 UNK         0.1400 
     19 N           0.2424  -22.7526  -46.0220 N.am      11 UNK        -0.5000 
     20 C          -0.1667  -24.0180  -45.8573 C.2       10 UNK         0.5000 
     21 O          -1.1341  -24.5056  -46.4404 O.2       10 UNK        -0.5000 
     22 CA          0.6022  -24.8509  -44.8159 C.3       10 UNK         0.1400 
     23 CB          1.8795  -25.4436  -45.4283 C.3       10 UNK        -0.1800 
     24 N           0.9509  -24.0621  -43.6328 N.am      10 UNK        -0.5000 
     25 C           0.0640  -23.4999  -42.8032 C.2       9 UNK         0.5000 
     26 O          -1.1536  -23.6464  -42.9158 O.2       9 UNK        -0.5000 
     27 CA          0.6128  -22.5643  -41.7133 C.3       9 UNK         0.1400 
     28 CB          1.0931  -23.3503  -40.4793 C.3       9 UNK        -0.1800 
     29 N           1.6271  -21.6169  -42.1963 N.am      9 UNK        -0.5000 
     30 C           2.9006  -21.8393  -42.5616 C.2       8 UNK         0.5000 
     31 O           3.4042  -22.9620  -42.6127 O.2       8 UNK        -0.5000 
     32 CA          3.7570  -20.6171  -42.9699 C.3       8 UNK         0.1400 
     33 CB          4.0105  -20.6348  -44.4862 C.3       8 UNK        -0.1800 
     34 N           3.1678  -19.3237  -42.6123 N.am      8 UNK        -0.5000 
     35 C           2.9473  -18.8816  -41.3636 C.2       7 UNK         0.5000 
     36 O           3.3738  -19.4526  -40.3596 O.2       7 UNK        -0.5000 
     37 CA          2.0614  -17.6246  -41.1944 C.3       7 UNK         0.1400 
     38 CB          2.9197  -16.4117  -40.8057 C.3       7 UNK        -0.1800 
     39 N           1.2601  -17.2727  -42.3716 N.am      7 UNK        -0.5000 
     40 C           0.3814  -18.0641  -43.0056 C.2       6 UNK         0.5000 
     41 O           0.0784  -19.1909  -42.6146 O.2       6 UNK        -0.5000 
     42 CA         -0.1859  -17.5556  -44.3472 C.3       6 UNK         0.1400 
     43 CB         -1.6015  -17.0043  -44.1606 C.3       6 UNK        -0.1800 
     44 N           0.6382  -16.5368  -45.0057 N.am      6 UNK        -0.5000 
     45 C           1.9247  -16.6757  -45.3593 C.2       5 UNK         0.5000 
     46 O           2.5617  -17.7176  -45.2050 O.2       5 UNK        -0.5000 
     47 CA          2.6312  -15.4280  -45.9137 C.3       5 UNK         0.1400 
     48 CB          2.5550  -15.3796  -47.4418 C.3       5 UNK        -0.1800 
     49 N           2.0666  -14.1939  -45.3646 N.am      5 UNK        -0.5000 
     50 C           2.4642  -13.6485  -44.2087 C.2       4 UNK         0.5000 
     51 O           3.3240  -14.1413  -43.4785 O.2       4 UNK        -0.5000 
     52 CA          1.7905  -12.3290  -43.8031 C.3       4 UNK         0.1400 
     53 CB          2.2618  -11.1748  -44.7024 C.3       4 UNK        -0.1800 
     54 N           0.3304  -12.3954  -43.8276 N.am      4 UNK        -0.5000 
     55 C          -0.4145  -13.0728  -42.9433 C.2       3 UNK         0.5000 
     56 O           0.0524  -13.8290  -42.0913 O.2       3 UNK        -0.5000 
     57 CA         -1.9341  -12.8604  -43.0135 C.3       3 UNK         0.1400 
     58 CB         -2.3138  -11.4369  -42.5728 C.3       3 UNK        -0.1800 
     59 N          -2.4249  -13.0950  -44.3685 N.am      3 UNK        -0.5000 
     60 C          -3.3516  -14.0037  -44.6978 C.2       2 UNK         0.5000 
     61 O          -3.9626  -14.6802  -43.8698 O.2       2 UNK        -0.5000 
     62 CA         -3.6610  -14.2162  -46.1952 C.3       2 UNK         0.1400 
     63 CB         -5.1224  -13.8561  -46.5075 C.3       2 UNK        -0.1800 
     64 N          -2.7964  -13.4756  -47.1139 N.am      2 UNK        -0.5000 
     65 C          -1.4949  -13.7050  -47.3361 C.2       1 UNK         0.5000 
     66 O          -0.8438  -14.5830  -46.7681 O.2       1 UNK        -0.5000 
     67 C          -1.7827  -21.3452  -46.3414 C.2       11 UNK         0.5000 
     68 O          -2.7011  -21.1431  -47.1334 O.2       11 UNK        -0.5000 
     69 N          -1.9267  -21.2506  -45.0088 N.am      12 UNK        -0.5000 
     70 CA         -3.2083  -20.9799  -44.3463 C.3       12 UNK         0.1400 
     71 CB         -3.0040  -20.6903  -42.8517 C.3       12 UNK        -0.1800 
     72 C          -4.2092  -22.1317  -44.5344 C.2       12 UNK         0.5000 
     73 O          -5.3641  -21.8793  -44.8780 O.2       12 UNK        -0.5000 
     74 N          -3.7332  -23.3747  -44.3680 N.am      13 UNK        -0.5000 
     75 CA         -4.4973  -24.6020  -44.6144 C.3       13 UNK         0.1400 
     76 CB         -3.6643  -25.8150  -44.1742 C.3       13 UNK        -0.1800 
     77 C          -4.9470  -24.7479  -46.0829 C.2       13 UNK         0.5000 
     78 O          -6.0343  -25.2637  -46.3414 O.2       13 UNK        -0.5000 
     79 N          -4.1231  -24.2409  -47.0084 N.am      14 UNK        -0.5000 
     80 CA         -4.3959  -24.1426  -48.4417 C.3       14 UNK         0.1400 
     81 CB         -3.0590  -24.2403  -49.1942 C.3       14 UNK        -0.1800 
     82 C          -5.1881  -22.8743  -48.8375 C.2       14 UNK         0.5000 
     83 O          -5.2759  -22.5808  -50.0303 O.2       14 UNK        -0.5000 
     84 N          -5.7500  -22.1508  -47.8551 N.am      15 UNK        -0.5000 
     85 CA         -6.6079  -20.9677  -47.9910 C.3       15 UNK         0.1400 
     86 CB         -7.9257  -21.3300  -48.7088 C.3       15 UNK        -0.1800 
     87 C          -5.8764  -19.7756  -48.6378 C.2       15 UNK         0.5000 
     88 O          -6.3022  -19.2741  -49.6776 O.2       15 UNK        -0.5000 
     89 N          -4.7565  -19.3724  -48.0211 N.am      16 UNK        -0.5000 
     90 CA         -3.7901  -18.3756  -48.5059 C.3       16 UNK         0.1400 
     91 CB         -4.4271  -16.9746  -48.6142 C.3       16 UNK        -0.1800 
     92 C          -3.1115  -18.8410  -49.8109 C.2       16 UNK         0.5000 
     93 O          -2.9056  -18.0476  -50.7288 O.2       16 UNK        -0.5000 
     94 N          -2.8242  -20.1494  -49.8610 N.am      17 UNK        -0.5000 
     95 CA         -2.2707  -20.9220  -50.9758 C.3       17 UNK         0.1400 
     96 CB         -0.8382  -20.4649  -51.2978 C.3       17 UNK        -0.1800 
     97 C          -3.1635  -20.9887  -52.2343 C.2       17 UNK         0.5000 
     98 O          -2.7125  -21.5095  -53.2546 O.2       17 UNK        -0.5000 
     99 N          -4.4191  -20.5222  -52.1507 N.am      18 UNK        -0.5000 
    100 CA        -5.3868  -20.5082  -53.2500 C.3       18 UNK         0.1400 
    101 CB        -6.6465  -19.7435  -52.8229 C.3       18 UNK        -0.1800 
    102 C         -5.7618  -21.9102  -53.7613 C.2       18 UNK         0.5000 
    103 O         -6.0339  -22.0587  -54.9526 O.2       18 UNK        -0.5000 
    104 N         -5.7116  -22.9235  -52.8838 N.am      19 UNK        -0.5000 
    105 CA        -5.9105  -24.3339  -53.2331 C.3       19 UNK         0.1400 
    106 CB        -6.0107  -25.1657  -51.9458 C.3       19 UNK        -0.1800 
    107 C         -4.8122  -24.9004  -54.1593 C.2       19 UNK         0.5000 
    108 O         -5.0640  -25.8784  -54.8637 O.2       19 UNK        -0.5000 
    109 N         -3.6308  -24.2682  -54.1587 N.am      20 UNK        -0.5000 
    110 CA        -2.5019  -24.5671  -55.0409 C.3       20 UNK         0.1400 
    111 CB        -1.2302  -24.6516  -54.1785 C.3       20 UNK        -0.1800 
    112 C         -2.3424  -23.5011  -56.1461 C.2       20 UNK         0.5000 
    113 O         -1.3568  -23.5456  -56.8848 O.2       20 UNK        -0.5000 
    114 N         -3.2843  -22.5471  -56.2230 N.am      21 UNK        -0.5000 
    115 CA        -3.3044  -21.3185  -57.0255 C.3       21 UNK         0.1400 
    116 CB        -3.2683  -21.6147  -58.5375 C.3       21 UNK        -0.1800 
    117 C         -2.2179  -20.3084  -56.6071 C.2       21 UNK         0.5000 
    118 O         -2.5487  -19.1912  -56.2094 O.2       21 UNK        -0.5000 
    119 N         -0.9509  -20.7304  -56.6892 N.am      22 UNK        -0.5000 
    120 CA         0.2577  -19.9997  -56.2745 C.3       22 UNK         0.1400 
    121 C          0.5784  -18.7111  -57.0951 C.2       22 UNK         0.5000 
    122 N          0.0147  -18.5315  -58.2835 N.am      22 UNK        -0.7600 
    123 O          1.3698  -17.8734  -56.6721 O.2       22 UNK        -0.5000 
    124 C124        0.3179  -19.7944  -54.7307 C.3       23 UNK        -0.0398 
    125 S125        1.9531  -20.2301  -54.0449 S.3       23 UNK        -0.2404 
    126 C126        2.5549  -18.6312  -53.4176 C.3       23 UNK        -0.0205 
    127 H127       -2.1042   -8.9288  -48.1485 H         1 UNK         0.0600 
    128 H128       -2.6377   -9.0480  -46.4685 H         1 UNK         0.0600 
    129 H129       -1.0044   -8.4858  -46.8391 H         1 UNK         0.0600 
    130 H130       -1.6165  -10.9114  -49.0206 H         1 UNK         0.3000 
    131 H131        0.2567  -12.6974  -48.0263 H         1 UNK         0.0600 
    132 H132       -0.8431  -12.3711  -50.4602 H         1 UNK         0.0800 
    133 H133       -1.8754  -13.6812  -49.9862 H         1 UNK         0.0800 
    134 H134       -1.1340  -15.9632  -51.0624 H         1 UNK         0.0800 
    135 H135       -0.9057  -16.1087  -49.3329 H         1 UNK         0.0800 
    136 H136        0.6676  -16.8042  -52.6405 H         1 UNK         0.1150 
    137 H137        3.3370  -19.7751  -51.0810 H         1 UNK         0.1150 
    138 H138        0.8226  -17.5464  -48.4215 H         1 UNK         0.1150 
    139 H139        3.8308  -19.6266  -48.6372 H         1 UNK         0.0800 
    140 H140        2.7269  -18.8434  -47.5444 H         1 UNK         0.0800 
    141 H141        0.7721  -20.0402  -46.3122 H         1 UNK         0.0800 
    142 H142       -0.0593  -19.8507  -47.8451 H         1 UNK         0.0800 
    143 H143       -0.6161  -22.2868  -47.8459 H         1 UNK         0.0600 
    144 H144        1.0591  -22.4383  -45.5207 H         1 UNK         0.3000 
    145 H145       -0.0443  -25.6720  -44.4992 H         1 UNK         0.0600 
    146 H146        2.3935  -26.0902  -44.7168 H         1 UNK         0.0600 
    147 H147        1.6474  -26.0469  -46.3070 H         1 UNK         0.0600 
    148 H148        2.5778  -24.6650  -45.7383 H         1 UNK         0.0600 
    149 H149        1.9359  -23.8877  -43.4542 H         1 UNK         0.3000 
    150 H150       -0.2238  -21.9427  -41.3902 H         1 UNK         0.0600 
    151 H151        0.2811  -23.9461  -40.0609 H         1 UNK         0.0600 
    152 H152        1.4404  -22.6773  -39.6952 H         1 UNK         0.0600 
    153 H153        1.9064  -24.0358  -40.7184 H         1 UNK         0.0600 
    154 H154        1.2891  -20.6604  -42.2618 H         1 UNK         0.3000 
    155 H155        4.7164  -20.7053  -42.4567 H         1 UNK         0.0600 
    156 H156        4.4886  -21.5648  -44.7966 H         1 UNK         0.0600 
    157 H157        4.6671  -19.8178  -44.7863 H         1 UNK         0.0600 
    158 H158        3.0820  -20.5386  -45.0501 H         1 UNK         0.0600 
    159 H159        2.8219  -18.7670  -43.3864 H         1 UNK         0.3000 
    160 H160        1.3654  -17.8294  -40.3788 H         1 UNK         0.0600 
    161 H161        3.6392  -16.1649  -41.5873 H         1 UNK         0.0600 
    162 H162        2.3028  -15.5302  -40.6280 H         1 UNK         0.0600 
    163 H163        3.4815  -16.6053  -39.8911 H         1 UNK         0.0600 
    164 H164        1.4416  -16.3628  -42.7711 H         1 UNK         0.3000 
    165 H165       -0.2462  -18.4130  -45.0176 H         1 UNK         0.0600 
    166 H166       -2.0387  -16.7233  -45.1179 H         1 UNK         0.0600 
    167 H167       -2.2631  -17.7436  -43.7107 H         1 UNK         0.0600 
    168 H168       -1.6010  -16.1279  -43.5120 H         1 UNK         0.0600 
    169 H169        0.1756  -15.6668  -45.2419 H         1 UNK         0.3000 
    170 H170        3.6862  -15.4969  -45.6394 H         1 UNK         0.0600 
    171 H171        3.0432  -16.2481  -47.8843 H         1 UNK         0.0600 
    172 H172        1.5218  -15.3654  -47.7833 H         1 UNK         0.0600 
    173 H173        3.0510  -14.4932  -47.8374 H         1 UNK         0.0600 
    174 H174        1.3229  -13.7551  -45.8883 H         1 UNK         0.3000 
    175 H175        2.0992  -12.1017  -42.7804 H         1 UNK         0.0600 
    176 H176        1.9545  -11.3164  -45.7393 H         1 UNK         0.0600 
    177 H177        1.8558  -10.2216  -44.3631 H         1 UNK         0.0600 
    178 H178        3.3490  -11.0879  -44.6901 H         1 UNK         0.0600 
    179 H179       -0.1310  -11.8118  -44.5228 H         1 UNK         0.3000 
    180 H180       -2.3870  -13.5613  -42.3092 H         1 UNK         0.0600 
    181 H181       -1.9318  -11.2214  -41.5741 H         1 UNK         0.0600 
    182 H182       -1.9138  -10.6809  -43.2498 H         1 UNK         0.0600 
    183 H183       -3.3964  -11.3142  -42.5404 H         1 UNK         0.0600 
    184 H184       -1.9670  -12.5743  -45.1076 H         1 UNK         0.3000 
    185 H185       -3.5207  -15.2795  -46.3928 H         1 UNK         0.0600 
    186 H186       -5.8110  -14.4336  -45.8893 H         1 UNK         0.0600 
    187 H187       -5.3231  -12.7999  -46.3241 H         1 UNK         0.0600 
    188 H188       -5.3689  -14.0699  -47.5477 H         1 UNK         0.0600 
    189 H189       -3.2261  -12.6997  -47.5965 H         1 UNK         0.3000 
    190 H190       -1.1443  -21.4679  -44.4105 H         1 UNK         0.3000 
    191 H191       -3.6404  -20.0865  -44.8023 H         1 UNK         0.0600 
    192 H192       -3.9584  -20.4917  -42.3623 H         1 UNK         0.0600 
    193 H193       -2.3818  -19.8132  -42.6960 H         1 UNK         0.0600 
    194 H194       -2.5418  -21.5263  -42.3292 H         1 UNK         0.0600 
    195 H195       -2.7788  -23.4911  -44.0399 H         1 UNK         0.3000 
    196 H196       -5.3966  -24.5626  -43.9964 H         1 UNK         0.0600 
    197 H197       -4.2236  -26.7419  -44.3070 H         1 UNK         0.0600 
    198 H198       -3.3934  -25.7455  -43.1205 H         1 UNK         0.0600 
    199 H199       -2.7429  -25.9019  -44.7503 H         1 UNK         0.0600 
    200 H200       -3.2230  -23.8923  -46.7017 H         1 UNK         0.3000 
    201 H201       -5.0079  -24.9945  -48.7443 H         1 UNK         0.0600 
    202 H202       -2.5662  -25.1911  -48.9905 H         1 UNK         0.0600 
    203 H203       -2.3774  -23.4471  -48.8920 H         1 UNK         0.0600 
    204 H204       -3.1937  -24.1737  -50.2740 H         1 UNK         0.0600 
    205 H205       -5.5776  -22.4388  -46.8992 H         1 UNK         0.3000 
    206 H206       -6.8651  -20.6566  -46.9775 H         1 UNK         0.0600 
    207 H207       -8.4368  -22.1491  -48.2031 H         1 UNK         0.0600 
    208 H208       -8.6081  -20.4794  -48.7210 H         1 UNK         0.0600 
    209 H209       -7.7595  -21.6277  -49.7447 H         1 UNK         0.0600 
    210 H210       -4.4340  -19.9274  -47.2377 H         1 UNK         0.3000 
    211 H211       -3.0025  -18.3208  -47.7528 H         1 UNK         0.0600 
    212 H212       -5.1368  -16.9116  -49.4393 H         1 UNK         0.0600 
    213 H213       -3.6647  -16.2134  -48.7845 H         1 UNK         0.0600 
    214 H214       -4.9576  -16.7123  -47.6995 H         1 UNK         0.0600 
    215 H215       -3.0315  -20.6851  -49.0239 H         1 UNK         0.3000 
    216 H216       -2.2011  -21.9467  -50.6179 H         1 UNK         0.0600 
    217 H217       -0.2300  -20.3992  -50.3964 H         1 UNK         0.0600 
    218 H218       -0.8292  -19.4892  -51.7828 H         1 UNK         0.0600 
    219 H219       -0.3429  -21.1699  -51.9654 H         1 UNK         0.0600 
    220 H220       -4.7414  -20.1569  -51.2640 H         1 UNK         0.3000 
    221 H221       -4.9261  -19.9686  -54.0802 H         1 UNK         0.0600 
    222 H222       -7.1688  -20.2546  -52.0133 H         1 UNK         0.0600 
    223 H223       -6.4029  -18.7362  -52.4844 H         1 UNK         0.0600 
    224 H224       -7.3458  -19.6478  -53.6544 H         1 UNK         0.0600 
    225 H225       -5.4970  -22.7183  -51.9097 H         1 UNK         0.3000 
    226 H226       -6.8608  -24.4144  -53.7646 H         1 UNK         0.0600 
    227 H227       -6.7991  -24.7913  -51.2924 H         1 UNK         0.0600 
    228 H228       -6.2418  -26.2075  -52.1713 H         1 UNK         0.0600 
    229 H229       -5.0756  -25.1522  -51.3868 H         1 UNK         0.0600 
    230 H230       -3.5163  -23.4470  -53.5751 H         1 UNK         0.3000 
    231 H231       -2.6451  -25.5292  -55.5364 H         1 UNK         0.0600 
    232 H232       -1.0037  -23.6969  -53.7015 H         1 UNK         0.0600 
    233 H233       -1.3351  -25.4014  -53.3942 H         1 UNK         0.0600 
    234 H234       -0.3643  -24.9317  -54.7794 H         1 UNK         0.0600 
    235 H235       -4.0575  -22.6207  -55.5739 H         1 UNK         0.3000 
    236 H236       -4.2658  -20.8480  -56.8136 H         1 UNK         0.0600 
    237 H237       -4.0814  -22.2810  -58.8253 H         1 UNK         0.0600 
    238 H238       -3.3826  -20.6958  -59.1136 H         1 UNK         0.0600 
    239 H239       -2.3317  -22.0773  -58.8487 H         1 UNK         0.0600 
    240 H240       -0.8083  -21.6907  -56.9886 H         1 UNK         0.3000 
    241 H241        1.0601  -20.6840  -56.5516 H         1 UNK         0.0600 
    242 H242        0.2314  -17.7031  -58.8155 H         1 UNK         0.3800 
    243 H243       -0.6295  -19.2120  -58.6530 H         1 UNK         0.3800 
    244 H244       -0.4003  -20.4490  -54.2373 H         1 UNK         0.0800 
    245 H245        0.0269  -18.7831  -54.4421 H         1 UNK         0.0800 
    246 H246        3.6452  -18.6554  -53.3957 H         1 UNK         0.0800 
    247 H247        2.2861  -17.8320  -54.1096 H         1 UNK         0.0800 
@<TRIPOS>BOND
     1    1    2 1    
     2    1  127 1    
     3    1  128 1    
     4    1  129 1    
     5    2    3 2    
     6    2    4 am   BACKBONE|DICT|INTERRES
     7    4    5 1    
     8    4  130 1    
     9    5    6 1    
    10    5   65 1    
    11    5  131 1    
    12    6    7 1    
    13    6  132 1    
    14    6  133 1    
    15    7    8 1    
    16    8    9 1    
    17    8  134 1    
    18    8  135 1    
    19    9   10 ar   
    20    9   14 ar   
    21   10   11 ar   
    22   10  136 1    
    23   11   12 ar   
    24   11  126 1    
    25   12   13 ar   
    26   12  137 1    
    27   13   14 ar   
    28   13   15 1    
    29   14  138 1    
    30   15   16 1    
    31   15  139 1    
    32   15  140 1    
    33   16   17 1    
    34   17   18 1    
    35   17  141 1    
    36   17  142 1    
    37   18   19 1    
    38   18   67 1    
    39   18  143 1    
    40   19   20 am   BACKBONE|DICT|INTERRES
    41   19  144 1    
    42   20   21 2    
    43   20   22 1    
    44   22   23 1    
    45   22   24 1    
    46   22  145 1    
    47   23  146 1    
    48   23  147 1    
    49   23  148 1    
    50   24   25 am   BACKBONE|DICT|INTERRES
    51   24  149 1    
    52   25   26 2    
    53   25   27 1    
    54   27   28 1    
    55   27   29 1    
    56   27  150 1    
    57   28  151 1    
    58   28  152 1    
    59   28  153 1    
    60   29   30 am   BACKBONE|DICT|INTERRES
    61   29  154 1    
    62   30   31 2    
    63   30   32 1    
    64   32   33 1    
    65   32   34 1    
    66   32  155 1    
    67   33  156 1    
    68   33  157 1    
    69   33  158 1    
    70   34   35 am   BACKBONE|DICT|INTERRES
    71   34  159 1    
    72   35   36 2    
    73   35   37 1    
    74   37   38 1    
    75   37   39 1    
    76   37  160 1    
    77   38  161 1    
    78   38  162 1    
    79   38  163 1    
    80   39   40 am   BACKBONE|DICT|INTERRES
    81   39  164 1    
    82   40   41 2    
    83   40   42 1    
    84   42   43 1    
    85   42   44 1    
    86   42  165 1    
    87   43  166 1    
    88   43  167 1    
    89   43  168 1    
    90   44   45 am   BACKBONE|DICT|INTERRES
    91   44  169 1    
    92   45   46 2    
    93   45   47 1    
    94   47   48 1    
    95   47   49 1    
    96   47  170 1    
    97   48  171 1    
    98   48  172 1    
    99   48  173 1    
   100   49   50 am   BACKBONE|DICT|INTERRES
   101   49  174 1    
   102   50   51 2    
   103   50   52 1    
   104   52   53 1    
   105   52   54 1    
   106   52  175 1    
   107   53  176 1    
   108   53  177 1    
   109   53  178 1    
   110   54   55 am   BACKBONE|DICT|INTERRES
   111   54  179 1    
   112   55   56 2    
   113   55   57 1    
   114   57   58 1    
   115   57   59 1    
   116   57  180 1    
   117   58  181 1    
   118   58  182 1    
   119   58  183 1    
   120   59   60 am   BACKBONE|DICT|INTERRES
   121   59  184 1    
   122   60   61 2    
   123   60   62 1    
   124   62   63 1    
   125   62   64 1    
   126   62  185 1    
   127   63  186 1    
   128   63  187 1    
   129   63  188 1    
   130   64   65 am   BACKBONE|DICT|INTERRES
   131   64  189 1    
   132   65   66 2    
   133   67   68 2    
   134   67   69 am   BACKBONE|DICT|INTERRES
   135   69   70 1    
   136   69  190 1    
   137   70   71 1    
   138   70   72 1    
   139   70  191 1    
   140   71  192 1    
   141   71  193 1    
   142   71  194 1    
   143   72   73 2    
   144   72   74 am   BACKBONE|DICT|INTERRES
   145   74   75 1    
   146   74  195 1    
   147   75   76 1    
   148   75   77 1    
   149   75  196 1    
   150   76  197 1    
   151   76  198 1    
   152   76  199 1    
   153   77   78 2    
   154   77   79 am   BACKBONE|DICT|INTERRES
   155   79   80 1    
   156   79  200 1    
   157   80   81 1    
   158   80   82 1    
   159   80  201 1    
   160   81  202 1    
   161   81  203 1    
   162   81  204 1    
   163   82   83 2    
   164   82   84 am   BACKBONE|DICT|INTERRES
   165   84   85 1    
   166   84  205 1    
   167   85   86 1    
   168   85   87 1    
   169   85  206 1    
   170   86  207 1    
   171   86  208 1    
   172   86  209 1    
   173   87   88 2    
   174   87   89 am   BACKBONE|DICT|INTERRES
   175   89   90 1    
   176   89  210 1    
   177   90   91 1    
   178   90   92 1    
   179   90  211 1    
   180   91  212 1    
   181   91  213 1    
   182   91  214 1    
   183   92   93 2    
   184   92   94 am   BACKBONE|DICT|INTERRES
   185   94   95 1    
   186   94  215 1    
   187   95   96 1    
   188   95   97 1    
   189   95  216 1    
   190   96  217 1    
   191   96  218 1    
   192   96  219 1    
   193   97   98 2    
   194   97   99 am   BACKBONE|DICT|INTERRES
   195   99  100 1    
   196   99  220 1    
   197  100  101 1    
   198  100  102 1    
   199  100  221 1    
   200  101  222 1    
   201  101  223 1    
   202  101  224 1    
   203  102  103 2    
   204  102  104 am   BACKBONE|DICT|INTERRES
   205  104  105 1    
   206  104  225 1    
   207  105  106 1    
   208  105  107 1    
   209  105  226 1    
   210  106  227 1    
   211  106  228 1    
   212  106  229 1    
   213  107  108 2    
   214  107  109 am   BACKBONE|DICT|INTERRES
   215  109  110 1    
   216  109  230 1    
   217  110  111 1    
   218  110  112 1    
   219  110  231 1    
   220  111  232 1    
   221  111  233 1    
   222  111  234 1    
   223  112  113 2    
   224  112  114 am   BACKBONE|DICT|INTERRES
   225  114  115 1    
   226  114  235 1    
   227  115  116 1    
   228  115  117 1    
   229  115  236 1    
   230  116  237 1    
   231  116  238 1    
   232  116  239 1    
   233  117  118 2    
   234  117  119 am   BACKBONE|DICT|INTERRES
   235  119  120 1    
   236  119  240 1    
   237  120  121 1    
   238  120  124 1    
   239  120  241 1    
   240  121  122 am   BACKBONE|DICT|INTERRES
   241  121  123 2    
   242  122  242 1    
   243  122  243 1    
   244  124  125 1    
   245  124  244 1    
   246  124  245 1    
   247  125  126 1    
   248  126  246 1    
   249  126  247 1    
@<TRIPOS>SUBSTRUCTURE
     1 UNK         1 GROUP             0       ****    0 ROOT    
