@<TRIPOS>MOLECULE
3R540
247   249    1
SMALL
USER_CHARGES


@<TRIPOS>ATOM
      1 CA         -2.2314   -8.7592  -47.3661 C.3       0 UNK        -0.1800 
      2 C          -0.8960   -8.9729  -48.0650 C.2       0 UNK         0.5000 
      3 O          -0.2941   -8.0114  -48.5447 O.2       0 UNK        -0.5000 
      4 N          -0.4374  -10.2279  -48.1324 N.am      1 UNK        -0.5000 
      5 CA          0.8598  -10.6248  -48.6865 C.3       1 UNK         0.1400 
      6 C6          0.9148  -12.1459  -48.9803 C.3       23 UNK        -0.0398 
      7 S7          0.5221  -13.2133  -47.5481 S.3       23 UNK        -0.2404 
      8 C8          1.0869  -14.8278  -48.1655 C.3       23 UNK        -0.0205 
      9 C9         -0.0495  -15.6413  -48.7585 C.ar      23 UNK        -0.0193 
     10 C10        -0.3446  -15.5681  -50.1226 C.ar      23 UNK        -0.1150 
     11 C11        -1.3534  -16.3659  -50.6730 C.ar      23 UNK        -0.0193 
     12 C12        -2.0653  -17.2423  -49.8473 C.ar      23 UNK        -0.1150 
     13 C13        -1.7699  -17.3305  -48.4834 C.ar      23 UNK        -0.0193 
     14 C14        -0.7749  -16.5117  -47.9426 C.ar      23 UNK        -0.1150 
     15 C15        -2.4885  -18.3393  -47.6011 C.3       23 UNK        -0.0205 
     16 S16        -1.3143  -19.5725  -46.9585 S.3       23 UNK        -0.2404 
     17 C17        -2.4204  -20.9369  -46.4883 C.3       23 UNK        -0.0398 
     18 CA         -1.6330  -22.2601  -46.3664 C.3       11 UNK         0.1400 
     19 N          -0.6449  -22.2471  -45.2855 N.am      11 UNK        -0.5000 
     20 C           0.2818  -23.1972  -45.0955 C.2       10 UNK         0.5000 
     21 O           0.4483  -24.1538  -45.8511 O.2       10 UNK        -0.5000 
     22 CA          1.1253  -23.0914  -43.8152 C.3       10 UNK         0.1400 
     23 CB          2.3212  -22.1486  -44.0176 C.3       10 UNK        -0.1800 
     24 N           0.3201  -22.6427  -42.6791 N.am      10 UNK        -0.5000 
     25 C          -0.6205  -23.3903  -42.0835 C.2       9 UNK         0.5000 
     26 O          -0.8736  -24.5527  -42.4027 O.2       9 UNK        -0.5000 
     27 CA         -1.4443  -22.7093  -40.9744 C.3       9 UNK         0.1400 
     28 CB         -0.6997  -22.7677  -39.6325 C.3       9 UNK        -0.1800 
     29 N          -1.7742  -21.3171  -41.2870 N.am      9 UNK        -0.5000 
     30 C          -2.5851  -20.9388  -42.2848 C.2       8 UNK         0.5000 
     31 O          -3.1639  -21.7282  -43.0291 O.2       8 UNK        -0.5000 
     32 CA         -2.7459  -19.4275  -42.5253 C.3       8 UNK         0.1400 
     33 CB         -3.8994  -18.8660  -41.6818 C.3       8 UNK        -0.1800 
     34 N          -1.5363  -18.6451  -42.2666 N.am      8 UNK        -0.5000 
     35 C          -0.3482  -18.8086  -42.8618 C.2       7 UNK         0.5000 
     36 O          -0.1111  -19.7253  -43.6503 O.2       7 UNK        -0.5000 
     37 CA          0.7407  -17.7684  -42.5121 C.3       7 UNK         0.1400 
     38 CB          2.0833  -18.0752  -43.1979 C.3       7 UNK        -0.1800 
     39 N           0.3318  -16.3985  -42.8465 N.am      7 UNK        -0.5000 
     40 C          -0.5611  -15.6655  -42.1630 C.2       6 UNK         0.5000 
     41 O          -1.1083  -16.0684  -41.1337 O.2       6 UNK        -0.5000 
     42 CA         -0.9383  -14.2807  -42.7354 C.3       6 UNK         0.1400 
     43 CB         -1.5387  -13.3358  -41.6729 C.3       6 UNK        -0.1800 
     44 N           0.1452  -13.6166  -43.4649 N.am      6 UNK        -0.5000 
     45 C           1.3338  -13.2314  -42.9807 C.2       5 UNK         0.5000 
     46 O           1.7034  -13.3968  -41.8162 O.2       5 UNK        -0.5000 
     47 CA          2.2767  -12.5574  -43.9947 C.3       5 UNK         0.1400 
     48 CB          2.8239  -11.2306  -43.4429 C.3       5 UNK        -0.1800 
     49 N           3.4011  -13.4031  -44.3955 N.am      5 UNK        -0.5000 
     50 C           3.3419  -14.6669  -44.8424 C.2       4 UNK         0.5000 
     51 O           2.3066  -15.3330  -44.8982 O.2       4 UNK        -0.5000 
     52 CA          4.6803  -15.2671  -45.3298 C.3       4 UNK         0.1400 
     53 CB          4.4967  -16.5549  -46.1609 C.3       4 UNK        -0.1800 
     54 N           5.5109  -14.2921  -46.0540 N.am      4 UNK        -0.5000 
     55 C           5.1718  -13.6275  -47.1691 C.2       3 UNK         0.5000 
     56 O           4.1187  -13.7933  -47.7857 O.2       3 UNK        -0.5000 
     57 CA          6.1822  -12.5977  -47.6936 C.3       3 UNK         0.1400 
     58 CB          6.9059  -13.1299  -48.9402 C.3       3 UNK        -0.1800 
     59 N           5.4767  -11.3655  -48.0369 N.am      3 UNK        -0.5000 
     60 C           5.1837  -10.3941  -47.1635 C.2       2 UNK         0.5000 
     61 O           5.5559  -10.3924  -45.9895 O.2       2 UNK        -0.5000 
     62 CA          4.3197   -9.2376  -47.6948 C.3       2 UNK         0.1400 
     63 CB          5.1334   -8.3261  -48.6277 C.3       2 UNK        -0.1800 
     64 N           3.1299   -9.7215  -48.3988 N.am      2 UNK        -0.5000 
     65 C           2.0229  -10.1563  -47.7811 C.2       1 UNK         0.5000 
     66 O           1.8940  -10.1825  -46.5549 O.2       1 UNK        -0.5000 
     67 C          -2.5862  -23.4607  -46.2413 C.2       11 UNK         0.5000 
     68 O          -2.7923  -24.1575  -47.2329 O.2       11 UNK        -0.5000 
     69 N          -3.1153  -23.7148  -45.0359 N.am      12 UNK        -0.5000 
     70 CA         -3.9853  -24.8523  -44.7254 C.3       12 UNK         0.1400 
     71 CB         -4.4671  -24.7579  -43.2704 C.3       12 UNK        -0.1800 
     72 C          -3.3141  -26.2113  -44.9936 C.2       12 UNK         0.5000 
     73 O          -3.9344  -27.0814  -45.6060 O.2       12 UNK        -0.5000 
     74 N          -2.0391  -26.3413  -44.5981 N.am      13 UNK        -0.5000 
     75 CA         -1.1918  -27.5044  -44.8802 C.3       13 UNK         0.1400 
     76 CB          0.1273  -27.3670  -44.1054 C.3       13 UNK        -0.1800 
     77 C          -0.9192  -27.7185  -46.3846 C.2       13 UNK         0.5000 
     78 O          -0.7149  -28.8561  -46.8083 O.2       13 UNK        -0.5000 
     79 N          -0.9595  -26.6318  -47.1652 N.am      14 UNK        -0.5000 
     80 CA         -0.8257  -26.6069  -48.6209 C.3       14 UNK         0.1400 
     81 CB         -0.0210  -25.3556  -49.0171 C.3       14 UNK        -0.1800 
     82 C          -2.1919  -26.6584  -49.3399 C.2       14 UNK         0.5000 
     83 O          -2.2815  -26.2193  -50.4866 O.2       14 UNK        -0.5000 
     84 N          -3.2342  -27.1731  -48.6681 N.am      15 UNK        -0.5000 
     85 CA         -4.6095  -27.3355  -49.1572 C.3       15 UNK         0.1400 
     86 CB         -4.6659  -28.3562  -50.3136 C.3       15 UNK        -0.1800 
     87 C          -5.2701  -25.9875  -49.5090 C.2       15 UNK         0.5000 
     88 O          -5.7838  -25.8084  -50.6153 O.2       15 UNK        -0.5000 
     89 N          -5.2007  -25.0501  -48.5544 N.am      16 UNK        -0.5000 
     90 CA         -5.6513  -23.6569  -48.6413 C.3       16 UNK         0.1400 
     91 CB         -7.1861  -23.5795  -48.7815 C.3       16 UNK        -0.1800 
     92 C          -4.8997  -22.8808  -49.7410 C.2       16 UNK         0.5000 
     93 O          -5.5230  -22.1693  -50.5268 O.2       16 UNK        -0.5000 
     94 N          -3.5727  -23.0723  -49.7938 N.am      17 UNK        -0.5000 
     95 CA         -2.6463  -22.5718  -50.8171 C.3       17 UNK         0.1400 
     96 CB         -2.4849  -21.0410  -50.7049 C.3       17 UNK        -0.1800 
     97 C          -3.0500  -23.0385  -52.2325 C.2       17 UNK         0.5000 
     98 O          -3.1976  -22.2191  -53.1417 O.2       17 UNK        -0.5000 
     99 N          -3.2696  -24.3556  -52.3625 N.am      18 UNK        -0.5000 
    100 CA        -3.7680  -25.0707  -53.5408 C.3       18 UNK         0.1400 
    101 CB        -2.6787  -25.1294  -54.6305 C.3       18 UNK        -0.1800 
    102 C         -5.1153  -24.5110  -54.0448 C.2       18 UNK         0.5000 
    103 O         -5.2636  -24.2265  -55.2342 O.2       18 UNK        -0.5000 
    104 N         -6.0602  -24.3408  -53.1077 N.am      19 UNK        -0.5000 
    105 CA        -7.3711  -23.7044  -53.2753 C.3       19 UNK         0.1400 
    106 CB        -8.2930  -24.5733  -54.1559 C.3       19 UNK        -0.1800 
    107 C         -7.2566  -22.2424  -53.7624 C.2       19 UNK         0.5000 
    108 O         -7.9227  -21.8497  -54.7225 O.2       19 UNK        -0.5000 
    109 N         -6.3986  -21.4745  -53.0761 N.am      20 UNK        -0.5000 
    110 CA        -6.0547  -20.0697  -53.3021 C.3       20 UNK         0.1400 
    111 CB        -7.2425  -19.1590  -52.9305 C.3       20 UNK        -0.1800 
    112 C         -5.5037  -19.8022  -54.7170 C.2       20 UNK         0.5000 
    113 O         -5.9366  -18.8585  -55.3822 O.2       20 UNK        -0.5000 
    114 N         -4.5429  -20.6299  -55.1520 N.am      21 UNK        -0.5000 
    115 CA        -3.9164  -20.5652  -56.4776 C.3       21 UNK         0.1400 
    116 CB        -2.9655  -21.7577  -56.6521 C.3       21 UNK        -0.1800 
    117 C         -3.1736  -19.2426  -56.7485 C.2       21 UNK         0.5000 
    118 O         -3.1458  -18.7814  -57.8903 O.2       21 UNK        -0.5000 
    119 N         -2.6146  -18.6495  -55.6884 N.am      22 UNK        -0.5000 
    120 CA        -2.0067  -17.3116  -55.6806 C.3       22 UNK         0.1400 
    121 C         -3.0178  -16.1411  -55.4850 C.2       22 UNK         0.5000 
    122 N         -4.3199  -16.3789  -55.3733 N.am      22 UNK        -0.7600 
    123 O         -2.6140  -14.9820  -55.4495 O.2       22 UNK        -0.5000 
    124 C124       -0.8069  -17.2349  -54.6994 C.3       23 UNK        -0.0398 
    125 S125       -1.1543  -17.8312  -53.0063 S.3       23 UNK        -0.2404 
    126 C126       -1.6571  -16.2980  -52.1621 C.3       23 UNK        -0.0205 
    127 H127       -2.9476   -8.3093  -48.0536 H         1 UNK         0.0600 
    128 H128       -2.1063   -8.0894  -46.5153 H         1 UNK         0.0600 
    129 H129       -2.6526   -9.6965  -47.0015 H         1 UNK         0.0600 
    130 H130       -0.9561  -10.9732  -47.6901 H         1 UNK         0.3000 
    131 H131        0.9672  -10.1112  -49.6445 H         1 UNK         0.0600 
    132 H132        0.2089  -12.3860  -49.7764 H         1 UNK         0.0800 
    133 H133        1.8998  -12.4141  -49.3668 H         1 UNK         0.0800 
    134 H134        1.8830  -14.7037  -48.9001 H         1 UNK         0.0800 
    135 H135        1.5353  -15.3813  -47.3416 H         1 UNK         0.0800 
    136 H136        0.2228  -14.9012  -50.7564 H         1 UNK         0.1150 
    137 H137       -2.8287  -17.8756  -50.2772 H         1 UNK         0.1150 
    138 H138       -0.5366  -16.5835  -46.8902 H         1 UNK         0.1150 
    139 H139       -2.9696  -17.8251  -46.7680 H         1 UNK         0.0800 
    140 H140       -3.2790  -18.8385  -48.1635 H         1 UNK         0.0800 
    141 H141       -3.1972  -21.0270  -47.2500 H         1 UNK         0.0800 
    142 H142       -2.9243  -20.6870  -45.5546 H         1 UNK         0.0800 
    143 H143       -1.0824  -22.4007  -47.2994 H         1 UNK         0.0600 
    144 H144       -0.6677  -21.4558  -44.6510 H         1 UNK         0.3000 
    145 H145        1.5142  -24.0859  -43.5859 H         1 UNK         0.0600 
    146 H146        2.9206  -22.0685  -43.1107 H         1 UNK         0.0600 
    147 H147        2.9749  -22.5191  -44.8081 H         1 UNK         0.0600 
    148 H148        2.0056  -21.1451  -44.3026 H         1 UNK         0.0600 
    149 H149        0.4126  -21.6721  -42.4151 H         1 UNK         0.3000 
    150 H150       -2.3797  -23.2629  -40.8689 H         1 UNK         0.0600 
    151 H151       -1.3089  -22.3600  -38.8256 H         1 UNK         0.0600 
    152 H152       -0.4565  -23.7973  -39.3663 H         1 UNK         0.0600 
    153 H153        0.2354  -22.2070  -39.6643 H         1 UNK         0.0600 
    154 H154       -1.3358  -20.6019  -40.7257 H         1 UNK         0.3000 
    155 H155       -2.9983  -19.2898  -43.5781 H         1 UNK         0.0600 
    156 H156       -4.8247  -19.4120  -41.8712 H         1 UNK         0.0600 
    157 H157       -4.0870  -17.8183  -41.9180 H         1 UNK         0.0600 
    158 H158       -3.6881  -18.9364  -40.6141 H         1 UNK         0.0600 
    159 H159       -1.6324  -17.8450  -41.6475 H         1 UNK         0.3000 
    160 H160        0.9042  -17.8255  -41.4341 H         1 UNK         0.0600 
    161 H161        1.9899  -18.0573  -44.2845 H         1 UNK         0.0600 
    162 H162        2.4522  -19.0616  -42.9149 H         1 UNK         0.0600 
    163 H163        2.8468  -17.3508  -42.9141 H         1 UNK         0.0600 
    164 H164        0.7699  -15.9925  -43.6677 H         1 UNK         0.3000 
    165 H165       -1.7179  -14.4733  -43.4736 H         1 UNK         0.0600 
    166 H166       -1.8137  -12.3754  -42.1091 H         1 UNK         0.0600 
    167 H167       -2.4427  -13.7608  -41.2353 H         1 UNK         0.0600 
    168 H168       -0.8398  -13.1465  -40.8577 H         1 UNK         0.0600 
    169 H169       -0.0238  -13.4785  -44.4520 H         1 UNK         0.3000 
    170 H170        1.7092  -12.3309  -44.8984 H         1 UNK         0.0600 
    171 H171        2.0105  -10.5693  -43.1419 H         1 UNK         0.0600 
    172 H172        3.4627  -11.3864  -42.5727 H         1 UNK         0.0600 
    173 H173        3.4065  -10.7009  -44.1967 H         1 UNK         0.0600 
    174 H174        4.3041  -12.9529  -44.3947 H         1 UNK         0.3000 
    175 H175        5.2345  -15.5362  -44.4295 H         1 UNK         0.0600 
    176 H176        5.4572  -16.9567  -46.4829 H         1 UNK         0.0600 
    177 H177        4.0020  -17.3305  -45.5759 H         1 UNK         0.0600 
    178 H178        3.8905  -16.3817  -47.0504 H         1 UNK         0.0600 
    179 H179        6.4038  -14.0852  -45.6279 H         1 UNK         0.3000 
    180 H180        6.9295  -12.3920  -46.9240 H         1 UNK         0.0600 
    181 H181        6.2078  -13.3576  -49.7469 H         1 UNK         0.0600 
    182 H182        7.4528  -14.0454  -48.7114 H         1 UNK         0.0600 
    183 H183        7.6280  -12.4048  -49.3161 H         1 UNK         0.0600 
    184 H184        5.0825  -11.3207  -48.9643 H         1 UNK         0.3000 
    185 H185        4.0033   -8.6373  -46.8387 H         1 UNK         0.0600 
    186 H186        5.4616   -8.8501  -49.5261 H         1 UNK         0.0600 
    187 H187        4.5480   -7.4609  -48.9399 H         1 UNK         0.0600 
    188 H188        6.0244   -7.9491  -48.1238 H         1 UNK         0.0600 
    189 H189        3.1637   -9.7099  -49.4079 H         1 UNK         0.3000 
    190 H190       -2.9414  -23.0628  -44.2738 H         1 UNK         0.3000 
    191 H191       -4.8604  -24.7828  -45.3744 H         1 UNK         0.0600 
    192 H192       -5.0264  -23.8378  -43.1001 H         1 UNK         0.0600 
    193 H193       -5.1271  -25.5898  -43.0218 H         1 UNK         0.0600 
    194 H194       -3.6341  -24.7773  -42.5675 H         1 UNK         0.0600 
    195 H195       -1.6130  -25.5880  -44.0684 H         1 UNK         0.3000 
    196 H196       -1.7119  -28.3913  -44.5127 H         1 UNK         0.0600 
    197 H197        0.7679  -28.2351  -44.2658 H         1 UNK         0.0600 
    198 H198       -0.0516  -27.2882  -43.0329 H         1 UNK         0.0600 
    199 H199        0.6861  -26.4841  -44.4166 H         1 UNK         0.0600 
    200 H200       -1.1336  -25.7354  -46.7281 H         1 UNK         0.3000 
    201 H201       -0.2626  -27.4821  -48.9500 H         1 UNK         0.0600 
    202 H202        0.9448  -25.3341  -48.5120 H         1 UNK         0.0600 
    203 H203       -0.5501  -24.4384  -48.7590 H         1 UNK         0.0600 
    204 H204        0.1759  -25.3328  -50.0895 H         1 UNK         0.0600 
    205 H205       -3.0824  -27.4492  -47.7064 H         1 UNK         0.3000 
    206 H206       -5.1832  -27.7496  -48.3267 H         1 UNK         0.0600 
    207 H207       -4.1473  -27.9967  -51.2028 H         1 UNK         0.0600 
    208 H208       -4.2153  -29.3052  -50.0234 H         1 UNK         0.0600 
    209 H209       -5.6979  -28.5612  -50.6006 H         1 UNK         0.0600 
    210 H210       -4.6527  -25.2708  -47.7331 H         1 UNK         0.3000 
    211 H211       -5.3856  -23.1829  -47.6956 H         1 UNK         0.0600 
    212 H212       -7.5313  -23.9895  -49.7307 H         1 UNK         0.0600 
    213 H213       -7.5301  -22.5459  -48.7297 H         1 UNK         0.0600 
    214 H214       -7.6822  -24.1267  -47.9801 H         1 UNK         0.0600 
    215 H215       -3.1696  -23.6779  -49.0852 H         1 UNK         0.3000 
    216 H216       -1.6755  -23.0233  -50.6086 H         1 UNK         0.0600 
    217 H217       -3.4177  -20.5148  -50.9077 H         1 UNK         0.0600 
    218 H218       -1.7434  -20.6730  -51.4150 H         1 UNK         0.0600 
    219 H219       -2.1475  -20.7533  -49.7100 H         1 UNK         0.0600 
    220 H220       -3.0800  -24.9510  -51.5584 H         1 UNK         0.3000 
    221 H221       -3.9660  -26.0936  -53.2171 H         1 UNK         0.0600 
    222 H222       -2.4020  -24.1356  -54.9802 H         1 UNK         0.0600 
    223 H223       -1.7768  -25.6124  -54.2548 H         1 UNK         0.0600 
    224 H224       -3.0168  -25.7018  -55.4949 H         1 UNK         0.0600 
    225 H225       -5.8495  -24.6581  -52.1644 H         1 UNK         0.3000 
    226 H226       -7.8156  -23.6599  -52.2801 H         1 UNK         0.0600 
    227 H227       -8.3688  -25.5876  -53.7643 H         1 UNK         0.0600 
    228 H228       -9.3022  -24.1615  -54.1875 H         1 UNK         0.0600 
    229 H229       -7.9339  -24.6362  -55.1835 H         1 UNK         0.0600 
    230 H230       -5.9361  -21.8915  -52.2698 H         1 UNK         0.3000 
    231 H231       -5.2400  -19.8442  -52.6125 H         1 UNK         0.0600 
    232 H232       -7.5784  -19.3483  -51.9109 H         1 UNK         0.0600 
    233 H233       -6.9616  -18.1068  -52.9886 H         1 UNK         0.0600 
    234 H234       -8.0920  -19.3092  -53.5974 H         1 UNK         0.0600 
    235 H235       -4.2009  -21.3511  -54.5204 H         1 UNK         0.3000 
    236 H236       -4.7109  -20.6514  -57.2214 H         1 UNK         0.0600 
    237 H237       -2.1934  -21.7715  -55.8817 H         1 UNK         0.0600 
    238 H238       -3.5086  -22.7007  -56.6033 H         1 UNK         0.0600 
    239 H239       -2.4653  -21.7242  -57.6208 H         1 UNK         0.0600 
    240 H240       -2.6873  -19.1019  -54.7883 H         1 UNK         0.3000 
    241 H241       -1.5897  -17.1374  -56.6743 H         1 UNK         0.0600 
    242 H242       -4.9485  -15.6003  -55.2577 H         1 UNK         0.3800 
    243 H243       -4.7016  -17.3166  -55.4355 H         1 UNK         0.3800 
    244 H244       -0.3841  -16.2296  -54.6649 H         1 UNK         0.0800 
    245 H245       -0.0035  -17.8611  -55.0894 H         1 UNK         0.0800 
    246 H246       -2.7256  -16.1374  -52.3123 H         1 UNK         0.0800 
    247 H247       -1.1514  -15.4412  -52.6094 H         1 UNK         0.0800 
@<TRIPOS>BOND
     1    1    2 1    
     2    1  127 1    
     3    1  128 1    
     4    1  129 1    
     5    2    3 2    
     6    2    4 am   BACKBONE|DICT|INTERRES
     7    4    5 1    
     8    4  130 1    
     9    5    6 1    
    10    5   65 1    
    11    5  131 1    
    12    6    7 1    
    13    6  132 1    
    14    6  133 1    
    15    7    8 1    
    16    8    9 1    
    17    8  134 1    
    18    8  135 1    
    19    9   10 ar   
    20    9   14 ar   
    21   10   11 ar   
    22   10  136 1    
    23   11   12 ar   
    24   11  126 1    
    25   12   13 ar   
    26   12  137 1    
    27   13   14 ar   
    28   13   15 1    
    29   14  138 1    
    30   15   16 1    
    31   15  139 1    
    32   15  140 1    
    33   16   17 1    
    34   17   18 1    
    35   17  141 1    
    36   17  142 1    
    37   18   19 1    
    38   18   67 1    
    39   18  143 1    
    40   19   20 am   BACKBONE|DICT|INTERRES
    41   19  144 1    
    42   20   21 2    
    43   20   22 1    
    44   22   23 1    
    45   22   24 1    
    46   22  145 1    
    47   23  146 1    
    48   23  147 1    
    49   23  148 1    
    50   24   25 am   BACKBONE|DICT|INTERRES
    51   24  149 1    
    52   25   26 2    
    53   25   27 1    
    54   27   28 1    
    55   27   29 1    
    56   27  150 1    
    57   28  151 1    
    58   28  152 1    
    59   28  153 1    
    60   29   30 am   BACKBONE|DICT|INTERRES
    61   29  154 1    
    62   30   31 2    
    63   30   32 1    
    64   32   33 1    
    65   32   34 1    
    66   32  155 1    
    67   33  156 1    
    68   33  157 1    
    69   33  158 1    
    70   34   35 am   BACKBONE|DICT|INTERRES
    71   34  159 1    
    72   35   36 2    
    73   35   37 1    
    74   37   38 1    
    75   37   39 1    
    76   37  160 1    
    77   38  161 1    
    78   38  162 1    
    79   38  163 1    
    80   39   40 am   BACKBONE|DICT|INTERRES
    81   39  164 1    
    82   40   41 2    
    83   40   42 1    
    84   42   43 1    
    85   42   44 1    
    86   42  165 1    
    87   43  166 1    
    88   43  167 1    
    89   43  168 1    
    90   44   45 am   BACKBONE|DICT|INTERRES
    91   44  169 1    
    92   45   46 2    
    93   45   47 1    
    94   47   48 1    
    95   47   49 1    
    96   47  170 1    
    97   48  171 1    
    98   48  172 1    
    99   48  173 1    
   100   49   50 am   BACKBONE|DICT|INTERRES
   101   49  174 1    
   102   50   51 2    
   103   50   52 1    
   104   52   53 1    
   105   52   54 1    
   106   52  175 1    
   107   53  176 1    
   108   53  177 1    
   109   53  178 1    
   110   54   55 am   BACKBONE|DICT|INTERRES
   111   54  179 1    
   112   55   56 2    
   113   55   57 1    
   114   57   58 1    
   115   57   59 1    
   116   57  180 1    
   117   58  181 1    
   118   58  182 1    
   119   58  183 1    
   120   59   60 am   BACKBONE|DICT|INTERRES
   121   59  184 1    
   122   60   61 2    
   123   60   62 1    
   124   62   63 1    
   125   62   64 1    
   126   62  185 1    
   127   63  186 1    
   128   63  187 1    
   129   63  188 1    
   130   64   65 am   BACKBONE|DICT|INTERRES
   131   64  189 1    
   132   65   66 2    
   133   67   68 2    
   134   67   69 am   BACKBONE|DICT|INTERRES
   135   69   70 1    
   136   69  190 1    
   137   70   71 1    
   138   70   72 1    
   139   70  191 1    
   140   71  192 1    
   141   71  193 1    
   142   71  194 1    
   143   72   73 2    
   144   72   74 am   BACKBONE|DICT|INTERRES
   145   74   75 1    
   146   74  195 1    
   147   75   76 1    
   148   75   77 1    
   149   75  196 1    
   150   76  197 1    
   151   76  198 1    
   152   76  199 1    
   153   77   78 2    
   154   77   79 am   BACKBONE|DICT|INTERRES
   155   79   80 1    
   156   79  200 1    
   157   80   81 1    
   158   80   82 1    
   159   80  201 1    
   160   81  202 1    
   161   81  203 1    
   162   81  204 1    
   163   82   83 2    
   164   82   84 am   BACKBONE|DICT|INTERRES
   165   84   85 1    
   166   84  205 1    
   167   85   86 1    
   168   85   87 1    
   169   85  206 1    
   170   86  207 1    
   171   86  208 1    
   172   86  209 1    
   173   87   88 2    
   174   87   89 am   BACKBONE|DICT|INTERRES
   175   89   90 1    
   176   89  210 1    
   177   90   91 1    
   178   90   92 1    
   179   90  211 1    
   180   91  212 1    
   181   91  213 1    
   182   91  214 1    
   183   92   93 2    
   184   92   94 am   BACKBONE|DICT|INTERRES
   185   94   95 1    
   186   94  215 1    
   187   95   96 1    
   188   95   97 1    
   189   95  216 1    
   190   96  217 1    
   191   96  218 1    
   192   96  219 1    
   193   97   98 2    
   194   97   99 am   BACKBONE|DICT|INTERRES
   195   99  100 1    
   196   99  220 1    
   197  100  101 1    
   198  100  102 1    
   199  100  221 1    
   200  101  222 1    
   201  101  223 1    
   202  101  224 1    
   203  102  103 2    
   204  102  104 am   BACKBONE|DICT|INTERRES
   205  104  105 1    
   206  104  225 1    
   207  105  106 1    
   208  105  107 1    
   209  105  226 1    
   210  106  227 1    
   211  106  228 1    
   212  106  229 1    
   213  107  108 2    
   214  107  109 am   BACKBONE|DICT|INTERRES
   215  109  110 1    
   216  109  230 1    
   217  110  111 1    
   218  110  112 1    
   219  110  231 1    
   220  111  232 1    
   221  111  233 1    
   222  111  234 1    
   223  112  113 2    
   224  112  114 am   BACKBONE|DICT|INTERRES
   225  114  115 1    
   226  114  235 1    
   227  115  116 1    
   228  115  117 1    
   229  115  236 1    
   230  116  237 1    
   231  116  238 1    
   232  116  239 1    
   233  117  118 2    
   234  117  119 am   BACKBONE|DICT|INTERRES
   235  119  120 1    
   236  119  240 1    
   237  120  121 1    
   238  120  124 1    
   239  120  241 1    
   240  121  122 am   BACKBONE|DICT|INTERRES
   241  121  123 2    
   242  122  242 1    
   243  122  243 1    
   244  124  125 1    
   245  124  244 1    
   246  124  245 1    
   247  125  126 1    
   248  126  246 1    
   249  126  247 1    
@<TRIPOS>SUBSTRUCTURE
     1 UNK         1 GROUP             0       ****    0 ROOT    
