@<TRIPOS>MOLECULE
3R540
247   249    1
SMALL
USER_CHARGES


@<TRIPOS>ATOM
      1 CA          4.6801  -11.2958  -47.8703 C.3       0 UNK        -0.1800 
      2 C           3.5588  -12.1735  -47.3348 C.2       0 UNK         0.5000 
      3 O           2.4081  -11.7384  -47.3260 O.2       0 UNK        -0.5000 
      4 N           3.9083  -13.3879  -46.8823 N.am      1 UNK        -0.5000 
      5 CA          3.0692  -14.4385  -46.2845 C.3       1 UNK         0.1400 
      6 C6          2.4886  -15.4632  -47.2986 C.3       23 UNK        -0.0398 
      7 S7          1.4795  -14.7847  -48.6669 S.3       23 UNK        -0.2404 
      8 C8          2.4076  -15.3383  -50.1367 C.3       23 UNK        -0.0205 
      9 C9          2.0115  -16.7439  -50.5756 C.ar      23 UNK        -0.0193 
     10 C10         1.2001  -16.9302  -51.7008 C.ar      23 UNK        -0.1150 
     11 C11         0.8479  -18.2180  -52.1189 C.ar      23 UNK        -0.0193 
     12 C12         1.2946  -19.3241  -51.3906 C.ar      23 UNK        -0.1150 
     13 C13         2.0908  -19.1518  -50.2561 C.ar      23 UNK        -0.0193 
     14 C14         2.4642  -17.8627  -49.8695 C.ar      23 UNK        -0.1150 
     15 C15         2.5459  -20.3518  -49.4391 C.3       23 UNK        -0.0205 
     16 S16         1.7557  -20.3880  -47.7977 S.3       23 UNK        -0.2404 
     17 C17         0.0117  -20.7390  -48.2111 C.3       23 UNK        -0.0398 
     18 CA         -0.5045  -22.0404  -47.5563 C.3       11 UNK         0.1400 
     19 N          -0.3264  -22.0554  -46.0941 N.am      11 UNK        -0.5000 
     20 C          -0.6230  -23.0747  -45.2701 C.2       10 UNK         0.5000 
     21 O          -1.1354  -24.1331  -45.6397 O.2       10 UNK        -0.5000 
     22 CA         -0.3505  -22.8489  -43.7754 C.3       10 UNK         0.1400 
     23 CB          1.1507  -22.9588  -43.4671 C.3       10 UNK        -0.1800 
     24 N          -0.8552  -21.5412  -43.3579 N.am      10 UNK        -0.5000 
     25 C          -2.1272  -21.3113  -42.9979 C.2       9 UNK         0.5000 
     26 O          -2.9647  -22.2023  -42.8574 O.2       9 UNK        -0.5000 
     27 CA         -2.5529  -19.8451  -42.7740 C.3       9 UNK         0.1400 
     28 CB         -2.4556  -19.4787  -41.2857 C.3       9 UNK        -0.1800 
     29 N          -1.7734  -18.8824  -43.5528 N.am      9 UNK        -0.5000 
     30 C          -1.7554  -18.8129  -44.8930 C.2       8 UNK         0.5000 
     31 O          -2.4568  -19.5143  -45.6207 O.2       8 UNK        -0.5000 
     32 CA         -0.7415  -17.8422  -45.5331 C.3       8 UNK         0.1400 
     33 CB         -1.4185  -16.5179  -45.9037 C.3       8 UNK        -0.1800 
     34 N           0.4286  -17.5681  -44.6989 N.am      8 UNK        -0.5000 
     35 C           1.2752  -18.4892  -44.2156 C.2       7 UNK         0.5000 
     36 O           1.1850  -19.6919  -44.4638 O.2       7 UNK        -0.5000 
     37 CA          2.3638  -17.9922  -43.2458 C.3       7 UNK         0.1400 
     38 CB          3.7225  -17.9244  -43.9578 C.3       7 UNK        -0.1800 
     39 N           2.0749  -16.6869  -42.6410 N.am      7 UNK        -0.5000 
     40 C           1.0429  -16.4029  -41.8305 C.2       6 UNK         0.5000 
     41 O           0.1641  -17.2158  -41.5386 O.2       6 UNK        -0.5000 
     42 CA          0.9761  -14.9545  -41.3041 C.3       6 UNK         0.1400 
     43 CB          0.1137  -14.8000  -40.0341 C.3       6 UNK        -0.1800 
     44 N           2.3100  -14.3625  -41.1490 N.am      6 UNK        -0.5000 
     45 C           3.2481  -14.6839  -40.2452 C.2       5 UNK         0.5000 
     46 O           3.0650  -15.4824  -39.3258 O.2       5 UNK        -0.5000 
     47 CA          4.6443  -14.0435  -40.4077 C.3       5 UNK         0.1400 
     48 CB          5.7348  -15.1270  -40.4724 C.3       5 UNK        -0.1800 
     49 N           4.7832  -13.1906  -41.5915 N.am      5 UNK        -0.5000 
     50 C           4.3498  -11.9290  -41.7042 C.2       4 UNK         0.5000 
     51 O           3.7238  -11.3461  -40.8180 O.2       4 UNK        -0.5000 
     52 CA          4.6622  -11.1945  -43.0217 C.3       4 UNK         0.1400 
     53 CB          5.5653  -11.9875  -43.9895 C.3       4 UNK        -0.1800 
     54 N           3.4103  -10.8838  -43.7026 N.am      4 UNK        -0.5000 
     55 C           2.8186   -9.6827  -43.7308 C.2       3 UNK         0.5000 
     56 O           3.2823   -8.6804  -43.1845 O.2       3 UNK        -0.5000 
     57 CA          1.4993   -9.5604  -44.5196 C.3       3 UNK         0.1400 
     58 CB          1.6925   -8.6667  -45.7558 C.3       3 UNK        -0.1800 
     59 N           0.9779  -10.8545  -44.9611 N.am      3 UNK        -0.5000 
     60 C           0.1663  -11.6403  -44.2418 C.2       2 UNK         0.5000 
     61 O          -0.2515  -11.3541  -43.1201 O.2       2 UNK        -0.5000 
     62 CA         -0.2322  -12.9853  -44.8807 C.3       2 UNK         0.1400 
     63 CB         -1.4705  -12.7880  -45.7694 C.3       2 UNK        -0.1800 
     64 N           0.8357  -13.5967  -45.6768 N.am      2 UNK        -0.5000 
     65 C           2.0588  -13.9218  -45.2392 C.2       1 UNK         0.5000 
     66 O           2.4201  -13.8026  -44.0669 O.2       1 UNK        -0.5000 
     67 C          -1.9575  -22.3117  -47.9992 C.2       11 UNK         0.5000 
     68 O          -2.1600  -22.8507  -49.0882 O.2       11 UNK        -0.5000 
     69 N          -2.9266  -21.9897  -47.1288 N.am      12 UNK        -0.5000 
     70 CA         -4.3457  -22.3406  -47.2042 C.3       12 UNK         0.1400 
     71 CB         -4.9979  -22.0521  -45.8435 C.3       12 UNK        -0.1800 
     72 C          -4.5949  -23.7988  -47.6258 C.2       12 UNK         0.5000 
     73 O          -5.3607  -24.0318  -48.5621 O.2       12 UNK        -0.5000 
     74 N          -3.8923  -24.7269  -46.9652 N.am      13 UNK        -0.5000 
     75 CA         -3.9160  -26.1534  -47.2678 C.3       13 UNK         0.1400 
     76 CB         -3.9943  -26.9431  -45.9519 C.3       13 UNK        -0.1800 
     77 C          -2.6774  -26.5761  -48.0732 C.2       13 UNK         0.5000 
     78 O          -2.8169  -27.3250  -49.0399 O.2       13 UNK        -0.5000 
     79 N          -1.4899  -26.1009  -47.6675 N.am      14 UNK        -0.5000 
     80 CA         -0.1952  -26.5582  -48.1819 C.3       14 UNK         0.1400 
     81 CB          0.9263  -26.0543  -47.2600 C.3       14 UNK        -0.1800 
     82 C           0.0909  -26.1588  -49.6403 C.2       14 UNK         0.5000 
     83 O           0.8269  -26.8737  -50.3217 O.2       14 UNK        -0.5000 
     84 N          -0.4876  -25.0399  -50.0910 N.am      15 UNK        -0.5000 
     85 CA         -0.3545  -24.5179  -51.4513 C.3       15 UNK         0.1400 
     86 CB          0.4348  -23.1991  -51.4037 C.3       15 UNK        -0.1800 
     87 C          -1.7263  -24.3245  -52.1213 C.2       15 UNK         0.5000 
     88 O          -1.7802  -23.7075  -53.1834 O.2       15 UNK        -0.5000 
     89 N          -2.7978  -24.8389  -51.4958 N.am      16 UNK        -0.5000 
     90 CA         -4.1998  -24.7765  -51.9252 C.3       16 UNK         0.1400 
     91 CB         -4.4154  -25.6291  -53.1919 C.3       16 UNK        -0.1800 
     92 C          -4.7511  -23.3412  -52.0744 C.2       16 UNK         0.5000 
     93 O          -5.6273  -23.0984  -52.9101 O.2       16 UNK        -0.5000 
     94 N          -4.2567  -22.4074  -51.2471 N.am      17 UNK        -0.5000 
     95 CA         -4.6669  -21.0015  -51.2724 C.3       17 UNK         0.1400 
     96 CB         -3.7316  -20.1621  -50.3888 C.3       17 UNK        -0.1800 
     97 C          -6.1410  -20.7897  -50.8742 C.2       17 UNK         0.5000 
     98 O          -6.7749  -19.8721  -51.3946 O.2       17 UNK        -0.5000 
     99 N          -6.6829  -21.6621  -50.0086 N.am      18 UNK        -0.5000 
    100 CA        -8.0869  -21.6323  -49.5820 C.3       18 UNK         0.1400 
    101 CB        -8.2625  -22.4941  -48.3242 C.3       18 UNK        -0.1800 
    102 C         -9.0632  -22.0884  -50.6826 C.2       18 UNK         0.5000 
    103 O        -10.2288  -21.6926  -50.6608 O.2       18 UNK        -0.5000 
    104 N         -8.5670  -22.8874  -51.6365 N.am      19 UNK        -0.5000 
    105 CA        -9.2956  -23.3208  -52.8296 C.3       19 UNK         0.1400 
    106 CB        -8.7593  -24.6977  -53.2565 C.3       19 UNK        -0.1800 
    107 C         -9.1795  -22.3073  -53.9873 C.2       19 UNK         0.5000 
    108 O         -9.7526  -22.5476  -55.0505 O.2       19 UNK        -0.5000 
    109 N         -8.4233  -21.2168  -53.7750 N.am      20 UNK        -0.5000 
    110 CA        -8.0458  -20.1850  -54.7463 C.3       20 UNK         0.1400 
    111 CB        -9.2809  -19.4052  -55.2437 C.3       20 UNK        -0.1800 
    112 C         -7.1722  -20.7379  -55.8929 C.2       20 UNK         0.5000 
    113 O         -7.2028  -20.2078  -57.0046 O.2       20 UNK        -0.5000 
    114 N         -6.3933  -21.7849  -55.5930 N.am      21 UNK        -0.5000 
    115 CA        -5.4919  -22.4751  -56.5126 C.3       21 UNK         0.1400 
    116 CB        -5.9454  -23.9422  -56.6289 C.3       21 UNK        -0.1800 
    117 C         -4.0431  -22.3354  -56.0114 C.2       21 UNK         0.5000 
    118 O         -3.2892  -23.3074  -56.0433 O.2       21 UNK        -0.5000 
    119 N         -3.7123  -21.1273  -55.5301 N.am      22 UNK        -0.5000 
    120 CA        -2.4666  -20.7429  -54.8499 C.3       22 UNK         0.1400 
    121 C         -1.1732  -21.1419  -55.6171 C.2       22 UNK         0.5000 
    122 N         -0.4511  -22.1464  -55.1438 N.am      22 UNK        -0.7600 
    123 O         -0.8145  -20.5311  -56.6214 O.2       22 UNK        -0.5000 
    124 C124       -2.4787  -19.2281  -54.4943 C.3       23 UNK        -0.0398 
    125 S125       -1.7096  -18.8800  -52.8810 S.3       23 UNK        -0.2404 
    126 C126       -0.0158  -18.4261  -53.3532 C.3       23 UNK        -0.0205 
    127 H127        4.7419  -10.3749  -47.2901 H         1 UNK         0.0600 
    128 H128        4.4855  -11.0331  -48.9100 H         1 UNK         0.0600 
    129 H129        5.6480  -11.7950  -47.8199 H         1 UNK         0.0600 
    130 H130        4.8875  -13.6304  -46.9330 H         1 UNK         0.3000 
    131 H131        3.7811  -15.0091  -45.6866 H         1 UNK         0.0600 
    132 H132        1.8983  -16.2233  -46.7851 H         1 UNK         0.0800 
    133 H133        3.3332  -16.0027  -47.7231 H         1 UNK         0.0800 
    134 H134        2.2175  -14.6300  -50.9444 H         1 UNK         0.0800 
    135 H135        3.4810  -15.2910  -49.9484 H         1 UNK         0.0800 
    136 H136        0.8467  -16.0724  -52.2556 H         1 UNK         0.1150 
    137 H137        1.0094  -20.3176  -51.7057 H         1 UNK         0.1150 
    138 H138        3.0952  -17.7427  -49.0030 H         1 UNK         0.1150 
    139 H139        2.3426  -21.2860  -49.9630 H         1 UNK         0.0800 
    140 H140        3.6278  -20.3037  -49.3082 H         1 UNK         0.0800 
    141 H141       -0.0922  -20.7943  -49.2945 H         1 UNK         0.0800 
    142 H142       -0.6010  -19.8912  -47.9101 H         1 UNK         0.0800 
    143 H143        0.0944  -22.8632  -47.9499 H         1 UNK         0.0600 
    144 H144        0.1174  -21.2356  -45.6978 H         1 UNK         0.3000 
    145 H145       -0.8625  -23.6342  -43.2150 H         1 UNK         0.0600 
    146 H146        1.3467  -22.8033  -42.4062 H         1 UNK         0.0600 
    147 H147        1.5267  -23.9494  -43.7258 H         1 UNK         0.0600 
    148 H148        1.7400  -22.2317  -44.0262 H         1 UNK         0.0600 
    149 H149       -0.2287  -20.7550  -43.4907 H         1 UNK         0.3000 
    150 H150       -3.5968  -19.7562  -43.0820 H         1 UNK         0.0600 
    151 H151       -3.0577  -20.1536  -40.6759 H         1 UNK         0.0600 
    152 H152       -2.8167  -18.4663  -41.1036 H         1 UNK         0.0600 
    153 H153       -1.4279  -19.5370  -40.9247 H         1 UNK         0.0600 
    154 H154       -1.1539  -18.2786  -43.0256 H         1 UNK         0.3000 
    155 H155       -0.3750  -18.2980  -46.4507 H         1 UNK         0.0600 
    156 H156       -0.7444  -15.8844  -46.4794 H         1 UNK         0.0600 
    157 H157       -1.7351  -15.9662  -45.0179 H         1 UNK         0.0600 
    158 H158       -2.3025  -16.6881  -46.5199 H         1 UNK         0.0600 
    159 H159        0.5602  -16.6126  -44.4067 H         1 UNK         0.3000 
    160 H160        2.4345  -18.7229  -42.4377 H         1 UNK         0.0600 
    161 H161        3.7095  -17.2157  -44.7852 H         1 UNK         0.0600 
    162 H162        3.9958  -18.8979  -44.3675 H         1 UNK         0.0600 
    163 H163        4.5158  -17.6284  -43.2710 H         1 UNK         0.0600 
    164 H164        2.7271  -15.9416  -42.8396 H         1 UNK         0.3000 
    165 H165        0.4895  -14.3751  -42.0877 H         1 UNK         0.0600 
    166 H166        0.4611  -15.4383  -39.2217 H         1 UNK         0.0600 
    167 H167        0.1158  -13.7695  -39.6791 H         1 UNK         0.0600 
    168 H168       -0.9232  -15.0713  -40.2353 H         1 UNK         0.0600 
    169 H169        2.5771  -13.7245  -41.8890 H         1 UNK         0.3000 
    170 H170        4.8222  -13.4357  -39.5182 H         1 UNK         0.0600 
    171 H171        5.7271  -15.7499  -39.5770 H         1 UNK         0.0600 
    172 H172        5.5966  -15.7854  -41.3310 H         1 UNK         0.0600 
    173 H173        6.7282  -14.6838  -40.5447 H         1 UNK         0.0600 
    174 H174        5.2730  -13.5961  -42.3757 H         1 UNK         0.3000 
    175 H175        5.1914  -10.2776  -42.7550 H         1 UNK         0.0600 
    176 H176        5.1106  -12.9279  -44.3009 H         1 UNK         0.0600 
    177 H177        5.7687  -11.4078  -44.8900 H         1 UNK         0.0600 
    178 H178        6.5305  -12.2132  -43.5341 H         1 UNK         0.0600 
    179 H179        2.9186  -11.6694  -44.1075 H         1 UNK         0.3000 
    180 H180        0.7698   -9.0791  -43.8650 H         1 UNK         0.0600 
    181 H181        2.4352   -9.0798  -46.4392 H         1 UNK         0.0600 
    182 H182        2.0283   -7.6690  -45.4705 H         1 UNK         0.0600 
    183 H183        0.7593   -8.5488  -46.3067 H         1 UNK         0.0600 
    184 H184        1.3063  -11.1860  -45.8659 H         1 UNK         0.3000 
    185 H185       -0.4922  -13.6778  -44.0793 H         1 UNK         0.0600 
    186 H186       -2.2958  -12.3594  -45.1993 H         1 UNK         0.0600 
    187 H187       -1.2626  -12.1144  -46.6018 H         1 UNK         0.0600 
    188 H188       -1.8235  -13.7295  -46.1866 H         1 UNK         0.0600 
    189 H189        0.6670  -13.6703  -46.6722 H         1 UNK         0.3000 
    190 H190       -2.6544  -21.4491  -46.3153 H         1 UNK         0.3000 
    191 H191       -4.8207  -21.6974  -47.9408 H         1 UNK         0.0600 
    192 H192       -4.5174  -22.6137  -45.0420 H         1 UNK         0.0600 
    193 H193       -6.0531  -22.3245  -45.8399 H         1 UNK         0.0600 
    194 H194       -4.9341  -20.9931  -45.5925 H         1 UNK         0.0600 
    195 H195       -3.2326  -24.4220  -46.2600 H         1 UNK         0.3000 
    196 H196       -4.8004  -26.4005  -47.8593 H         1 UNK         0.0600 
    197 H197       -4.0081  -28.0173  -46.1405 H         1 UNK         0.0600 
    198 H198       -4.9029  -26.6982  -45.4017 H         1 UNK         0.0600 
    199 H199       -3.1437  -26.7332  -45.3019 H         1 UNK         0.0600 
    200 H200       -1.4511  -25.4609  -46.8777 H         1 UNK         0.3000 
    201 H201       -0.1941  -27.6495  -48.1412 H         1 UNK         0.0600 
    202 H202        0.7645  -26.3720  -46.2298 H         1 UNK         0.0600 
    203 H203        0.9988  -24.9670  -47.2678 H         1 UNK         0.0600 
    204 H204        1.8945  -26.4476  -47.5724 H         1 UNK         0.0600 
    205 H205       -1.0874  -24.5018  -49.4749 H         1 UNK         0.3000 
    206 H206        0.1958  -25.2199  -52.0805 H         1 UNK         0.0600 
    207 H207        1.3788  -23.3237  -50.8739 H         1 UNK         0.0600 
    208 H208        0.6712  -22.8451  -52.4076 H         1 UNK         0.0600 
    209 H209       -0.1346  -22.4148  -50.9075 H         1 UNK         0.0600 
    210 H210       -2.6321  -25.3433  -50.6365 H         1 UNK         0.3000 
    211 H211       -4.7789  -25.2330  -51.1214 H         1 UNK         0.0600 
    212 H212       -3.9155  -25.1960  -54.0587 H         1 UNK         0.0600 
    213 H213       -5.4750  -25.7138  -53.4336 H         1 UNK         0.0600 
    214 H214       -4.0343  -26.6411  -53.0557 H         1 UNK         0.0600 
    215 H215       -3.5395  -22.6700  -50.5784 H         1 UNK         0.3000 
    216 H216       -4.5509  -20.6526  -52.3009 H         1 UNK         0.0600 
    217 H217       -2.6851  -20.4051  -50.5723 H         1 UNK         0.0600 
    218 H218       -3.9199  -20.3000  -49.3277 H         1 UNK         0.0600 
    219 H219       -3.8616  -19.0996  -50.5970 H         1 UNK         0.0600 
    220 H220       -6.1182  -22.4279  -49.6568 H         1 UNK         0.3000 
    221 H221       -8.3435  -20.6027  -49.3232 H         1 UNK         0.0600 
    222 H222       -8.0126  -23.5389  -48.5116 H         1 UNK         0.0600 
    223 H223       -7.6334  -22.1339  -47.5125 H         1 UNK         0.0600 
    224 H224       -9.2938  -22.4633  -47.9701 H         1 UNK         0.0600 
    225 H225       -7.5882  -23.1378  -51.5989 H         1 UNK         0.3000 
    226 H226      -10.3557  -23.4282  -52.5909 H         1 UNK         0.0600 
    227 H227       -8.8245  -25.4185  -52.4414 H         1 UNK         0.0600 
    228 H228       -9.3350  -25.1001  -54.0909 H         1 UNK         0.0600 
    229 H229       -7.7187  -24.6439  -53.5761 H         1 UNK         0.0600 
    230 H230       -8.0066  -21.1096  -52.8595 H         1 UNK         0.3000 
    231 H231       -7.4139  -19.4809  -54.2031 H         1 UNK         0.0600 
    232 H232       -8.9829  -18.5379  -55.8339 H         1 UNK         0.0600 
    233 H233       -9.8774  -19.0378  -54.4087 H         1 UNK         0.0600 
    234 H234       -9.9252  -20.0199  -55.8726 H         1 UNK         0.0600 
    235 H235       -6.3875  -22.1379  -54.6411 H         1 UNK         0.3000 
    236 H236       -5.5290  -22.0268  -57.5072 H         1 UNK         0.0600 
    237 H237       -6.9755  -24.0078  -56.9797 H         1 UNK         0.0600 
    238 H238       -5.3252  -24.4923  -57.3374 H         1 UNK         0.0600 
    239 H239       -5.8876  -24.4554  -55.6684 H         1 UNK         0.0600 
    240 H240       -4.4156  -20.4076  -55.5911 H         1 UNK         0.3000 
    241 H241       -2.4874  -21.3030  -53.9137 H         1 UNK         0.0600 
    242 H242       -0.8330  -22.7243  -54.3962 H         1 UNK         0.3800 
    243 H243        0.3885  -22.4288  -55.6223 H         1 UNK         0.3800 
    244 H244       -2.0265  -18.6113  -55.2731 H         1 UNK         0.0800 
    245 H245       -3.5052  -18.8689  -54.4081 H         1 UNK         0.0800 
    246 H246       -0.0381  -17.5245  -53.9672 H         1 UNK         0.0800 
    247 H247        0.4195  -19.2140  -53.9693 H         1 UNK         0.0800 
@<TRIPOS>BOND
     1    1    2 1    
     2    1  127 1    
     3    1  128 1    
     4    1  129 1    
     5    2    3 2    
     6    2    4 am   BACKBONE|DICT|INTERRES
     7    4    5 1    
     8    4  130 1    
     9    5    6 1    
    10    5   65 1    
    11    5  131 1    
    12    6    7 1    
    13    6  132 1    
    14    6  133 1    
    15    7    8 1    
    16    8    9 1    
    17    8  134 1    
    18    8  135 1    
    19    9   10 ar   
    20    9   14 ar   
    21   10   11 ar   
    22   10  136 1    
    23   11   12 ar   
    24   11  126 1    
    25   12   13 ar   
    26   12  137 1    
    27   13   14 ar   
    28   13   15 1    
    29   14  138 1    
    30   15   16 1    
    31   15  139 1    
    32   15  140 1    
    33   16   17 1    
    34   17   18 1    
    35   17  141 1    
    36   17  142 1    
    37   18   19 1    
    38   18   67 1    
    39   18  143 1    
    40   19   20 am   BACKBONE|DICT|INTERRES
    41   19  144 1    
    42   20   21 2    
    43   20   22 1    
    44   22   23 1    
    45   22   24 1    
    46   22  145 1    
    47   23  146 1    
    48   23  147 1    
    49   23  148 1    
    50   24   25 am   BACKBONE|DICT|INTERRES
    51   24  149 1    
    52   25   26 2    
    53   25   27 1    
    54   27   28 1    
    55   27   29 1    
    56   27  150 1    
    57   28  151 1    
    58   28  152 1    
    59   28  153 1    
    60   29   30 am   BACKBONE|DICT|INTERRES
    61   29  154 1    
    62   30   31 2    
    63   30   32 1    
    64   32   33 1    
    65   32   34 1    
    66   32  155 1    
    67   33  156 1    
    68   33  157 1    
    69   33  158 1    
    70   34   35 am   BACKBONE|DICT|INTERRES
    71   34  159 1    
    72   35   36 2    
    73   35   37 1    
    74   37   38 1    
    75   37   39 1    
    76   37  160 1    
    77   38  161 1    
    78   38  162 1    
    79   38  163 1    
    80   39   40 am   BACKBONE|DICT|INTERRES
    81   39  164 1    
    82   40   41 2    
    83   40   42 1    
    84   42   43 1    
    85   42   44 1    
    86   42  165 1    
    87   43  166 1    
    88   43  167 1    
    89   43  168 1    
    90   44   45 am   BACKBONE|DICT|INTERRES
    91   44  169 1    
    92   45   46 2    
    93   45   47 1    
    94   47   48 1    
    95   47   49 1    
    96   47  170 1    
    97   48  171 1    
    98   48  172 1    
    99   48  173 1    
   100   49   50 am   BACKBONE|DICT|INTERRES
   101   49  174 1    
   102   50   51 2    
   103   50   52 1    
   104   52   53 1    
   105   52   54 1    
   106   52  175 1    
   107   53  176 1    
   108   53  177 1    
   109   53  178 1    
   110   54   55 am   BACKBONE|DICT|INTERRES
   111   54  179 1    
   112   55   56 2    
   113   55   57 1    
   114   57   58 1    
   115   57   59 1    
   116   57  180 1    
   117   58  181 1    
   118   58  182 1    
   119   58  183 1    
   120   59   60 am   BACKBONE|DICT|INTERRES
   121   59  184 1    
   122   60   61 2    
   123   60   62 1    
   124   62   63 1    
   125   62   64 1    
   126   62  185 1    
   127   63  186 1    
   128   63  187 1    
   129   63  188 1    
   130   64   65 am   BACKBONE|DICT|INTERRES
   131   64  189 1    
   132   65   66 2    
   133   67   68 2    
   134   67   69 am   BACKBONE|DICT|INTERRES
   135   69   70 1    
   136   69  190 1    
   137   70   71 1    
   138   70   72 1    
   139   70  191 1    
   140   71  192 1    
   141   71  193 1    
   142   71  194 1    
   143   72   73 2    
   144   72   74 am   BACKBONE|DICT|INTERRES
   145   74   75 1    
   146   74  195 1    
   147   75   76 1    
   148   75   77 1    
   149   75  196 1    
   150   76  197 1    
   151   76  198 1    
   152   76  199 1    
   153   77   78 2    
   154   77   79 am   BACKBONE|DICT|INTERRES
   155   79   80 1    
   156   79  200 1    
   157   80   81 1    
   158   80   82 1    
   159   80  201 1    
   160   81  202 1    
   161   81  203 1    
   162   81  204 1    
   163   82   83 2    
   164   82   84 am   BACKBONE|DICT|INTERRES
   165   84   85 1    
   166   84  205 1    
   167   85   86 1    
   168   85   87 1    
   169   85  206 1    
   170   86  207 1    
   171   86  208 1    
   172   86  209 1    
   173   87   88 2    
   174   87   89 am   BACKBONE|DICT|INTERRES
   175   89   90 1    
   176   89  210 1    
   177   90   91 1    
   178   90   92 1    
   179   90  211 1    
   180   91  212 1    
   181   91  213 1    
   182   91  214 1    
   183   92   93 2    
   184   92   94 am   BACKBONE|DICT|INTERRES
   185   94   95 1    
   186   94  215 1    
   187   95   96 1    
   188   95   97 1    
   189   95  216 1    
   190   96  217 1    
   191   96  218 1    
   192   96  219 1    
   193   97   98 2    
   194   97   99 am   BACKBONE|DICT|INTERRES
   195   99  100 1    
   196   99  220 1    
   197  100  101 1    
   198  100  102 1    
   199  100  221 1    
   200  101  222 1    
   201  101  223 1    
   202  101  224 1    
   203  102  103 2    
   204  102  104 am   BACKBONE|DICT|INTERRES
   205  104  105 1    
   206  104  225 1    
   207  105  106 1    
   208  105  107 1    
   209  105  226 1    
   210  106  227 1    
   211  106  228 1    
   212  106  229 1    
   213  107  108 2    
   214  107  109 am   BACKBONE|DICT|INTERRES
   215  109  110 1    
   216  109  230 1    
   217  110  111 1    
   218  110  112 1    
   219  110  231 1    
   220  111  232 1    
   221  111  233 1    
   222  111  234 1    
   223  112  113 2    
   224  112  114 am   BACKBONE|DICT|INTERRES
   225  114  115 1    
   226  114  235 1    
   227  115  116 1    
   228  115  117 1    
   229  115  236 1    
   230  116  237 1    
   231  116  238 1    
   232  116  239 1    
   233  117  118 2    
   234  117  119 am   BACKBONE|DICT|INTERRES
   235  119  120 1    
   236  119  240 1    
   237  120  121 1    
   238  120  124 1    
   239  120  241 1    
   240  121  122 am   BACKBONE|DICT|INTERRES
   241  121  123 2    
   242  122  242 1    
   243  122  243 1    
   244  124  125 1    
   245  124  244 1    
   246  124  245 1    
   247  125  126 1    
   248  126  246 1    
   249  126  247 1    
@<TRIPOS>SUBSTRUCTURE
     1 UNK         1 GROUP             0       ****    0 ROOT    
