@<TRIPOS>MOLECULE
3R540
247   249    1
SMALL
USER_CHARGES


@<TRIPOS>ATOM
      1 CA          4.5477  -14.0651  -47.8416 C.3       0 UNK        -0.1800 
      2 C           3.2055  -13.4689  -47.4418 C.2       0 UNK         0.5000 
      3 O           2.4363  -14.1083  -46.7265 O.2       0 UNK        -0.5000 
      4 N           2.9195  -12.2503  -47.9089 N.am      1 UNK        -0.5000 
      5 CA          1.6768  -11.5274  -47.6320 C.3       1 UNK         0.1400 
      6 C6          1.3531  -10.4784  -48.7296 C.3       23 UNK        -0.0398 
      7 S7          1.4606  -11.1011  -50.4476 S.3       23 UNK        -0.2404 
      8 C8         -0.0828  -12.0494  -50.6465 C.3       23 UNK        -0.0205 
      9 C9          0.2050  -13.5395  -50.7629 C.ar      23 UNK        -0.0193 
     10 C10         0.4898  -14.1115  -52.0083 C.ar      23 UNK        -0.1150 
     11 C11         0.7811  -15.4759  -52.1124 C.ar      23 UNK        -0.0193 
     12 C12         0.8008  -16.2652  -50.9593 C.ar      23 UNK        -0.1150 
     13 C13         0.5068  -15.7073  -49.7127 C.ar      23 UNK        -0.0193 
     14 C14         0.1963  -14.3490  -49.6245 C.ar      23 UNK        -0.1150 
     15 C15         0.5436  -16.5563  -48.4533 C.3       23 UNK        -0.0205 
     16 S16        -1.0241  -17.4407  -48.1847 S.3       23 UNK        -0.2404 
     17 C17        -0.7783  -18.9127  -49.2263 C.3       23 UNK        -0.0398 
     18 CA         -1.0829  -20.2703  -48.5528 C.3       11 UNK         0.1400 
     19 N          -0.2555  -20.5844  -47.3817 N.am      11 UNK        -0.5000 
     20 C          -0.0946  -21.8387  -46.9303 C.2       10 UNK         0.5000 
     21 O          -0.6061  -22.8213  -47.4691 O.2       10 UNK        -0.5000 
     22 CA          0.7330  -22.0412  -45.6491 C.3       10 UNK         0.1400 
     23 CB          2.2389  -21.9428  -45.9352 C.3       10 UNK        -0.1800 
     24 N           0.3594  -21.1195  -44.5772 N.am      10 UNK        -0.5000 
     25 C          -0.8335  -21.1178  -43.9652 C.2       9 UNK         0.5000 
     26 O          -1.7462  -21.8947  -44.2469 O.2       9 UNK        -0.5000 
     27 CA         -1.0573  -20.0537  -42.8745 C.3       9 UNK         0.1400 
     28 CB         -0.4487  -20.5060  -41.5391 C.3       9 UNK        -0.1800 
     29 N          -0.5129  -18.7476  -43.2416 N.am      9 UNK        -0.5000 
     30 C          -0.9526  -18.0083  -44.2696 C.2       8 UNK         0.5000 
     31 O          -1.9142  -18.3206  -44.9709 O.2       8 UNK        -0.5000 
     32 CA         -0.1463  -16.7393  -44.6016 C.3       8 UNK         0.1400 
     33 CB         -0.5271  -15.5803  -43.6697 C.3       8 UNK        -0.1800 
     34 N           1.3000  -16.9625  -44.5565 N.am      8 UNK        -0.5000 
     35 C           1.9678  -17.8592  -45.2980 C.2       7 UNK         0.5000 
     36 O           1.4423  -18.5874  -46.1384 O.2       7 UNK        -0.5000 
     37 CA          3.4683  -18.0182  -45.0083 C.3       7 UNK         0.1400 
     38 CB          4.2922  -16.9478  -45.7355 C.3       7 UNK        -0.1800 
     39 N           3.7429  -17.9697  -43.5741 N.am      7 UNK        -0.5000 
     40 C           3.4480  -18.9598  -42.7207 C.2       6 UNK         0.5000 
     41 O           2.9627  -20.0378  -43.0653 O.2       6 UNK        -0.5000 
     42 CA          3.7052  -18.6810  -41.2282 C.3       6 UNK         0.1400 
     43 CB          5.1760  -18.9437  -40.8719 C.3       6 UNK        -0.1800 
     44 N           3.3471  -17.3149  -40.8402 N.am      6 UNK        -0.5000 
     45 C           2.0926  -16.8439  -40.8238 C.2       5 UNK         0.5000 
     46 O           1.1064  -17.5241  -41.1069 O.2       5 UNK        -0.5000 
     47 CA          1.9083  -15.3572  -40.4633 C.3       5 UNK         0.1400 
     48 CB          1.7978  -15.1842  -38.9414 C.3       5 UNK        -0.1800 
     49 N           2.9518  -14.4622  -40.9730 N.am      5 UNK        -0.5000 
     50 C           3.3283  -14.3327  -42.2520 C.2       4 UNK         0.5000 
     51 O           2.9051  -15.0481  -43.1593 O.2       4 UNK        -0.5000 
     52 CA          4.3238  -13.1941  -42.5583 C.3       4 UNK         0.1400 
     53 CB          4.9543  -13.3200  -43.9546 C.3       4 UNK        -0.1800 
     54 N           3.6742  -11.8874  -42.4550 N.am      4 UNK        -0.5000 
     55 C           3.3464  -11.2787  -41.3080 C.2       3 UNK         0.5000 
     56 O           3.6321  -11.7321  -40.1979 O.2       3 UNK        -0.5000 
     57 CA          2.5730   -9.9484  -41.3951 C.3       3 UNK         0.1400 
     58 CB          3.4978   -8.7694  -41.0536 C.3       3 UNK        -0.1800 
     59 N           1.9308   -9.6787  -42.6847 N.am      3 UNK        -0.5000 
     60 C           0.9125  -10.3654  -43.2216 C.2       2 UNK         0.5000 
     61 O           0.4530  -11.4000  -42.7370 O.2       2 UNK        -0.5000 
     62 CA          0.2635   -9.7779  -44.4937 C.3       2 UNK         0.1400 
     63 CB          0.6094   -8.2919  -44.7467 C.3       2 UNK        -0.1800 
     64 N           0.5236  -10.5684  -45.7004 N.am      2 UNK        -0.5000 
     65 C           1.7164  -10.8614  -46.2384 C.2       1 UNK         0.5000 
     66 O           2.7975  -10.5770  -45.7144 O.2       1 UNK        -0.5000 
     67 C          -2.5855  -20.4809  -48.2887 C.2       11 UNK         0.5000 
     68 O          -3.2848  -20.9083  -49.2038 O.2       11 UNK        -0.5000 
     69 N          -3.0545  -20.2526  -47.0517 N.am      12 UNK        -0.5000 
     70 CA         -4.4210  -20.5741  -46.6312 C.3       12 UNK         0.1400 
     71 CB         -4.6979  -19.9937  -45.2371 C.3       12 UNK        -0.1800 
     72 C          -4.7038  -22.0879  -46.6632 C.2       12 UNK         0.5000 
     73 O          -5.7517  -22.4991  -47.1619 O.2       12 UNK        -0.5000 
     74 N          -3.7473  -22.8938  -46.1808 N.am      13 UNK        -0.5000 
     75 CA         -3.8005  -24.3560  -46.2276 C.3       13 UNK         0.1400 
     76 CB         -2.6568  -24.9403  -45.3851 C.3       13 UNK        -0.1800 
     77 C          -3.7657  -24.9137  -47.6637 C.2       13 UNK         0.5000 
     78 O          -4.4534  -25.8937  -47.9462 O.2       13 UNK        -0.5000 
     79 N          -2.9871  -24.2737  -48.5466 N.am      14 UNK        -0.5000 
     80 CA         -2.9105  -24.6075  -49.9695 C.3       14 UNK         0.1400 
     81 CB         -1.6099  -24.0379  -50.5497 C.3       14 UNK        -0.1800 
     82 C          -4.1385  -24.1294  -50.7712 C.2       14 UNK         0.5000 
     83 O          -4.4778  -24.7464  -51.7815 O.2       14 UNK        -0.5000 
     84 N          -4.7901  -23.0474  -50.3239 N.am      15 UNK        -0.5000 
     85 CA         -6.0462  -22.5486  -50.8816 C.3       15 UNK         0.1400 
     86 CB         -6.3309  -21.1287  -50.3655 C.3       15 UNK        -0.1800 
     87 C          -7.2253  -23.4767  -50.5489 C.2       15 UNK         0.5000 
     88 O          -8.0378  -23.7584  -51.4296 O.2       15 UNK        -0.5000 
     89 N          -7.2898  -23.9328  -49.2897 N.am      16 UNK        -0.5000 
     90 CA         -8.3229  -24.8162  -48.7505 C.3       16 UNK         0.1400 
     91 CB         -8.0474  -25.0630  -47.2586 C.3       16 UNK        -0.1800 
     92 C          -8.4227  -26.1437  -49.5256 C.2       16 UNK         0.5000 
     93 O          -7.4963  -26.9548  -49.4743 O.2       16 UNK        -0.5000 
     94 N          -9.5358  -26.3145  -50.2521 N.am      17 UNK        -0.5000 
     95 CA         -9.9242  -27.4415  -51.1120 C.3       17 UNK         0.1400 
     96 CB        -10.0398  -28.7489  -50.3051 C.3       17 UNK        -0.1800 
     97 C          -9.0493  -27.6403  -52.3674 C.2       17 UNK         0.5000 
     98 O          -9.5947  -27.8671  -53.4481 O.2       17 UNK        -0.5000 
     99 N          -7.7226  -27.5634  -52.2142 N.am      18 UNK        -0.5000 
    100 CA        -6.7387  -27.7694  -53.2766 C.3       18 UNK         0.1400 
    101 CB        -5.3650  -28.0408  -52.6445 C.3       18 UNK        -0.1800 
    102 C         -6.6648  -26.6100  -54.2883 C.2       18 UNK         0.5000 
    103 O         -6.3223  -26.8565  -55.4456 O.2       18 UNK        -0.5000 
    104 N         -6.9930  -25.3843  -53.8462 N.am      19 UNK        -0.5000 
    105 CA        -7.0173  -24.1393  -54.6268 C.3       19 UNK         0.1400 
    106 CB        -8.1893  -24.1621  -55.6297 C.3       19 UNK        -0.1800 
    107 C         -5.6631  -23.7980  -55.2895 C.2       19 UNK         0.5000 
    108 O         -5.6327  -23.2982  -56.4155 O.2       19 UNK        -0.5000 
    109 N         -4.5657  -24.0817  -54.5782 N.am      20 UNK        -0.5000 
    110 CA        -3.1881  -23.9783  -55.0601 C.3       20 UNK         0.1400 
    111 CB        -2.5651  -25.3863  -55.0370 C.3       20 UNK        -0.1800 
    112 C         -2.3826  -22.9717  -54.2182 C.2       20 UNK         0.5000 
    113 O         -1.1866  -23.1762  -54.0060 O.2       20 UNK        -0.5000 
    114 N         -3.0583  -21.9109  -53.7489 N.am      21 UNK        -0.5000 
    115 CA        -2.6027  -20.9151  -52.7693 C.3       21 UNK         0.1400 
    116 CB        -3.6033  -19.7491  -52.7467 C.3       21 UNK        -0.1800 
    117 C         -1.1741  -20.3773  -52.9778 C.2       21 UNK         0.5000 
    118 O         -0.3962  -20.3336  -52.0254 O.2       21 UNK        -0.5000 
    119 N         -0.8608  -20.0046  -54.2225 N.am      22 UNK        -0.5000 
    120 CA         0.4497  -19.4846  -54.6470 C.3       22 UNK         0.1400 
    121 C          1.2409  -20.4969  -55.5276 C.2       22 UNK         0.5000 
    122 N          0.8860  -21.7766  -55.5555 N.am      22 UNK        -0.7600 
    123 O          2.2067  -20.1253  -56.1890 O.2       22 UNK        -0.5000 
    124 C124        0.3217  -18.0866  -55.3128 C.3       23 UNK        -0.0398 
    125 S125       -0.4116  -16.8473  -54.1879 S.3       23 UNK        -0.2404 
    126 C126        1.0845  -16.1079  -53.4616 C.3       23 UNK        -0.0205 
    127 H127        5.1527  -14.2599  -46.9565 H         1 UNK         0.0600 
    128 H128        4.3954  -15.0069  -48.3686 H         1 UNK         0.0600 
    129 H129        5.1086  -13.3975  -48.4961 H         1 UNK         0.0600 
    130 H130        3.5939  -11.7585  -48.4764 H         1 UNK         0.3000 
    131 H131        0.8597  -12.2475  -47.6132 H         1 UNK         0.0600 
    132 H132        0.3587  -10.0557  -48.5764 H         1 UNK         0.0800 
    133 H133        2.0457   -9.6375  -48.6568 H         1 UNK         0.0800 
    134 H134       -0.7633  -11.8566  -49.8160 H         1 UNK         0.0800 
    135 H135       -0.5960  -11.7028  -51.5448 H         1 UNK         0.0800 
    136 H136        0.4889  -13.4934  -52.8952 H         1 UNK         0.1150 
    137 H137        1.0383  -17.3163  -51.0382 H         1 UNK         0.1150 
    138 H138       -0.0404  -13.9254  -48.6610 H         1 UNK         0.1150 
    139 H139        1.3795  -17.2557  -48.4921 H         1 UNK         0.0800 
    140 H140        0.7341  -15.9208  -47.5889 H         1 UNK         0.0800 
    141 H141        0.2494  -18.9388  -49.5870 H         1 UNK         0.0800 
    142 H142       -1.3940  -18.7873  -50.1182 H         1 UNK         0.0800 
    143 H143       -0.8219  -21.0142  -49.3086 H         1 UNK         0.0600 
    144 H144        0.2023  -19.8098  -46.9053 H         1 UNK         0.3000 
    145 H145        0.5333  -23.0530  -45.2897 H         1 UNK         0.0600 
    146 H146        2.8249  -22.1320  -45.0356 H         1 UNK         0.0600 
    147 H147        2.5401  -22.6799  -46.6806 H         1 UNK         0.0600 
    148 H148        2.5192  -20.9621  -46.3171 H         1 UNK         0.0600 
    149 H149        1.0605  -20.4500  -44.2866 H         1 UNK         0.3000 
    150 H150       -2.1345  -19.9410  -42.7362 H         1 UNK         0.0600 
    151 H151       -0.8473  -21.4749  -41.2357 H         1 UNK         0.0600 
    152 H152       -0.6757  -19.7965  -40.7431 H         1 UNK         0.0600 
    153 H153        0.6360  -20.6005  -41.6018 H         1 UNK         0.0600 
    154 H154        0.2488  -18.3917  -42.6721 H         1 UNK         0.3000 
    155 H155       -0.3994  -16.4355  -45.6151 H         1 UNK         0.0600 
    156 H156       -1.5797  -15.3207  -43.7868 H         1 UNK         0.0600 
    157 H157        0.0566  -14.6854  -43.8891 H         1 UNK         0.0600 
    158 H158       -0.3710  -15.8372  -42.6235 H         1 UNK         0.0600 
    159 H159        1.8358  -16.3599  -43.9362 H         1 UNK         0.3000 
    160 H160        3.7813  -18.9936  -45.3866 H         1 UNK         0.0600 
    161 H161        5.3604  -17.0896  -45.5719 H         1 UNK         0.0600 
    162 H162        4.0309  -15.9441  -45.4018 H         1 UNK         0.0600 
    163 H163        4.1168  -16.9904  -46.8109 H         1 UNK         0.0600 
    164 H164        4.0552  -17.0833  -43.2038 H         1 UNK         0.3000 
    165 H165        3.0864  -19.3715  -40.6509 H         1 UNK         0.0600 
    166 H166        5.3496  -18.8249  -39.8022 H         1 UNK         0.0600 
    167 H167        5.4650  -19.9618  -41.1360 H         1 UNK         0.0600 
    168 H168        5.8472  -18.2645  -41.3991 H         1 UNK         0.0600 
    169 H169        4.1013  -16.6900  -40.5963 H         1 UNK         0.3000 
    170 H170        0.9668  -15.0286  -40.9052 H         1 UNK         0.0600 
    171 H171        1.0091  -15.8168  -38.5316 H         1 UNK         0.0600 
    172 H172        2.7281  -15.4500  -38.4379 H         1 UNK         0.0600 
    173 H173        1.5561  -14.1542  -38.6781 H         1 UNK         0.0600 
    174 H174        3.3135  -13.7771  -40.3186 H         1 UNK         0.3000 
    175 H175        5.1302  -13.2512  -41.8242 H         1 UNK         0.0600 
    176 H176        5.7066  -12.5487  -44.1197 H         1 UNK         0.0600 
    177 H177        5.4443  -14.2861  -44.0804 H         1 UNK         0.0600 
    178 H178        4.2023  -13.2245  -44.7368 H         1 UNK         0.0600 
    179 H179        3.3755  -11.4614  -43.3223 H         1 UNK         0.3000 
    180 H180        1.7857   -9.9913  -40.6398 H         1 UNK         0.0600 
    181 H181        4.2935   -8.6572  -41.7911 H         1 UNK         0.0600 
    182 H182        3.9701   -8.9096  -40.0802 H         1 UNK         0.0600 
    183 H183        2.9437   -7.8315  -41.0102 H         1 UNK         0.0600 
    184 H184        2.2560   -8.8604  -43.1788 H         1 UNK         0.3000 
    185 H185       -0.8131   -9.8297  -44.3246 H         1 UNK         0.0600 
    186 H186        0.0298   -7.8966  -45.5811 H         1 UNK         0.0600 
    187 H187        0.3724   -7.6779  -43.8767 H         1 UNK         0.0600 
    188 H188        1.6636   -8.1442  -44.9830 H         1 UNK         0.0600 
    189 H189       -0.3066  -10.8841  -46.1818 H         1 UNK         0.3000 
    190 H190       -2.4415  -19.8460  -46.3534 H         1 UNK         0.3000 
    191 H191       -5.1064  -20.0963  -47.3342 H         1 UNK         0.0600 
    192 H192       -4.0126  -20.3921  -44.4891 H         1 UNK         0.0600 
    193 H193       -5.7123  -20.2270  -44.9113 H         1 UNK         0.0600 
    194 H194       -4.5991  -18.9082  -45.2372 H         1 UNK         0.0600 
    195 H195       -2.9305  -22.4814  -45.7399 H         1 UNK         0.3000 
    196 H196       -4.7450  -24.6682  -45.7771 H         1 UNK         0.0600 
    197 H197       -1.6805  -24.6395  -45.7656 H         1 UNK         0.0600 
    198 H198       -2.6885  -26.0305  -45.3855 H         1 UNK         0.0600 
    199 H199       -2.7255  -24.6130  -44.3475 H         1 UNK         0.0600 
    200 H200       -2.3887  -23.5245  -48.2150 H         1 UNK         0.3000 
    201 H201       -2.8673  -25.6945  -50.0654 H         1 UNK         0.0600 
    202 H202       -1.5753  -22.9522  -50.4763 H         1 UNK         0.0600 
    203 H203       -1.5022  -24.3064  -51.6003 H         1 UNK         0.0600 
    204 H204       -0.7398  -24.4325  -50.0249 H         1 UNK         0.0600 
    205 H205       -4.3933  -22.5190  -49.5544 H         1 UNK         0.3000 
    206 H206       -5.9404  -22.4997  -51.9668 H         1 UNK         0.0600 
    207 H207       -5.5016  -20.4525  -50.5626 H         1 UNK         0.0600 
    208 H208       -7.2134  -20.7103  -50.8508 H         1 UNK         0.0600 
    209 H209       -6.5138  -21.1149  -49.2915 H         1 UNK         0.0600 
    210 H210       -6.5847  -23.6183  -48.6310 H         1 UNK         0.3000 
    211 H211       -9.2760  -24.2897  -48.8299 H         1 UNK         0.0600 
    212 H212       -7.0774  -25.5357  -47.1016 H         1 UNK         0.0600 
    213 H213       -8.8056  -25.7151  -46.8234 H         1 UNK         0.0600 
    214 H214       -8.0582  -24.1295  -46.6956 H         1 UNK         0.0600 
    215 H215      -10.1931  -25.5468  -50.2626 H         1 UNK         0.3000 
    216 H216      -10.9247  -27.1968  -51.4722 H         1 UNK         0.0600 
    217 H217      -10.7187  -28.6322  -49.4604 H         1 UNK         0.0600 
    218 H218      -10.4307  -29.5552  -50.9270 H         1 UNK         0.0600 
    219 H219       -9.0752  -29.0778  -49.9176 H         1 UNK         0.0600 
    220 H220       -7.3703  -27.3786  -51.2778 H         1 UNK         0.3000 
    221 H221       -7.0277  -28.6617  -53.8360 H         1 UNK         0.0600 
    222 H222       -5.0701  -27.2438  -51.9633 H         1 UNK         0.0600 
    223 H223       -5.3727  -28.9724  -52.0786 H         1 UNK         0.0600 
    224 H224       -4.5890  -28.1290  -53.4062 H         1 UNK         0.0600 
    225 H225       -7.2593  -25.2855  -52.8744 H         1 UNK         0.3000 
    226 H226       -7.2135  -23.3333  -53.9203 H         1 UNK         0.0600 
    227 H227       -9.1316  -24.3808  -55.1272 H         1 UNK         0.0600 
    228 H228       -8.3031  -23.1962  -56.1231 H         1 UNK         0.0600 
    229 H229       -8.0421  -24.9123  -56.4072 H         1 UNK         0.0600 
    230 H230       -4.6712  -24.4476  -53.6335 H         1 UNK         0.3000 
    231 H231       -3.1627  -23.6146  -56.0889 H         1 UNK         0.0600 
    232 H232       -3.1526  -26.0851  -55.6331 H         1 UNK         0.0600 
    233 H233       -2.5078  -25.7809  -54.0215 H         1 UNK         0.0600 
    234 H234       -1.5551  -25.3799  -55.4485 H         1 UNK         0.0600 
    235 H235       -4.0281  -21.8430  -54.0183 H         1 UNK         0.3000 
    236 H236       -2.6347  -21.4003  -51.7942 H         1 UNK         0.0600 
    237 H237       -3.3915  -19.0719  -51.9181 H         1 UNK         0.0600 
    238 H238       -3.5647  -19.1651  -53.6672 H         1 UNK         0.0600 
    239 H239       -4.6261  -20.1027  -52.6280 H         1 UNK         0.0600 
    240 H240       -1.5528  -20.1111  -54.9494 H         1 UNK         0.3000 
    241 H241        1.0845  -19.3514  -53.7694 H         1 UNK         0.0600 
    242 H242        0.1371  -22.1295  -54.9666 H         1 UNK         0.3800 
    243 H243        1.4124  -22.4201  -56.1246 H         1 UNK         0.3800 
    244 H244        1.2933  -17.7195  -55.6479 H         1 UNK         0.0800 
    245 H245       -0.3010  -18.1504  -56.2063 H         1 UNK         0.0800 
    246 H246        1.4950  -15.3677  -54.1501 H         1 UNK         0.0800 
    247 H247        1.8527  -16.8727  -53.3362 H         1 UNK         0.0800 
@<TRIPOS>BOND
     1    1    2 1    
     2    1  127 1    
     3    1  128 1    
     4    1  129 1    
     5    2    3 2    
     6    2    4 am   BACKBONE|DICT|INTERRES
     7    4    5 1    
     8    4  130 1    
     9    5    6 1    
    10    5   65 1    
    11    5  131 1    
    12    6    7 1    
    13    6  132 1    
    14    6  133 1    
    15    7    8 1    
    16    8    9 1    
    17    8  134 1    
    18    8  135 1    
    19    9   10 ar   
    20    9   14 ar   
    21   10   11 ar   
    22   10  136 1    
    23   11   12 ar   
    24   11  126 1    
    25   12   13 ar   
    26   12  137 1    
    27   13   14 ar   
    28   13   15 1    
    29   14  138 1    
    30   15   16 1    
    31   15  139 1    
    32   15  140 1    
    33   16   17 1    
    34   17   18 1    
    35   17  141 1    
    36   17  142 1    
    37   18   19 1    
    38   18   67 1    
    39   18  143 1    
    40   19   20 am   BACKBONE|DICT|INTERRES
    41   19  144 1    
    42   20   21 2    
    43   20   22 1    
    44   22   23 1    
    45   22   24 1    
    46   22  145 1    
    47   23  146 1    
    48   23  147 1    
    49   23  148 1    
    50   24   25 am   BACKBONE|DICT|INTERRES
    51   24  149 1    
    52   25   26 2    
    53   25   27 1    
    54   27   28 1    
    55   27   29 1    
    56   27  150 1    
    57   28  151 1    
    58   28  152 1    
    59   28  153 1    
    60   29   30 am   BACKBONE|DICT|INTERRES
    61   29  154 1    
    62   30   31 2    
    63   30   32 1    
    64   32   33 1    
    65   32   34 1    
    66   32  155 1    
    67   33  156 1    
    68   33  157 1    
    69   33  158 1    
    70   34   35 am   BACKBONE|DICT|INTERRES
    71   34  159 1    
    72   35   36 2    
    73   35   37 1    
    74   37   38 1    
    75   37   39 1    
    76   37  160 1    
    77   38  161 1    
    78   38  162 1    
    79   38  163 1    
    80   39   40 am   BACKBONE|DICT|INTERRES
    81   39  164 1    
    82   40   41 2    
    83   40   42 1    
    84   42   43 1    
    85   42   44 1    
    86   42  165 1    
    87   43  166 1    
    88   43  167 1    
    89   43  168 1    
    90   44   45 am   BACKBONE|DICT|INTERRES
    91   44  169 1    
    92   45   46 2    
    93   45   47 1    
    94   47   48 1    
    95   47   49 1    
    96   47  170 1    
    97   48  171 1    
    98   48  172 1    
    99   48  173 1    
   100   49   50 am   BACKBONE|DICT|INTERRES
   101   49  174 1    
   102   50   51 2    
   103   50   52 1    
   104   52   53 1    
   105   52   54 1    
   106   52  175 1    
   107   53  176 1    
   108   53  177 1    
   109   53  178 1    
   110   54   55 am   BACKBONE|DICT|INTERRES
   111   54  179 1    
   112   55   56 2    
   113   55   57 1    
   114   57   58 1    
   115   57   59 1    
   116   57  180 1    
   117   58  181 1    
   118   58  182 1    
   119   58  183 1    
   120   59   60 am   BACKBONE|DICT|INTERRES
   121   59  184 1    
   122   60   61 2    
   123   60   62 1    
   124   62   63 1    
   125   62   64 1    
   126   62  185 1    
   127   63  186 1    
   128   63  187 1    
   129   63  188 1    
   130   64   65 am   BACKBONE|DICT|INTERRES
   131   64  189 1    
   132   65   66 2    
   133   67   68 2    
   134   67   69 am   BACKBONE|DICT|INTERRES
   135   69   70 1    
   136   69  190 1    
   137   70   71 1    
   138   70   72 1    
   139   70  191 1    
   140   71  192 1    
   141   71  193 1    
   142   71  194 1    
   143   72   73 2    
   144   72   74 am   BACKBONE|DICT|INTERRES
   145   74   75 1    
   146   74  195 1    
   147   75   76 1    
   148   75   77 1    
   149   75  196 1    
   150   76  197 1    
   151   76  198 1    
   152   76  199 1    
   153   77   78 2    
   154   77   79 am   BACKBONE|DICT|INTERRES
   155   79   80 1    
   156   79  200 1    
   157   80   81 1    
   158   80   82 1    
   159   80  201 1    
   160   81  202 1    
   161   81  203 1    
   162   81  204 1    
   163   82   83 2    
   164   82   84 am   BACKBONE|DICT|INTERRES
   165   84   85 1    
   166   84  205 1    
   167   85   86 1    
   168   85   87 1    
   169   85  206 1    
   170   86  207 1    
   171   86  208 1    
   172   86  209 1    
   173   87   88 2    
   174   87   89 am   BACKBONE|DICT|INTERRES
   175   89   90 1    
   176   89  210 1    
   177   90   91 1    
   178   90   92 1    
   179   90  211 1    
   180   91  212 1    
   181   91  213 1    
   182   91  214 1    
   183   92   93 2    
   184   92   94 am   BACKBONE|DICT|INTERRES
   185   94   95 1    
   186   94  215 1    
   187   95   96 1    
   188   95   97 1    
   189   95  216 1    
   190   96  217 1    
   191   96  218 1    
   192   96  219 1    
   193   97   98 2    
   194   97   99 am   BACKBONE|DICT|INTERRES
   195   99  100 1    
   196   99  220 1    
   197  100  101 1    
   198  100  102 1    
   199  100  221 1    
   200  101  222 1    
   201  101  223 1    
   202  101  224 1    
   203  102  103 2    
   204  102  104 am   BACKBONE|DICT|INTERRES
   205  104  105 1    
   206  104  225 1    
   207  105  106 1    
   208  105  107 1    
   209  105  226 1    
   210  106  227 1    
   211  106  228 1    
   212  106  229 1    
   213  107  108 2    
   214  107  109 am   BACKBONE|DICT|INTERRES
   215  109  110 1    
   216  109  230 1    
   217  110  111 1    
   218  110  112 1    
   219  110  231 1    
   220  111  232 1    
   221  111  233 1    
   222  111  234 1    
   223  112  113 2    
   224  112  114 am   BACKBONE|DICT|INTERRES
   225  114  115 1    
   226  114  235 1    
   227  115  116 1    
   228  115  117 1    
   229  115  236 1    
   230  116  237 1    
   231  116  238 1    
   232  116  239 1    
   233  117  118 2    
   234  117  119 am   BACKBONE|DICT|INTERRES
   235  119  120 1    
   236  119  240 1    
   237  120  121 1    
   238  120  124 1    
   239  120  241 1    
   240  121  122 am   BACKBONE|DICT|INTERRES
   241  121  123 2    
   242  122  242 1    
   243  122  243 1    
   244  124  125 1    
   245  124  244 1    
   246  124  245 1    
   247  125  126 1    
   248  126  246 1    
   249  126  247 1    
@<TRIPOS>SUBSTRUCTURE
     1 UNK         1 GROUP             0       ****    0 ROOT    
