@<TRIPOS>MOLECULE
3R540
247   249    1
SMALL
USER_CHARGES


@<TRIPOS>ATOM
      1 CA          0.4174  -10.0143  -48.1523 C.3       0 UNK        -0.1800 
      2 C           0.3361  -11.4883  -47.7834 C.2       0 UNK         0.5000 
      3 O           0.8010  -11.8771  -46.7119 O.2       0 UNK        -0.5000 
      4 N          -0.2674  -12.3012  -48.6621 N.am      1 UNK        -0.5000 
      5 CA         -0.4184  -13.7573  -48.5318 C.3       1 UNK         0.1400 
      6 C6         -1.0742  -14.3579  -49.8027 C.3       23 UNK        -0.0398 
      7 S7         -0.9309  -16.1723  -49.9432 S.3       23 UNK        -0.2404 
      8 C8          0.7211  -16.3240  -50.6861 C.3       23 UNK        -0.0205 
      9 C9          1.0197  -17.7603  -51.0808 C.ar      23 UNK        -0.0193 
     10 C10         0.7861  -18.1991  -52.3864 C.ar      23 UNK        -0.1150 
     11 C11         1.1024  -19.5069  -52.7622 C.ar      23 UNK        -0.0193 
     12 C12         1.6480  -20.3793  -51.8161 C.ar      23 UNK        -0.1150 
     13 C13         1.8701  -19.9634  -50.4992 C.ar      23 UNK        -0.0193 
     14 C14         1.5593  -18.6443  -50.1442 C.ar      23 UNK        -0.1150 
     15 C15         2.4976  -20.9475  -49.5113 C.3       23 UNK        -0.0205 
     16 S16         2.1672  -20.6010  -47.7494 S.3       23 UNK        -0.2404 
     17 C17         0.4255  -21.1194  -47.5797 C.3       23 UNK        -0.0398 
     18 CA          0.3097  -22.4846  -46.8642 C.3       11 UNK         0.1400 
     19 N           0.8204  -22.4572  -45.4919 N.am      11 UNK        -0.5000 
     20 C           1.0387  -23.5447  -44.7414 C.2       10 UNK         0.5000 
     21 O           0.8687  -24.6960  -45.1427 O.2       10 UNK        -0.5000 
     22 CA          1.4734  -23.3044  -43.2855 C.3       10 UNK         0.1400 
     23 CB          2.9779  -23.0064  -43.1970 C.3       10 UNK        -0.1800 
     24 N           0.7166  -22.2205  -42.6587 N.am      10 UNK        -0.5000 
     25 C          -0.5838  -22.2945  -42.3428 C.2       9 UNK         0.5000 
     26 O          -1.2747  -23.2980  -42.5238 O.2       9 UNK        -0.5000 
     27 CA         -1.2275  -21.0230  -41.7571 C.3       9 UNK         0.1400 
     28 CB         -0.9079  -20.8937  -40.2604 C.3       9 UNK        -0.1800 
     29 N          -0.8137  -19.7993  -42.4445 N.am      9 UNK        -0.5000 
     30 C          -1.0500  -19.5343  -43.7374 C.2       8 UNK         0.5000 
     31 O          -1.6700  -20.2822  -44.4890 O.2       8 UNK        -0.5000 
     32 CA         -0.4497  -18.2377  -44.3022 C.3       8 UNK         0.1400 
     33 CB         -1.3336  -17.0410  -43.9185 C.3       8 UNK        -0.1800 
     34 N           0.9268  -18.0055  -43.8619 N.am      8 UNK        -0.5000 
     35 C           1.9521  -18.8571  -44.0134 C.2       7 UNK         0.5000 
     36 O           1.8485  -19.9740  -44.5153 O.2       7 UNK        -0.5000 
     37 CA          3.3128  -18.4055  -43.4637 C.3       7 UNK         0.1400 
     38 CB          4.0118  -17.4477  -44.4411 C.3       7 UNK        -0.1800 
     39 N           3.1573  -17.7633  -42.1608 N.am      7 UNK        -0.5000 
     40 C           2.9878  -18.4305  -41.0111 C.2       6 UNK         0.5000 
     41 O           3.0365  -19.6576  -40.9176 O.2       6 UNK        -0.5000 
     42 CA          2.6858  -17.5851  -39.7590 C.3       6 UNK         0.1400 
     43 CB          3.9893  -17.1146  -39.0964 C.3       6 UNK        -0.1800 
     44 N           1.8404  -16.4227  -40.0409 N.am      6 UNK        -0.5000 
     45 C           0.5618  -16.4954  -40.4357 C.2       5 UNK         0.5000 
     46 O          -0.0466  -17.5550  -40.5923 O.2       5 UNK        -0.5000 
     47 CA         -0.1476  -15.1608  -40.7385 C.3       5 UNK         0.1400 
     48 CB         -0.7285  -14.5595  -39.4504 C.3       5 UNK        -0.1800 
     49 N           0.6696  -14.1456  -41.4135 N.am      5 UNK        -0.5000 
     50 C           1.3925  -14.3097  -42.5298 C.2       4 UNK         0.5000 
     51 O           1.5956  -15.4029  -43.0552 O.2       4 UNK        -0.5000 
     52 CA          1.9407  -13.0272  -43.1868 C.3       4 UNK         0.1400 
     53 CB          2.9380  -13.3275  -44.3202 C.3       4 UNK        -0.1800 
     54 N           0.8457  -12.2255  -43.7301 N.am      4 UNK        -0.5000 
     55 C           0.0120  -11.4639  -43.0100 C.2       3 UNK         0.5000 
     56 O           0.1336  -11.2768  -41.7980 O.2       3 UNK        -0.5000 
     57 CA         -1.1768  -10.8415  -43.7606 C.3       3 UNK         0.1400 
     58 CB         -0.7663   -9.5188  -44.4251 C.3       3 UNK        -0.1800 
     59 N          -1.7403  -11.7449  -44.7669 N.am      3 UNK        -0.5000 
     60 C          -2.4560  -12.8454  -44.4895 C.2       2 UNK         0.5000 
     61 O          -2.7023  -13.2273  -43.3452 O.2       2 UNK        -0.5000 
     62 CA         -3.0144  -13.6426  -45.6841 C.3       2 UNK         0.1400 
     63 CB         -4.4739  -13.2444  -45.9530 C.3       2 UNK        -0.1800 
     64 N          -2.2380  -13.4436  -46.9094 N.am      2 UNK        -0.5000 
     65 C          -1.1617  -14.1701  -47.2420 C.2       1 UNK         0.5000 
     66 O          -0.7291  -15.1018  -46.5659 O.2       1 UNK        -0.5000 
     67 C          -1.1269  -23.0381  -46.9187 C.2       11 UNK         0.5000 
     68 O          -1.4060  -23.8763  -47.7725 O.2       11 UNK        -0.5000 
     69 N          -1.9936  -22.6301  -45.9800 N.am      12 UNK        -0.5000 
     70 CA         -3.3610  -23.1347  -45.8398 C.3       12 UNK         0.1400 
     71 CB         -4.1119  -22.3322  -44.7672 C.3       12 UNK        -0.1800 
     72 C          -3.4143  -24.6406  -45.5277 C.2       12 UNK         0.5000 
     73 O          -4.2408  -25.3448  -46.1073 O.2       12 UNK        -0.5000 
     74 N          -2.5012  -25.1211  -44.6704 N.am      13 UNK        -0.5000 
     75 CA         -2.3211  -26.5443  -44.3674 C.3       13 UNK         0.1400 
     76 CB         -1.3573  -26.6993  -43.1815 C.3       13 UNK        -0.1800 
     77 C          -1.8372  -27.3635  -45.5824 C.2       13 UNK         0.5000 
     78 O          -2.2245  -28.5234  -45.7262 O.2       13 UNK        -0.5000 
     79 N          -1.0361  -26.7347  -46.4528 N.am      14 UNK        -0.5000 
     80 CA         -0.5822  -27.2794  -47.7349 C.3       14 UNK         0.1400 
     81 CB          0.7472  -26.6038  -48.1118 C.3       14 UNK        -0.1800 
     82 C          -1.6187  -27.1228  -48.8715 C.2       14 UNK         0.5000 
     83 O          -1.3712  -27.6144  -49.9734 O.2       14 UNK        -0.5000 
     84 N          -2.7441  -26.4462  -48.5938 N.am      15 UNK        -0.5000 
     85 CA         -3.8384  -26.0978  -49.5052 C.3       15 UNK         0.1400 
     86 CB         -4.5700  -27.3636  -49.9995 C.3       15 UNK        -0.1800 
     87 C          -3.4000  -25.1560  -50.6483 C.2       15 UNK         0.5000 
     88 O          -3.8183  -25.3375  -51.7929 O.2       15 UNK        -0.5000 
     89 N          -2.5684  -24.1636  -50.3128 N.am      16 UNK        -0.5000 
     90 CA         -2.0631  -23.1270  -51.2072 C.3       16 UNK         0.1400 
     91 CB         -0.5348  -23.2579  -51.2714 C.3       16 UNK        -0.1800 
     92 C          -2.4685  -21.7397  -50.6774 C.2       16 UNK         0.5000 
     93 O          -2.5871  -21.5550  -49.4650 O.2       16 UNK        -0.5000 
     94 N          -2.6566  -20.7858  -51.5940 N.am      17 UNK        -0.5000 
     95 CA         -3.0429  -19.3986  -51.3452 C.3       17 UNK         0.1400 
     96 CB         -4.4328  -19.3096  -50.6842 C.3       17 UNK        -0.1800 
     97 C          -3.0700  -18.6725  -52.6947 C.2       17 UNK         0.5000 
     98 O          -3.5643  -19.2450  -53.6722 O.2       17 UNK        -0.5000 
     99 N          -2.5549  -17.4362  -52.7261 N.am      18 UNK        -0.5000 
    100 CA        -2.4526  -16.5838  -53.9136 C.3       18 UNK         0.1400 
    101 CB        -1.8373  -15.2314  -53.5234 C.3       18 UNK        -0.1800 
    102 C         -3.8091  -16.3752  -54.6078 C.2       18 UNK         0.5000 
    103 O         -4.7490  -15.8977  -53.9686 O.2       18 UNK        -0.5000 
    104 N         -3.8855  -16.7787  -55.8838 N.am      19 UNK        -0.5000 
    105 CA        -5.0480  -16.7937  -56.7842 C.3       19 UNK         0.1400 
    106 CB        -5.5927  -15.3726  -57.0223 C.3       19 UNK        -0.1800 
    107 C         -6.1788  -17.7582  -56.3678 C.2       19 UNK         0.5000 
    108 O         -6.7393  -18.4329  -57.2317 O.2       19 UNK        -0.5000 
    109 N         -6.4855  -17.8188  -55.0668 N.am      20 UNK        -0.5000 
    110 CA        -7.5394  -18.6310  -54.4604 C.3       20 UNK         0.1400 
    111 CB        -7.6681  -18.2505  -52.9780 C.3       20 UNK        -0.1800 
    112 C         -7.3263  -20.1479  -54.6138 C.2       20 UNK         0.5000 
    113 O         -8.3087  -20.8775  -54.7578 O.2       20 UNK        -0.5000 
    114 N         -6.0629  -20.5905  -54.5928 N.am      21 UNK        -0.5000 
    115 CA        -5.6753  -21.9863  -54.7989 C.3       21 UNK         0.1400 
    116 CB        -5.3716  -22.6431  -53.4453 C.3       21 UNK        -0.1800 
    117 C         -4.4864  -22.1113  -55.7643 C.2       21 UNK         0.5000 
    118 O         -4.4466  -23.0639  -56.5438 O.2       21 UNK        -0.5000 
    119 N         -3.5561  -21.1481  -55.7263 N.am      22 UNK        -0.5000 
    120 CA        -2.3894  -21.0772  -56.6236 C.3       22 UNK         0.1400 
    121 C         -2.7139  -20.5782  -58.0644 C.2       22 UNK         0.5000 
    122 N         -3.9286  -20.1345  -58.3664 N.am      22 UNK        -0.7600 
    123 O         -1.8441  -20.5983  -58.9309 O.2       22 UNK        -0.5000 
    124 C124       -1.2359  -20.2448  -56.0067 C.3       23 UNK        -0.0398 
    125 S125       -0.6720  -20.8752  -54.3906 S.3       23 UNK        -0.2404 
    126 C126        0.8896  -19.9617  -54.1981 C.3       23 UNK        -0.0205 
    127 H127        0.2022   -9.8505  -49.2084 H         1 UNK         0.0600 
    128 H128        1.4169   -9.6303  -47.9480 H         1 UNK         0.0600 
    129 H129       -0.2975   -9.4385  -47.5652 H         1 UNK         0.0600 
    130 H130       -0.6326  -11.9008  -49.5145 H         1 UNK         0.3000 
    131 H131        0.5941  -14.1589  -48.4547 H         1 UNK         0.0600 
    132 H132       -2.1323  -14.0946  -49.8491 H         1 UNK         0.0800 
    133 H133       -0.6267  -13.9188  -50.6956 H         1 UNK         0.0800 
    134 H134        0.8059  -15.6730  -51.5564 H         1 UNK         0.0800 
    135 H135        1.4694  -15.9747  -49.9731 H         1 UNK         0.0800 
    136 H136        0.3751  -17.5172  -53.1165 H         1 UNK         0.1150 
    137 H137        1.9107  -21.3852  -52.1119 H         1 UNK         0.1150 
    138 H138        1.7456  -18.2889  -49.1412 H         1 UNK         0.1150 
    139 H139        2.1700  -21.9643  -49.7335 H         1 UNK         0.0800 
    140 H140        3.5774  -20.9329  -49.6631 H         1 UNK         0.0800 
    141 H141       -0.0315  -21.1570  -48.5699 H         1 UNK         0.0800 
    142 H142       -0.1132  -20.3495  -47.0250 H         1 UNK         0.0800 
    143 H143        0.9311  -23.1914  -47.4185 H         1 UNK         0.0600 
    144 H144        1.0441  -21.5416  -45.1071 H         1 UNK         0.3000 
    145 H145        1.2786  -24.2212  -42.7250 H         1 UNK         0.0600 
    146 H146        3.2940  -22.8780  -42.1616 H         1 UNK         0.0600 
    147 H147        3.5612  -23.8268  -43.6168 H         1 UNK         0.0600 
    148 H148        3.2470  -22.1018  -43.7426 H         1 UNK         0.0600 
    149 H149        1.2001  -21.3425  -42.5303 H         1 UNK         0.3000 
    150 H150       -2.3094  -21.1180  -41.8689 H         1 UNK         0.0600 
    151 H151       -1.2085  -21.7900  -39.7163 H         1 UNK         0.0600 
    152 H152       -1.4376  -20.0503  -39.8168 H         1 UNK         0.0600 
    153 H153        0.1591  -20.7442  -40.0885 H         1 UNK         0.0600 
    154 H154       -0.3312  -19.1016  -41.8866 H         1 UNK         0.3000 
    155 H155       -0.4274  -18.3142  -45.3911 H         1 UNK         0.0600 
    156 H156       -1.5630  -17.0343  -42.8540 H         1 UNK         0.0600 
    157 H157       -0.8588  -16.0915  -44.1626 H         1 UNK         0.0600 
    158 H158       -2.2833  -17.0784  -44.4528 H         1 UNK         0.0600 
    159 H159        1.1249  -17.0875  -43.4689 H         1 UNK         0.3000 
    160 H160        3.9434  -19.2903  -43.3522 H         1 UNK         0.0600 
    161 H161        4.9893  -17.1455  -44.0653 H         1 UNK         0.0600 
    162 H162        3.4268  -16.5449  -44.6179 H         1 UNK         0.0600 
    163 H163        4.1682  -17.9287  -45.4075 H         1 UNK         0.0600 
    164 H164        3.0074  -16.7626  -42.1696 H         1 UNK         0.3000 
    165 H165        2.1544  -18.2239  -39.0502 H         1 UNK         0.0600 
    166 H166        3.7894  -16.5847  -38.1649 H         1 UNK         0.0600 
    167 H167        4.6322  -17.9622  -38.8553 H         1 UNK         0.0600 
    168 H168        4.5553  -16.4480  -39.7483 H         1 UNK         0.0600 
    169 H169        2.2645  -15.5115  -39.9481 H         1 UNK         0.3000 
    170 H170       -0.9828  -15.3789  -41.4042 H         1 UNK         0.0600 
    171 H171       -1.3653  -15.2792  -38.9341 H         1 UNK         0.0600 
    172 H172        0.0577  -14.2581  -38.7570 H         1 UNK         0.0600 
    173 H173       -1.3401  -13.6830  -39.6661 H         1 UNK         0.0600 
    174 H174        0.5298  -13.1901  -41.1040 H         1 UNK         0.3000 
    175 H175        2.4639  -12.4529  -42.4196 H         1 UNK         0.0600 
    176 H176        3.3455  -12.4074  -44.7393 H         1 UNK         0.0600 
    177 H177        2.4678  -13.8829  -45.1333 H         1 UNK         0.0600 
    178 H178        3.7779  -13.9209  -43.9569 H         1 UNK         0.0600 
    179 H179        0.6862  -12.3032  -44.7300 H         1 UNK         0.3000 
    180 H180       -1.9565  -10.6231  -43.0277 H         1 UNK         0.0600 
    181 H181        0.0501   -9.6592  -45.1336 H         1 UNK         0.0600 
    182 H182       -0.4273   -8.7998  -43.6783 H         1 UNK         0.0600 
    183 H183       -1.6025   -9.0647  -44.9570 H         1 UNK         0.0600 
    184 H184       -1.5429  -11.5294  -45.7317 H         1 UNK         0.3000 
    185 H185       -3.0004  -14.7000  -45.4110 H         1 UNK         0.0600 
    186 H186       -4.5616  -12.1931  -46.2302 H         1 UNK         0.0600 
    187 H187       -4.9030  -13.8413  -46.7581 H         1 UNK         0.0600 
    188 H188       -5.0915  -13.4032  -45.0680 H         1 UNK         0.0600 
    189 H189       -2.5278  -12.6930  -47.5194 H         1 UNK         0.3000 
    190 H190       -1.7184  -21.8921  -45.3349 H         1 UNK         0.3000 
    191 H191       -3.8666  -22.9780  -46.7952 H         1 UNK         0.0600 
    192 H192       -4.1773  -21.2786  -45.0390 H         1 UNK         0.0600 
    193 H193       -5.1317  -22.6991  -44.6455 H         1 UNK         0.0600 
    194 H194       -3.6196  -22.3983  -43.7966 H         1 UNK         0.0600 
    195 H195       -1.8812  -24.4714  -44.1992 H         1 UNK         0.3000 
    196 H196       -3.2914  -26.9453  -44.0672 H         1 UNK         0.0600 
    197 H197       -1.2381  -27.7489  -42.9103 H         1 UNK         0.0600 
    198 H198       -1.7290  -26.1756  -42.3006 H         1 UNK         0.0600 
    199 H199       -0.3672  -26.3055  -43.4105 H         1 UNK         0.0600 
    200 H200       -0.7327  -25.7928  -46.2348 H         1 UNK         0.3000 
    201 H201       -0.3933  -28.3481  -47.6148 H         1 UNK         0.0600 
    202 H202        1.4880  -26.7203  -47.3205 H         1 UNK         0.0600 
    203 H203        0.6200  -25.5372  -48.2960 H         1 UNK         0.0600 
    204 H204        1.1673  -27.0432  -49.0173 H         1 UNK         0.0600 
    205 H205       -2.8342  -26.0662  -47.6602 H         1 UNK         0.3000 
    206 H206       -4.5508  -25.5261  -48.9091 H         1 UNK         0.0600 
    207 H207       -4.8803  -27.9904  -49.1635 H         1 UNK         0.0600 
    208 H208       -5.4691  -27.1010  -50.5580 H         1 UNK         0.0600 
    209 H209       -3.9427  -27.9660  -50.6569 H         1 UNK         0.0600 
    210 H210       -2.2731  -24.0679  -49.3414 H         1 UNK         0.3000 
    211 H211       -2.4691  -23.2519  -52.2130 H         1 UNK         0.0600 
    212 H212       -0.0721  -23.0725  -50.3014 H         1 UNK         0.0600 
    213 H213       -0.1178  -22.5477  -51.9823 H         1 UNK         0.0600 
    214 H214       -0.2379  -24.2545  -51.5984 H         1 UNK         0.0600 
    215 H215       -2.4964  -20.9927  -52.5722 H         1 UNK         0.3000 
    216 H216       -2.2928  -18.9381  -50.6992 H         1 UNK         0.0600 
    217 H217       -4.7751  -18.2754  -50.6284 H         1 UNK         0.0600 
    218 H218       -4.4205  -19.6938  -49.6648 H         1 UNK         0.0600 
    219 H219       -5.1777  -19.8750  -51.2454 H         1 UNK         0.0600 
    220 H220       -2.1936  -17.0419  -51.8683 H         1 UNK         0.3000 
    221 H221       -1.7714  -17.0761  -54.6099 H         1 UNK         0.0600 
    222 H222       -2.4171  -14.7353  -52.7440 H         1 UNK         0.0600 
    223 H223       -0.8181  -15.3502  -53.1617 H         1 UNK         0.0600 
    224 H224       -1.7956  -14.5579  -54.3804 H         1 UNK         0.0600 
    225 H225       -3.0508  -17.1756  -56.2902 H         1 UNK         0.3000 
    226 H226       -4.6693  -17.1590  -57.7403 H         1 UNK         0.0600 
    227 H227       -4.8089  -14.7048  -57.3797 H         1 UNK         0.0600 
    228 H228       -6.3810  -15.3810  -57.7761 H         1 UNK         0.0600 
    229 H229       -6.0162  -14.9389  -56.1161 H         1 UNK         0.0600 
    230 H230       -5.9651  -17.2040  -54.4460 H         1 UNK         0.3000 
    231 H231       -8.4774  -18.3806  -54.9599 H         1 UNK         0.0600 
    232 H232       -6.7344  -18.4160  -52.4405 H         1 UNK         0.0600 
    233 H233       -8.4424  -18.8404  -52.4857 H         1 UNK         0.0600 
    234 H234       -7.9370  -17.2003  -52.8633 H         1 UNK         0.0600 
    235 H235       -5.3145  -19.9242  -54.4375 H         1 UNK         0.3000 
    236 H236       -6.4974  -22.5369  -55.2611 H         1 UNK         0.0600 
    237 H237       -6.2581  -22.6669  -52.8116 H         1 UNK         0.0600 
    238 H238       -5.0359  -23.6723  -53.5762 H         1 UNK         0.0600 
    239 H239       -4.5940  -22.1053  -52.9082 H         1 UNK         0.0600 
    240 H240       -3.6115  -20.4170  -55.0216 H         1 UNK         0.3000 
    241 H241       -2.0132  -22.0944  -56.7485 H         1 UNK         0.0600 
    242 H242       -4.6674  -20.1409  -57.6818 H         1 UNK         0.3800 
    243 H243       -4.1211  -19.8289  -59.3072 H         1 UNK         0.3800 
    244 H244       -0.3762  -20.2354  -56.6794 H         1 UNK         0.0800 
    245 H245       -1.5431  -19.2060  -55.8819 H         1 UNK         0.0800 
    246 H246        0.9018  -19.0951  -54.8610 H         1 UNK         0.0800 
    247 H247        1.7170  -20.5978  -54.5156 H         1 UNK         0.0800 
@<TRIPOS>BOND
     1    1    2 1    
     2    1  127 1    
     3    1  128 1    
     4    1  129 1    
     5    2    3 2    
     6    2    4 am   BACKBONE|DICT|INTERRES
     7    4    5 1    
     8    4  130 1    
     9    5    6 1    
    10    5   65 1    
    11    5  131 1    
    12    6    7 1    
    13    6  132 1    
    14    6  133 1    
    15    7    8 1    
    16    8    9 1    
    17    8  134 1    
    18    8  135 1    
    19    9   10 ar   
    20    9   14 ar   
    21   10   11 ar   
    22   10  136 1    
    23   11   12 ar   
    24   11  126 1    
    25   12   13 ar   
    26   12  137 1    
    27   13   14 ar   
    28   13   15 1    
    29   14  138 1    
    30   15   16 1    
    31   15  139 1    
    32   15  140 1    
    33   16   17 1    
    34   17   18 1    
    35   17  141 1    
    36   17  142 1    
    37   18   19 1    
    38   18   67 1    
    39   18  143 1    
    40   19   20 am   BACKBONE|DICT|INTERRES
    41   19  144 1    
    42   20   21 2    
    43   20   22 1    
    44   22   23 1    
    45   22   24 1    
    46   22  145 1    
    47   23  146 1    
    48   23  147 1    
    49   23  148 1    
    50   24   25 am   BACKBONE|DICT|INTERRES
    51   24  149 1    
    52   25   26 2    
    53   25   27 1    
    54   27   28 1    
    55   27   29 1    
    56   27  150 1    
    57   28  151 1    
    58   28  152 1    
    59   28  153 1    
    60   29   30 am   BACKBONE|DICT|INTERRES
    61   29  154 1    
    62   30   31 2    
    63   30   32 1    
    64   32   33 1    
    65   32   34 1    
    66   32  155 1    
    67   33  156 1    
    68   33  157 1    
    69   33  158 1    
    70   34   35 am   BACKBONE|DICT|INTERRES
    71   34  159 1    
    72   35   36 2    
    73   35   37 1    
    74   37   38 1    
    75   37   39 1    
    76   37  160 1    
    77   38  161 1    
    78   38  162 1    
    79   38  163 1    
    80   39   40 am   BACKBONE|DICT|INTERRES
    81   39  164 1    
    82   40   41 2    
    83   40   42 1    
    84   42   43 1    
    85   42   44 1    
    86   42  165 1    
    87   43  166 1    
    88   43  167 1    
    89   43  168 1    
    90   44   45 am   BACKBONE|DICT|INTERRES
    91   44  169 1    
    92   45   46 2    
    93   45   47 1    
    94   47   48 1    
    95   47   49 1    
    96   47  170 1    
    97   48  171 1    
    98   48  172 1    
    99   48  173 1    
   100   49   50 am   BACKBONE|DICT|INTERRES
   101   49  174 1    
   102   50   51 2    
   103   50   52 1    
   104   52   53 1    
   105   52   54 1    
   106   52  175 1    
   107   53  176 1    
   108   53  177 1    
   109   53  178 1    
   110   54   55 am   BACKBONE|DICT|INTERRES
   111   54  179 1    
   112   55   56 2    
   113   55   57 1    
   114   57   58 1    
   115   57   59 1    
   116   57  180 1    
   117   58  181 1    
   118   58  182 1    
   119   58  183 1    
   120   59   60 am   BACKBONE|DICT|INTERRES
   121   59  184 1    
   122   60   61 2    
   123   60   62 1    
   124   62   63 1    
   125   62   64 1    
   126   62  185 1    
   127   63  186 1    
   128   63  187 1    
   129   63  188 1    
   130   64   65 am   BACKBONE|DICT|INTERRES
   131   64  189 1    
   132   65   66 2    
   133   67   68 2    
   134   67   69 am   BACKBONE|DICT|INTERRES
   135   69   70 1    
   136   69  190 1    
   137   70   71 1    
   138   70   72 1    
   139   70  191 1    
   140   71  192 1    
   141   71  193 1    
   142   71  194 1    
   143   72   73 2    
   144   72   74 am   BACKBONE|DICT|INTERRES
   145   74   75 1    
   146   74  195 1    
   147   75   76 1    
   148   75   77 1    
   149   75  196 1    
   150   76  197 1    
   151   76  198 1    
   152   76  199 1    
   153   77   78 2    
   154   77   79 am   BACKBONE|DICT|INTERRES
   155   79   80 1    
   156   79  200 1    
   157   80   81 1    
   158   80   82 1    
   159   80  201 1    
   160   81  202 1    
   161   81  203 1    
   162   81  204 1    
   163   82   83 2    
   164   82   84 am   BACKBONE|DICT|INTERRES
   165   84   85 1    
   166   84  205 1    
   167   85   86 1    
   168   85   87 1    
   169   85  206 1    
   170   86  207 1    
   171   86  208 1    
   172   86  209 1    
   173   87   88 2    
   174   87   89 am   BACKBONE|DICT|INTERRES
   175   89   90 1    
   176   89  210 1    
   177   90   91 1    
   178   90   92 1    
   179   90  211 1    
   180   91  212 1    
   181   91  213 1    
   182   91  214 1    
   183   92   93 2    
   184   92   94 am   BACKBONE|DICT|INTERRES
   185   94   95 1    
   186   94  215 1    
   187   95   96 1    
   188   95   97 1    
   189   95  216 1    
   190   96  217 1    
   191   96  218 1    
   192   96  219 1    
   193   97   98 2    
   194   97   99 am   BACKBONE|DICT|INTERRES
   195   99  100 1    
   196   99  220 1    
   197  100  101 1    
   198  100  102 1    
   199  100  221 1    
   200  101  222 1    
   201  101  223 1    
   202  101  224 1    
   203  102  103 2    
   204  102  104 am   BACKBONE|DICT|INTERRES
   205  104  105 1    
   206  104  225 1    
   207  105  106 1    
   208  105  107 1    
   209  105  226 1    
   210  106  227 1    
   211  106  228 1    
   212  106  229 1    
   213  107  108 2    
   214  107  109 am   BACKBONE|DICT|INTERRES
   215  109  110 1    
   216  109  230 1    
   217  110  111 1    
   218  110  112 1    
   219  110  231 1    
   220  111  232 1    
   221  111  233 1    
   222  111  234 1    
   223  112  113 2    
   224  112  114 am   BACKBONE|DICT|INTERRES
   225  114  115 1    
   226  114  235 1    
   227  115  116 1    
   228  115  117 1    
   229  115  236 1    
   230  116  237 1    
   231  116  238 1    
   232  116  239 1    
   233  117  118 2    
   234  117  119 am   BACKBONE|DICT|INTERRES
   235  119  120 1    
   236  119  240 1    
   237  120  121 1    
   238  120  124 1    
   239  120  241 1    
   240  121  122 am   BACKBONE|DICT|INTERRES
   241  121  123 2    
   242  122  242 1    
   243  122  243 1    
   244  124  125 1    
   245  124  244 1    
   246  124  245 1    
   247  125  126 1    
   248  126  246 1    
   249  126  247 1    
@<TRIPOS>SUBSTRUCTURE
     1 UNK         1 GROUP             0       ****    0 ROOT    
