@<TRIPOS>MOLECULE
3R540
247   249    1
SMALL
USER_CHARGES


@<TRIPOS>ATOM
      1 CA          8.3867  -16.3172  -46.5688 C.3       0 UNK        -0.1800 
      2 C           6.9657  -15.7935  -46.4139 C.2       0 UNK         0.5000 
      3 O           6.6740  -15.0930  -45.4445 O.2       0 UNK        -0.5000 
      4 N           6.0828  -16.1360  -47.3600 N.am      1 UNK        -0.5000 
      5 CA          4.6939  -15.6758  -47.4144 C.3       1 UNK         0.1400 
      6 C6          3.8621  -16.5365  -48.3972 C.3       23 UNK        -0.0398 
      7 S7          2.0641  -16.3153  -48.1806 S.3       23 UNK        -0.2404 
      8 C8          1.5982  -17.9302  -47.4975 C.3       23 UNK        -0.0205 
      9 C9          0.1246  -17.9742  -47.1355 C.ar      23 UNK        -0.0193 
     10 C10        -0.8397  -18.2190  -48.1151 C.ar      23 UNK        -0.1150 
     11 C11        -2.1925  -18.2978  -47.7736 C.ar      23 UNK        -0.0193 
     12 C12        -2.5810  -18.1224  -46.4422 C.ar      23 UNK        -0.1150 
     13 C13        -1.6236  -17.8801  -45.4534 C.ar      23 UNK        -0.0193 
     14 C14        -0.2758  -17.7962  -45.8113 C.ar      23 UNK        -0.1150 
     15 C15        -2.0343  -17.7492  -43.9943 C.3       23 UNK        -0.0205 
     16 S16        -1.2230  -19.0008  -42.9503 S.3       23 UNK        -0.2404 
     17 C17        -2.0169  -20.5394  -43.5331 C.3       23 UNK        -0.0398 
     18 CA         -1.2568  -21.2346  -44.6949 C.3       11 UNK         0.1400 
     19 N           0.1567  -21.4783  -44.3805 N.am      11 UNK        -0.5000 
     20 C           1.1452  -21.5456  -45.2841 C.2       10 UNK         0.5000 
     21 O           0.9456  -21.4877  -46.4976 O.2       10 UNK        -0.5000 
     22 CA          2.5911  -21.7067  -44.7765 C.3       10 UNK         0.1400 
     23 CB          3.4822  -20.5610  -45.2830 C.3       10 UNK        -0.1800 
     24 N           2.6820  -21.7658  -43.3156 N.am      10 UNK        -0.5000 
     25 C           2.7551  -22.8997  -42.6078 C.2       9 UNK         0.5000 
     26 O           2.7483  -24.0240  -43.1105 O.2       9 UNK        -0.5000 
     27 CA          2.8481  -22.7597  -41.0762 C.3       9 UNK         0.1400 
     28 CB          4.3175  -22.6750  -40.6359 C.3       9 UNK        -0.1800 
     29 N           2.1201  -21.6198  -40.5117 N.am      9 UNK        -0.5000 
     30 C           0.8030  -21.4041  -40.6038 C.2       8 UNK         0.5000 
     31 O           0.0573  -22.0776  -41.3148 O.2       8 UNK        -0.5000 
     32 CA          0.2046  -20.2571  -39.7623 C.3       8 UNK         0.1400 
     33 CB         -0.1817  -20.7594  -38.3585 C.3       8 UNK        -0.1800 
     34 N           1.0118  -19.0299  -39.6804 N.am      8 UNK        -0.5000 
     35 C           2.2005  -18.8230  -39.0971 C.2       7 UNK         0.5000 
     36 O           2.8723  -19.7181  -38.5810 O.2       7 UNK        -0.5000 
     37 CA          2.7320  -17.3723  -39.1267 C.3       7 UNK         0.1400 
     38 CB          4.0749  -17.2182  -38.3895 C.3       7 UNK        -0.1800 
     39 N           2.8897  -16.8708  -40.4936 N.am      7 UNK        -0.5000 
     40 C           1.8991  -16.4391  -41.2822 C.2       6 UNK         0.5000 
     41 O           0.7156  -16.3988  -40.9312 O.2       6 UNK        -0.5000 
     42 CA          2.2929  -16.0260  -42.7076 C.3       6 UNK         0.1400 
     43 CB          2.7817  -17.2519  -43.5042 C.3       6 UNK        -0.1800 
     44 N           1.1283  -15.4220  -43.3479 N.am      6 UNK        -0.5000 
     45 C           1.1255  -14.7398  -44.4956 C.2       5 UNK         0.5000 
     46 O           2.1326  -14.5342  -45.1755 O.2       5 UNK        -0.5000 
     47 CA         -0.2255  -14.1862  -44.9625 C.3       5 UNK         0.1400 
     48 CB         -0.4140  -12.7230  -44.5280 C.3       5 UNK        -0.1800 
     49 N          -0.3000  -14.2950  -46.4143 N.am      5 UNK        -0.5000 
     50 C          -1.4305  -14.3771  -47.1238 C.2       4 UNK         0.5000 
     51 O          -2.5534  -14.3172  -46.6196 O.2       4 UNK        -0.5000 
     52 CA         -1.2720  -14.5152  -48.6485 C.3       4 UNK         0.1400 
     53 CB         -2.5972  -14.3309  -49.4170 C.3       4 UNK        -0.1800 
     54 N          -0.2600  -13.5754  -49.1268 N.am      4 UNK        -0.5000 
     55 C           0.4125  -13.6666  -50.2778 C.2       3 UNK         0.5000 
     56 O           0.2321  -14.5591  -51.1067 O.2       3 UNK        -0.5000 
     57 CA          1.4819  -12.5908  -50.5538 C.3       3 UNK         0.1400 
     58 CB          0.8415  -11.2468  -50.9521 C.3       3 UNK        -0.1800 
     59 N           2.4657  -12.4279  -49.4748 N.am      3 UNK        -0.5000 
     60 C           2.2945  -11.9506  -48.2342 C.2       2 UNK         0.5000 
     61 O           1.2166  -11.5474  -47.7931 O.2       2 UNK        -0.5000 
     62 CA          3.5377  -12.0035  -47.3274 C.3       2 UNK         0.1400 
     63 CB          3.3455  -11.2569  -45.9960 C.3       2 UNK        -0.1800 
     64 N           3.8598  -13.3987  -47.0436 N.am      2 UNK        -0.5000 
     65 C           4.6385  -14.1815  -47.7959 C.2       1 UNK         0.5000 
     66 O           5.2575  -13.7792  -48.7846 O.2       1 UNK        -0.5000 
     67 C          -1.9690  -22.5190  -45.1759 C.2       11 UNK         0.5000 
     68 O          -3.0041  -22.8993  -44.6269 O.2       11 UNK        -0.5000 
     69 N          -1.4025  -23.1681  -46.1969 N.am      12 UNK        -0.5000 
     70 CA         -1.9319  -24.3562  -46.8508 C.3       12 UNK         0.1400 
     71 CB         -1.6203  -25.6135  -46.0192 C.3       12 UNK        -0.1800 
     72 C          -1.3084  -24.4434  -48.2475 C.2       12 UNK         0.5000 
     73 O          -0.0825  -24.4840  -48.3583 O.2       12 UNK        -0.5000 
     74 N          -2.1591  -24.4539  -49.2808 N.am      13 UNK        -0.5000 
     75 CA         -1.8833  -24.6591  -50.7105 C.3       13 UNK         0.1400 
     76 CB         -1.3197  -26.0734  -50.9466 C.3       13 UNK        -0.1800 
     77 C          -1.0115  -23.5974  -51.4166 C.2       13 UNK         0.5000 
     78 O          -0.9671  -23.6011  -52.6467 O.2       13 UNK        -0.5000 
     79 N          -0.3478  -22.7126  -50.6631 N.am      14 UNK        -0.5000 
     80 CA          0.6735  -21.7695  -51.1276 C.3       14 UNK         0.1400 
     81 CB          1.2164  -20.9970  -49.9176 C.3       14 UNK        -0.1800 
     82 C           0.2339  -20.8001  -52.2425 C.2       14 UNK         0.5000 
     83 O           1.0531  -20.4676  -53.1002 O.2       14 UNK        -0.5000 
     84 N          -1.0390  -20.3853  -52.2269 N.am      15 UNK        -0.5000 
     85 CA         -1.6457  -19.5222  -53.2465 C.3       15 UNK         0.1400 
     86 CB         -2.2870  -18.3112  -52.5553 C.3       15 UNK        -0.1800 
     87 C          -2.6454  -20.2822  -54.1452 C.2       15 UNK         0.5000 
     88 O          -3.3676  -19.6476  -54.9159 O.2       15 UNK        -0.5000 
     89 N          -2.6462  -21.6216  -54.0592 N.am      16 UNK        -0.5000 
     90 CA         -3.4033  -22.5718  -54.8789 C.3       16 UNK         0.1400 
     91 CB         -2.8603  -22.5617  -56.3257 C.3       16 UNK        -0.1800 
     92 C          -4.9367  -22.3935  -54.8039 C.2       16 UNK         0.5000 
     93 O          -5.4597  -21.8374  -53.8333 O.2       16 UNK        -0.5000 
     94 N          -5.6429  -22.8995  -55.8247 N.am      17 UNK        -0.5000 
     95 CA         -7.1040  -22.8999  -55.9447 C.3       17 UNK         0.1400 
     96 CB         -7.5034  -23.6978  -57.1945 C.3       17 UNK        -0.1800 
     97 C          -7.7362  -21.4956  -55.9781 C.2       17 UNK         0.5000 
     98 O          -8.8911  -21.3485  -55.5784 O.2       17 UNK        -0.5000 
     99 N          -6.9603  -20.4833  -56.3916 N.am      18 UNK        -0.5000 
    100 CA        -7.3362  -19.0669  -56.3705 C.3       18 UNK         0.1400 
    101 CB        -6.2360  -18.2485  -57.0628 C.3       18 UNK        -0.1800 
    102 C         -7.6038  -18.5216  -54.9519 C.2       18 UNK         0.5000 
    103 O         -8.3878  -17.5835  -54.8045 O.2       18 UNK        -0.5000 
    104 N         -6.9766  -19.1365  -53.9408 N.am      19 UNK        -0.5000 
    105 CA        -7.1812  -18.8592  -52.5198 C.3       19 UNK         0.1400 
    106 CB        -5.8073  -18.6310  -51.8724 C.3       19 UNK        -0.1800 
    107 C         -7.9298  -20.0107  -51.8210 C.2       19 UNK         0.5000 
    108 O         -7.8932  -20.0883  -50.5928 O.2       19 UNK        -0.5000 
    109 N         -8.5511  -20.9143  -52.5978 N.am      20 UNK        -0.5000 
    110 CA        -9.2286  -22.1417  -52.1577 C.3       20 UNK         0.1400 
    111 CB       -10.5297  -21.8011  -51.4024 C.3       20 UNK        -0.1800 
    112 C         -8.2966  -23.0827  -51.3619 C.2       20 UNK         0.5000 
    113 O         -8.7099  -23.6700  -50.3602 O.2       20 UNK        -0.5000 
    114 N         -7.0308  -23.1594  -51.8022 N.am      21 UNK        -0.5000 
    115 CA        -5.9081  -23.8624  -51.1739 C.3       21 UNK         0.1400 
    116 CB        -6.1348  -25.3877  -51.1655 C.3       21 UNK        -0.1800 
    117 C         -5.5266  -23.3021  -49.7871 C.2       21 UNK         0.5000 
    118 O         -4.9008  -24.0103  -48.9971 O.2       21 UNK        -0.5000 
    119 N         -5.8850  -22.0383  -49.5250 N.am      22 UNK        -0.5000 
    120 CA        -5.6261  -21.2899  -48.2841 C.3       22 UNK         0.1400 
    121 C         -6.4367  -21.7866  -47.0482 C.2       22 UNK         0.5000 
    122 N         -7.4583  -22.6192  -47.2153 N.am      22 UNK        -0.7600 
    123 O         -6.1649  -21.3816  -45.9217 O.2       22 UNK        -0.5000 
    124 C124       -4.1120  -21.1059  -47.9802 C.3       23 UNK        -0.0398 
    125 S125       -3.2061  -20.3262  -49.3614 S.3       23 UNK        -0.2404 
    126 C126       -3.2267  -18.5774  -48.8497 C.3       23 UNK        -0.0205 
    127 H127        8.4986  -16.9295  -47.4640 H         1 UNK         0.0600 
    128 H128        8.6589  -16.9245  -45.7055 H         1 UNK         0.0600 
    129 H129        9.0876  -15.4851  -46.6363 H         1 UNK         0.0600 
    130 H130        6.3953  -16.6841  -48.1485 H         1 UNK         0.3000 
    131 H131        4.2733  -15.8003  -46.4137 H         1 UNK         0.0600 
    132 H132        4.1012  -17.5917  -48.2572 H         1 UNK         0.0800 
    133 H133        4.1204  -16.3127  -49.4339 H         1 UNK         0.0800 
    134 H134        2.2075  -18.1370  -46.6178 H         1 UNK         0.0800 
    135 H135        1.8241  -18.7140  -48.2204 H         1 UNK         0.0800 
    136 H136       -0.5379  -18.3532  -49.1442 H         1 UNK         0.1150 
    137 H137       -3.6258  -18.1894  -46.1739 H         1 UNK         0.1150 
    138 H138        0.4651  -17.6193  -45.0487 H         1 UNK         0.1150 
    139 H139       -1.7590  -16.7613  -43.6286 H         1 UNK         0.0800 
    140 H140       -3.1164  -17.8274  -43.8799 H         1 UNK         0.0800 
    141 H141       -3.0416  -20.3112  -43.8316 H         1 UNK         0.0800 
    142 H142       -2.0974  -21.2128  -42.6786 H         1 UNK         0.0800 
    143 H143       -1.2926  -20.5578  -45.5489 H         1 UNK         0.0600 
    144 H144        0.3737  -21.5992  -43.3988 H         1 UNK         0.3000 
    145 H145        2.9734  -22.6326  -45.2111 H         1 UNK         0.0600 
    146 H146        4.5155  -20.6930  -44.9621 H         1 UNK         0.0600 
    147 H147        3.4856  -20.5170  -46.3730 H         1 UNK         0.0600 
    148 H148        3.1387  -19.5957  -44.9184 H         1 UNK         0.0600 
    149 H149        2.6800  -20.8872  -42.8187 H         1 UNK         0.3000 
    150 H150        2.4161  -23.6643  -40.6436 H         1 UNK         0.0600 
    151 H151        4.8902  -23.5232  -41.0136 H         1 UNK         0.0600 
    152 H152        4.4046  -22.6833  -39.5491 H         1 UNK         0.0600 
    153 H153        4.7945  -21.7655  -41.0031 H         1 UNK         0.0600 
    154 H154        2.6343  -21.0192  -39.8718 H         1 UNK         0.3000 
    155 H155       -0.7216  -19.9633  -40.2562 H         1 UNK         0.0600 
    156 H156        0.6872  -21.0906  -37.7891 H         1 UNK         0.0600 
    157 H157       -0.8680  -21.6047  -38.4237 H         1 UNK         0.0600 
    158 H158       -0.6820  -19.9794  -37.7846 H         1 UNK         0.0600 
    159 H159        0.5929  -18.2181  -40.1255 H         1 UNK         0.3000 
    160 H160        1.9987  -16.7523  -38.6064 H         1 UNK         0.0600 
    161 H161        4.8638  -17.8064  -38.8599 H         1 UNK         0.0600 
    162 H162        3.9925  -17.5471  -37.3527 H         1 UNK         0.0600 
    163 H163        4.3977  -16.1771  -38.3722 H         1 UNK         0.0600 
    164 H164        3.8274  -16.9020  -40.8670 H         1 UNK         0.3000 
    165 H165        3.0880  -15.2800  -42.6481 H         1 UNK         0.0600 
    166 H166        2.0459  -18.0563  -43.4816 H         1 UNK         0.0600 
    167 H167        2.9851  -17.0062  -44.5458 H         1 UNK         0.0600 
    168 H168        3.7081  -17.6482  -43.0878 H         1 UNK         0.0600 
    169 H169        0.2796  -15.5244  -42.8040 H         1 UNK         0.3000 
    170 H170       -1.0175  -14.7907  -44.5194 H         1 UNK         0.0600 
    171 H171       -0.2829  -12.6120  -43.4510 H         1 UNK         0.0600 
    172 H172        0.3004  -12.0630  -45.0195 H         1 UNK         0.0600 
    173 H173       -1.4147  -12.3662  -44.7716 H         1 UNK         0.0600 
    174 H174        0.5940  -14.4018  -46.8771 H         1 UNK         0.3000 
    175 H175       -0.9117  -15.5280  -48.8320 H         1 UNK         0.0600 
    176 H176       -3.0004  -13.3269  -49.2816 H         1 UNK         0.0600 
    177 H177       -2.4672  -14.4994  -50.4858 H         1 UNK         0.0600 
    178 H178       -3.3503  -15.0408  -49.0726 H         1 UNK         0.0600 
    179 H179       -0.0129  -12.8165  -48.4949 H         1 UNK         0.3000 
    180 H180        2.0550  -12.9390  -51.4147 H         1 UNK         0.0600 
    181 H181        0.2302  -10.8283  -50.1523 H         1 UNK         0.0600 
    182 H182        0.1952  -11.3694  -51.8220 H         1 UNK         0.0600 
    183 H183        1.6015  -10.5105  -51.2133 H         1 UNK         0.0600 
    184 H184        3.3886  -12.7845  -49.6918 H         1 UNK         0.3000 
    185 H185        4.3626  -11.5262  -47.8605 H         1 UNK         0.0600 
    186 H186        2.5721  -11.7171  -45.3820 H         1 UNK         0.0600 
    187 H187        4.2680  -11.2507  -45.4154 H         1 UNK         0.0600 
    188 H188        3.0604  -10.2180  -46.1660 H         1 UNK         0.0600 
    189 H189        3.3262  -13.8262  -46.2862 H         1 UNK         0.3000 
    190 H190       -0.5448  -22.7898  -46.5926 H         1 UNK         0.3000 
    191 H191       -3.0155  -24.2608  -46.9476 H         1 UNK         0.0600 
    192 H192       -1.9763  -26.5120  -46.5245 H         1 UNK         0.0600 
    193 H193       -2.1063  -25.5757  -45.0443 H         1 UNK         0.0600 
    194 H194       -0.5484  -25.7302  -45.8540 H         1 UNK         0.0600 
    195 H195       -3.1513  -24.3549  -49.0661 H         1 UNK         0.3000 
    196 H196       -2.8548  -24.6135  -51.2028 H         1 UNK         0.0600 
    197 H197       -0.3341  -26.1970  -50.4968 H         1 UNK         0.0600 
    198 H198       -1.9779  -26.8348  -50.5279 H         1 UNK         0.0600 
    199 H199       -1.2196  -26.2838  -52.0122 H         1 UNK         0.0600 
    200 H200       -0.4073  -22.8389  -49.6614 H         1 UNK         0.3000 
    201 H201        1.4916  -22.3660  -51.5363 H         1 UNK         0.0600 
    202 H202        1.7191  -21.6655  -49.2183 H         1 UNK         0.0600 
    203 H203        0.4154  -20.4956  -49.3752 H         1 UNK         0.0600 
    204 H204        1.9408  -20.2401  -50.2210 H         1 UNK         0.0600 
    205 H205       -1.6432  -20.6997  -51.4794 H         1 UNK         0.3000 
    206 H206       -0.8796  -19.1352  -53.9207 H         1 UNK         0.0600 
    207 H207       -1.5481  -17.7427  -51.9899 H         1 UNK         0.0600 
    208 H208       -2.7382  -17.6300  -53.2776 H         1 UNK         0.0600 
    209 H209       -3.0643  -18.6260  -51.8658 H         1 UNK         0.0600 
    210 H210       -1.9955  -22.0530  -53.4119 H         1 UNK         0.3000 
    211 H211       -3.1974  -23.5556  -54.4554 H         1 UNK         0.0600 
    212 H212       -3.2357  -23.4061  -56.9043 H         1 UNK         0.0600 
    213 H213       -1.7727  -22.6368  -56.3343 H         1 UNK         0.0600 
    214 H214       -3.1323  -21.6471  -56.8543 H         1 UNK         0.0600 
    215 H215       -5.1381  -23.3391  -56.5807 H         1 UNK         0.3000 
    216 H216       -7.5056  -23.4139  -55.0689 H         1 UNK         0.0600 
    217 H217       -7.1031  -23.2479  -58.1040 H         1 UNK         0.0600 
    218 H218       -8.5883  -23.7424  -57.3004 H         1 UNK         0.0600 
    219 H219       -7.1423  -24.7250  -57.1397 H         1 UNK         0.0600 
    220 H220       -6.0164  -20.6937  -56.6815 H         1 UNK         0.3000 
    221 H221       -8.2590  -18.9575  -56.9440 H         1 UNK         0.0600 
    222 H222       -6.0905  -18.5733  -58.0931 H         1 UNK         0.0600 
    223 H223       -5.2813  -18.3395  -56.5429 H         1 UNK         0.0600 
    224 H224       -6.4951  -17.1893  -57.0902 H         1 UNK         0.0600 
    225 H225       -6.3478  -19.9044  -54.1509 H         1 UNK         0.3000 
    226 H226       -7.7793  -17.9566  -52.3824 H         1 UNK         0.0600 
    227 H227       -5.1946  -19.5322  -51.9231 H         1 UNK         0.0600 
    228 H228       -5.2712  -17.8245  -52.3723 H         1 UNK         0.0600 
    229 H229       -5.9004  -18.3542  -50.8215 H         1 UNK         0.0600 
    230 H230       -8.5422  -20.7662  -53.6005 H         1 UNK         0.3000 
    231 H231       -9.5049  -22.6830  -53.0636 H         1 UNK         0.0600 
    232 H232      -10.3296  -21.3006  -50.4545 H         1 UNK         0.0600 
    233 H233      -11.1013  -22.7032  -51.1814 H         1 UNK         0.0600 
    234 H234      -11.1706  -21.1499  -51.9967 H         1 UNK         0.0600 
    235 H235       -6.7658  -22.5934  -52.6034 H         1 UNK         0.3000 
    236 H236       -5.0460  -23.6676  -51.8123 H         1 UNK         0.0600 
    237 H237       -5.2346  -25.9162  -50.8496 H         1 UNK         0.0600 
    238 H238       -6.9360  -25.6753  -50.4845 H         1 UNK         0.0600 
    239 H239       -6.3909  -25.7531  -52.1599 H         1 UNK         0.0600 
    240 H240       -6.4482  -21.5408  -50.2038 H         1 UNK         0.3000 
    241 H241       -6.0277  -20.2941  -48.4743 H         1 UNK         0.0600 
    242 H242       -7.9860  -22.9242  -46.4130 H         1 UNK         0.3800 
    243 H243       -7.7118  -22.9432  -48.1375 H         1 UNK         0.3800 
    244 H244       -3.6472  -22.0670  -47.7697 H         1 UNK         0.0800 
    245 H245       -3.9685  -20.5091  -47.0796 H         1 UNK         0.0800 
    246 H246       -3.0156  -17.9415  -49.7086 H         1 UNK         0.0800 
    247 H247       -4.2276  -18.3038  -48.5128 H         1 UNK         0.0800 
@<TRIPOS>BOND
     1    1    2 1    
     2    1  127 1    
     3    1  128 1    
     4    1  129 1    
     5    2    3 2    
     6    2    4 am   BACKBONE|DICT|INTERRES
     7    4    5 1    
     8    4  130 1    
     9    5    6 1    
    10    5   65 1    
    11    5  131 1    
    12    6    7 1    
    13    6  132 1    
    14    6  133 1    
    15    7    8 1    
    16    8    9 1    
    17    8  134 1    
    18    8  135 1    
    19    9   10 ar   
    20    9   14 ar   
    21   10   11 ar   
    22   10  136 1    
    23   11   12 ar   
    24   11  126 1    
    25   12   13 ar   
    26   12  137 1    
    27   13   14 ar   
    28   13   15 1    
    29   14  138 1    
    30   15   16 1    
    31   15  139 1    
    32   15  140 1    
    33   16   17 1    
    34   17   18 1    
    35   17  141 1    
    36   17  142 1    
    37   18   19 1    
    38   18   67 1    
    39   18  143 1    
    40   19   20 am   BACKBONE|DICT|INTERRES
    41   19  144 1    
    42   20   21 2    
    43   20   22 1    
    44   22   23 1    
    45   22   24 1    
    46   22  145 1    
    47   23  146 1    
    48   23  147 1    
    49   23  148 1    
    50   24   25 am   BACKBONE|DICT|INTERRES
    51   24  149 1    
    52   25   26 2    
    53   25   27 1    
    54   27   28 1    
    55   27   29 1    
    56   27  150 1    
    57   28  151 1    
    58   28  152 1    
    59   28  153 1    
    60   29   30 am   BACKBONE|DICT|INTERRES
    61   29  154 1    
    62   30   31 2    
    63   30   32 1    
    64   32   33 1    
    65   32   34 1    
    66   32  155 1    
    67   33  156 1    
    68   33  157 1    
    69   33  158 1    
    70   34   35 am   BACKBONE|DICT|INTERRES
    71   34  159 1    
    72   35   36 2    
    73   35   37 1    
    74   37   38 1    
    75   37   39 1    
    76   37  160 1    
    77   38  161 1    
    78   38  162 1    
    79   38  163 1    
    80   39   40 am   BACKBONE|DICT|INTERRES
    81   39  164 1    
    82   40   41 2    
    83   40   42 1    
    84   42   43 1    
    85   42   44 1    
    86   42  165 1    
    87   43  166 1    
    88   43  167 1    
    89   43  168 1    
    90   44   45 am   BACKBONE|DICT|INTERRES
    91   44  169 1    
    92   45   46 2    
    93   45   47 1    
    94   47   48 1    
    95   47   49 1    
    96   47  170 1    
    97   48  171 1    
    98   48  172 1    
    99   48  173 1    
   100   49   50 am   BACKBONE|DICT|INTERRES
   101   49  174 1    
   102   50   51 2    
   103   50   52 1    
   104   52   53 1    
   105   52   54 1    
   106   52  175 1    
   107   53  176 1    
   108   53  177 1    
   109   53  178 1    
   110   54   55 am   BACKBONE|DICT|INTERRES
   111   54  179 1    
   112   55   56 2    
   113   55   57 1    
   114   57   58 1    
   115   57   59 1    
   116   57  180 1    
   117   58  181 1    
   118   58  182 1    
   119   58  183 1    
   120   59   60 am   BACKBONE|DICT|INTERRES
   121   59  184 1    
   122   60   61 2    
   123   60   62 1    
   124   62   63 1    
   125   62   64 1    
   126   62  185 1    
   127   63  186 1    
   128   63  187 1    
   129   63  188 1    
   130   64   65 am   BACKBONE|DICT|INTERRES
   131   64  189 1    
   132   65   66 2    
   133   67   68 2    
   134   67   69 am   BACKBONE|DICT|INTERRES
   135   69   70 1    
   136   69  190 1    
   137   70   71 1    
   138   70   72 1    
   139   70  191 1    
   140   71  192 1    
   141   71  193 1    
   142   71  194 1    
   143   72   73 2    
   144   72   74 am   BACKBONE|DICT|INTERRES
   145   74   75 1    
   146   74  195 1    
   147   75   76 1    
   148   75   77 1    
   149   75  196 1    
   150   76  197 1    
   151   76  198 1    
   152   76  199 1    
   153   77   78 2    
   154   77   79 am   BACKBONE|DICT|INTERRES
   155   79   80 1    
   156   79  200 1    
   157   80   81 1    
   158   80   82 1    
   159   80  201 1    
   160   81  202 1    
   161   81  203 1    
   162   81  204 1    
   163   82   83 2    
   164   82   84 am   BACKBONE|DICT|INTERRES
   165   84   85 1    
   166   84  205 1    
   167   85   86 1    
   168   85   87 1    
   169   85  206 1    
   170   86  207 1    
   171   86  208 1    
   172   86  209 1    
   173   87   88 2    
   174   87   89 am   BACKBONE|DICT|INTERRES
   175   89   90 1    
   176   89  210 1    
   177   90   91 1    
   178   90   92 1    
   179   90  211 1    
   180   91  212 1    
   181   91  213 1    
   182   91  214 1    
   183   92   93 2    
   184   92   94 am   BACKBONE|DICT|INTERRES
   185   94   95 1    
   186   94  215 1    
   187   95   96 1    
   188   95   97 1    
   189   95  216 1    
   190   96  217 1    
   191   96  218 1    
   192   96  219 1    
   193   97   98 2    
   194   97   99 am   BACKBONE|DICT|INTERRES
   195   99  100 1    
   196   99  220 1    
   197  100  101 1    
   198  100  102 1    
   199  100  221 1    
   200  101  222 1    
   201  101  223 1    
   202  101  224 1    
   203  102  103 2    
   204  102  104 am   BACKBONE|DICT|INTERRES
   205  104  105 1    
   206  104  225 1    
   207  105  106 1    
   208  105  107 1    
   209  105  226 1    
   210  106  227 1    
   211  106  228 1    
   212  106  229 1    
   213  107  108 2    
   214  107  109 am   BACKBONE|DICT|INTERRES
   215  109  110 1    
   216  109  230 1    
   217  110  111 1    
   218  110  112 1    
   219  110  231 1    
   220  111  232 1    
   221  111  233 1    
   222  111  234 1    
   223  112  113 2    
   224  112  114 am   BACKBONE|DICT|INTERRES
   225  114  115 1    
   226  114  235 1    
   227  115  116 1    
   228  115  117 1    
   229  115  236 1    
   230  116  237 1    
   231  116  238 1    
   232  116  239 1    
   233  117  118 2    
   234  117  119 am   BACKBONE|DICT|INTERRES
   235  119  120 1    
   236  119  240 1    
   237  120  121 1    
   238  120  124 1    
   239  120  241 1    
   240  121  122 am   BACKBONE|DICT|INTERRES
   241  121  123 2    
   242  122  242 1    
   243  122  243 1    
   244  124  125 1    
   245  124  244 1    
   246  124  245 1    
   247  125  126 1    
   248  126  246 1    
   249  126  247 1    
@<TRIPOS>SUBSTRUCTURE
     1 UNK         1 GROUP             0       ****    0 ROOT    
