@<TRIPOS>MOLECULE
3R540
247   249    1
SMALL
USER_CHARGES


@<TRIPOS>ATOM
      1 CA          8.0289  -12.1472  -46.1644 C.3       0 UNK        -0.1800 
      2 C           6.8660  -13.1236  -46.0624 C.2       0 UNK         0.5000 
      3 O           6.4800  -13.5070  -44.9574 O.2       0 UNK        -0.5000 
      4 N           6.2950  -13.5208  -47.2064 N.am      1 UNK        -0.5000 
      5 CA          5.1645  -14.4493  -47.3268 C.3       1 UNK         0.1400 
      6 C6          5.1793  -15.1555  -48.7075 C.3       23 UNK        -0.0398 
      7 S7          4.1738  -16.6772  -48.7507 S.3       23 UNK        -0.2404 
      8 C8          4.7237  -17.3686  -50.3396 C.3       23 UNK        -0.0205 
      9 C9          3.8221  -18.5070  -50.7868 C.ar      23 UNK        -0.0193 
     10 C10         2.7925  -18.2707  -51.7013 C.ar      23 UNK        -0.1150 
     11 C11         1.9626  -19.3142  -52.1208 C.ar      23 UNK        -0.0193 
     12 C12         2.1609  -20.5988  -51.6064 C.ar      23 UNK        -0.1150 
     13 C13         3.1817  -20.8485  -50.6843 C.ar      23 UNK        -0.0193 
     14 C14         4.0201  -19.7984  -50.2922 C.ar      23 UNK        -0.1150 
     15 C15         3.3694  -22.2587  -50.1330 C.3       23 UNK        -0.0205 
     16 S16         3.6972  -22.3193  -48.3378 S.3       23 UNK        -0.2404 
     17 C17         2.2430  -21.4636  -47.6412 C.3       23 UNK        -0.0398 
     18 CA          1.1696  -22.4443  -47.1139 C.3       11 UNK         0.1400 
     19 N           0.3967  -21.8790  -46.0052 N.am      11 UNK        -0.5000 
     20 C          -0.4529  -22.5759  -45.2369 C.2       10 UNK         0.5000 
     21 O          -0.6348  -23.7876  -45.3471 O.2       10 UNK        -0.5000 
     22 CA         -1.2759  -21.7805  -44.2069 C.3       10 UNK         0.1400 
     23 CB         -0.4577  -21.5104  -42.9359 C.3       10 UNK        -0.1800 
     24 N          -1.7744  -20.5181  -44.7511 N.am      10 UNK        -0.5000 
     25 C          -2.6405  -20.4234  -45.7702 C.2       9 UNK         0.5000 
     26 O          -3.1747  -21.3942  -46.3065 O.2       9 UNK        -0.5000 
     27 CA         -2.9169  -19.0089  -46.3070 C.3       9 UNK         0.1400 
     28 CB         -3.9648  -18.3009  -45.4380 C.3       9 UNK        -0.1800 
     29 N          -1.7006  -18.1960  -46.3841 N.am      9 UNK        -0.5000 
     30 C          -0.6604  -18.4626  -47.1872 C.2       8 UNK         0.5000 
     31 O          -0.6341  -19.3958  -47.9872 O.2       8 UNK        -0.5000 
     32 CA          0.5899  -17.5858  -47.0127 C.3       8 UNK         0.1400 
     33 CB          0.4696  -16.2818  -47.8084 C.3       8 UNK        -0.1800 
     34 N           0.8449  -17.2877  -45.6035 N.am      8 UNK        -0.5000 
     35 C           1.3147  -18.1924  -44.7332 C.2       7 UNK         0.5000 
     36 O           1.5882  -19.3511  -45.0424 O.2       7 UNK        -0.5000 
     37 CA          1.4755  -17.7536  -43.2663 C.3       7 UNK         0.1400 
     38 CB          2.8720  -17.1560  -43.0357 C.3       7 UNK        -0.1800 
     39 N           0.4594  -16.7992  -42.8226 N.am      7 UNK        -0.5000 
     40 C          -0.8569  -17.0449  -42.7691 C.2       6 UNK         0.5000 
     41 O          -1.3595  -18.1210  -43.0966 O.2       6 UNK        -0.5000 
     42 CA         -1.7743  -15.8950  -42.2951 C.3       6 UNK         0.1400 
     43 CB         -1.0101  -14.6744  -41.7355 C.3       6 UNK        -0.1800 
     44 N          -2.7201  -15.4474  -43.3253 N.am      6 UNK        -0.5000 
     45 C          -2.4427  -15.1088  -44.5937 C.2       5 UNK         0.5000 
     46 O          -1.3294  -15.2372  -45.1023 O.2       5 UNK        -0.5000 
     47 CA         -3.5897  -14.5206  -45.4419 C.3       5 UNK         0.1400 
     48 CB         -4.9768  -14.5999  -44.7718 C.3       5 UNK        -0.1800 
     49 N          -3.2930  -13.1210  -45.7370 N.am      5 UNK        -0.5000 
     50 C          -2.5734  -12.6848  -46.7779 C.2       4 UNK         0.5000 
     51 O          -2.1878  -13.4135  -47.6943 O.2       4 UNK        -0.5000 
     52 CA         -2.2063  -11.1890  -46.8048 C.3       4 UNK         0.1400 
     53 CB         -2.4492  -10.4574  -45.4633 C.3       4 UNK        -0.1800 
     54 N          -0.8042  -11.0886  -47.1926 N.am      4 UNK        -0.5000 
     55 C          -0.1591   -9.9936  -47.6115 C.2       3 UNK         0.5000 
     56 O          -0.7050   -8.9004  -47.7734 O.2       3 UNK        -0.5000 
     57 CA          1.3527  -10.1588  -47.8938 C.3       3 UNK         0.1400 
     58 CB          2.1370   -8.8342  -47.7878 C.3       3 UNK        -0.1800 
     59 N           1.9717  -11.2074  -47.0728 N.am      3 UNK        -0.5000 
     60 C           2.0762  -11.2572  -45.7382 C.2       2 UNK         0.5000 
     61 O           1.7679  -10.3291  -44.9902 O.2       2 UNK        -0.5000 
     62 CA          2.5619  -12.5838  -45.1177 C.3       2 UNK         0.1400 
     63 CB          1.3818  -13.5624  -44.9804 C.3       2 UNK        -0.1800 
     64 N           3.7053  -13.2380  -45.7713 N.am      2 UNK        -0.5000 
     65 C           3.8273  -13.7364  -47.0101 C.2       1 UNK         0.5000 
     66 O           2.9630  -13.6231  -47.8801 O.2       1 UNK        -0.5000 
     67 C           0.2586  -22.9562  -48.2489 C.2       11 UNK         0.5000 
     68 O           0.4810  -24.0595  -48.7452 O.2       11 UNK        -0.5000 
     69 N          -0.7759  -22.1796  -48.6052 N.am      12 UNK        -0.5000 
     70 CA         -1.8058  -22.5616  -49.5733 C.3       12 UNK         0.1400 
     71 CB         -2.7671  -21.3880  -49.8141 C.3       12 UNK        -0.1800 
     72 C          -2.5759  -23.8204  -49.1378 C.2       12 UNK         0.5000 
     73 O          -2.7254  -24.7432  -49.9379 O.2       12 UNK        -0.5000 
     74 N          -2.9913  -23.8626  -47.8639 N.am      13 UNK        -0.5000 
     75 CA         -3.6472  -25.0144  -47.2453 C.3       13 UNK         0.1400 
     76 CB         -4.1233  -24.6410  -45.8338 C.3       13 UNK        -0.1800 
     77 C          -2.7545  -26.2705  -47.2203 C.2       13 UNK         0.5000 
     78 O          -3.2309  -27.3558  -47.5537 O.2       13 UNK        -0.5000 
     79 N          -1.4681  -26.1013  -46.8797 N.am      14 UNK        -0.5000 
     80 CA         -0.4514  -27.1582  -46.9021 C.3       14 UNK         0.1400 
     81 CB          0.8398  -26.6450  -46.2473 C.3       14 UNK        -0.1800 
     82 C          -0.1676  -27.6979  -48.3185 C.2       14 UNK         0.5000 
     83 O           0.0714  -28.8954  -48.4764 O.2       14 UNK        -0.5000 
     84 N          -0.2439  -26.8170  -49.3246 N.am      15 UNK        -0.5000 
     85 CA         -0.1479  -27.1375  -50.7508 C.3       15 UNK         0.1400 
     86 CB          0.2528  -25.8653  -51.5172 C.3       15 UNK        -0.1800 
     87 C          -1.4382  -27.7547  -51.3376 C.2       15 UNK         0.5000 
     88 O          -1.4556  -28.0790  -52.5258 O.2       15 UNK        -0.5000 
     89 N          -2.4845  -27.9065  -50.5113 N.am      16 UNK        -0.5000 
     90 CA         -3.8089  -28.4541  -50.8213 C.3       16 UNK         0.1400 
     91 CB         -3.7171  -29.9149  -51.3115 C.3       16 UNK        -0.1800 
     92 C          -4.6570  -27.5544  -51.7447 C.2       16 UNK         0.5000 
     93 O          -5.5743  -28.0470  -52.4050 O.2       16 UNK        -0.5000 
     94 N          -4.3696  -26.2476  -51.7452 N.am      17 UNK        -0.5000 
     95 CA         -5.2219  -25.2063  -52.3116 C.3       17 UNK         0.1400 
     96 CB         -4.3268  -24.0897  -52.8788 C.3       17 UNK        -0.1800 
     97 C          -6.1659  -24.6652  -51.2202 C.2       17 UNK         0.5000 
     98 O          -6.0619  -25.0510  -50.0520 O.2       17 UNK        -0.5000 
     99 N          -7.0779  -23.7688  -51.6125 N.am      18 UNK        -0.5000 
    100 CA        -7.9345  -23.0309  -50.6852 C.3       18 UNK         0.1400 
    101 CB        -9.0351  -22.3117  -51.4807 C.3       18 UNK        -0.1800 
    102 C         -7.1111  -22.0132  -49.8764 C.2       18 UNK         0.5000 
    103 O         -6.2432  -21.3491  -50.4439 O.2       18 UNK        -0.5000 
    104 N         -7.4342  -21.8560  -48.5866 N.am      19 UNK        -0.5000 
    105 CA        -6.7780  -20.9083  -47.6758 C.3       19 UNK         0.1400 
    106 CB        -7.2318  -21.2035  -46.2381 C.3       19 UNK        -0.1800 
    107 C         -7.0165  -19.4246  -48.0342 C.2       19 UNK         0.5000 
    108 O         -6.3094  -18.5566  -47.5278 O.2       19 UNK        -0.5000 
    109 N         -7.9964  -19.1552  -48.9074 N.am      20 UNK        -0.5000 
    110 CA        -8.2521  -17.8427  -49.4986 C.3       20 UNK         0.1400 
    111 CB        -9.6487  -17.8576  -50.1399 C.3       20 UNK        -0.1800 
    112 C         -7.1878  -17.4204  -50.5345 C.2       20 UNK         0.5000 
    113 O         -7.0839  -16.2286  -50.8292 O.2       20 UNK        -0.5000 
    114 N         -6.4333  -18.3843  -51.0829 N.am      21 UNK        -0.5000 
    115 CA        -5.3431  -18.1416  -52.0253 C.3       21 UNK         0.1400 
    116 CB        -5.0843  -19.4246  -52.8332 C.3       21 UNK        -0.1800 
    117 C         -4.0583  -17.6883  -51.3074 C.2       21 UNK         0.5000 
    118 O         -3.9129  -17.8800  -50.0975 O.2       21 UNK        -0.5000 
    119 N         -3.1395  -17.1133  -52.0916 N.am      22 UNK        -0.5000 
    120 CA        -1.7702  -16.6966  -51.7311 C.3       22 UNK         0.1400 
    121 C         -1.6656  -15.5023  -50.7394 C.2       22 UNK         0.5000 
    122 N         -2.5243  -15.3987  -49.7363 N.am      22 UNK        -0.7600 
    123 O         -0.7893  -14.6571  -50.8942 O.2       22 UNK        -0.5000 
    124 C124       -0.8783  -17.8720  -51.2495 C.3       23 UNK        -0.0398 
    125 S125       -0.8021  -19.2572  -52.4383 S.3       23 UNK        -0.2404 
    126 C126        0.8638  -19.0574  -53.1429 C.3       23 UNK        -0.0205 
    127 H127        7.7907  -11.2239  -45.6363 H         1 UNK         0.0600 
    128 H128        8.2591  -11.8971  -47.2003 H         1 UNK         0.0600 
    129 H129        8.9217  -12.5792  -45.7124 H         1 UNK         0.0600 
    130 H130        6.6373  -13.1403  -48.0775 H         1 UNK         0.3000 
    131 H131        5.2932  -15.2245  -46.5678 H         1 UNK         0.0600 
    132 H132        4.8552  -14.4822  -49.5031 H         1 UNK         0.0800 
    133 H133        6.2023  -15.4425  -48.9561 H         1 UNK         0.0800 
    134 H134        5.7520  -17.7213  -50.2465 H         1 UNK         0.0800 
    135 H135        4.7338  -16.5819  -51.0958 H         1 UNK         0.0800 
    136 H136        2.6405  -17.2731  -52.0892 H         1 UNK         0.1150 
    137 H137        1.5129  -21.4032  -51.9256 H         1 UNK         0.1150 
    138 H138        4.8189  -19.9801  -49.5871 H         1 UNK         0.1150 
    139 H139        2.4935  -22.8735  -50.3457 H         1 UNK         0.0800 
    140 H140        4.2049  -22.7258  -50.6555 H         1 UNK         0.0800 
    141 H141        1.8246  -20.7441  -48.3469 H         1 UNK         0.0800 
    142 H142        2.6323  -20.8654  -46.8182 H         1 UNK         0.0800 
    143 H143        1.6846  -23.3141  -46.7001 H         1 UNK         0.0600 
    144 H144        0.5327  -20.8922  -45.8137 H         1 UNK         0.3000 
    145 H145       -2.1405  -22.3876  -43.9309 H         1 UNK         0.0600 
    146 H146       -1.0509  -20.9810  -42.1900 H         1 UNK         0.0600 
    147 H147       -0.1225  -22.4445  -42.4837 H         1 UNK         0.0600 
    148 H148        0.4282  -20.9114  -43.1448 H         1 UNK         0.0600 
    149 H149       -1.4359  -19.6638  -44.3184 H         1 UNK         0.3000 
    150 H150       -3.3225  -19.1095  -47.3164 H         1 UNK         0.0600 
    151 H151       -4.8420  -18.9317  -45.2928 H         1 UNK         0.0600 
    152 H152       -4.3069  -17.3854  -45.9174 H         1 UNK         0.0600 
    153 H153       -3.5825  -18.0509  -44.4496 H         1 UNK         0.0600 
    154 H154       -1.6142  -17.4249  -45.7358 H         1 UNK         0.3000 
    155 H155        1.4465  -18.1368  -47.4082 H         1 UNK         0.0600 
    156 H156       -0.4164  -15.7091  -47.5339 H         1 UNK         0.0600 
    157 H157        1.3408  -15.6486  -47.6545 H         1 UNK         0.0600 
    158 H158        0.4117  -16.4883  -48.8758 H         1 UNK         0.0600 
    159 H159        0.5432  -16.3808  -45.2682 H         1 UNK         0.3000 
    160 H160        1.3819  -18.6460  -42.6444 H         1 UNK         0.0600 
    161 H161        3.0316  -16.2549  -43.6285 H         1 UNK         0.0600 
    162 H162        3.6498  -17.8692  -43.3118 H         1 UNK         0.0600 
    163 H163        3.0252  -16.9011  -41.9869 H         1 UNK         0.0600 
    164 H164        0.7864  -15.8853  -42.5471 H         1 UNK         0.3000 
    165 H165       -2.3739  -16.3084  -41.4829 H         1 UNK         0.0600 
    166 H166       -1.7034  -13.9356  -41.3333 H         1 UNK         0.0600 
    167 H167       -0.3448  -14.9605  -40.9197 H         1 UNK         0.0600 
    168 H168       -0.4134  -14.1774  -42.5004 H         1 UNK         0.0600 
    169 H169       -3.6751  -15.3450  -43.0135 H         1 UNK         0.3000 
    170 H170       -3.6307  -15.0933  -46.3708 H         1 UNK         0.0600 
    171 H171       -5.2419  -15.6270  -44.5187 H         1 UNK         0.0600 
    172 H172       -5.0284  -14.0040  -43.8597 H         1 UNK         0.0600 
    173 H173       -5.7505  -14.2316  -45.4459 H         1 UNK         0.0600 
    174 H174       -3.5425  -12.4539  -45.0216 H         1 UNK         0.3000 
    175 H175       -2.8170  -10.7224  -47.5799 H         1 UNK         0.0600 
    176 H176       -1.8678  -10.8997  -44.6530 H         1 UNK         0.0600 
    177 H177       -2.1716   -9.4055  -45.5276 H         1 UNK         0.0600 
    178 H178       -3.5019  -10.4819  -45.1794 H         1 UNK         0.0600 
    179 H179       -0.2974  -11.9632  -47.1609 H         1 UNK         0.3000 
    180 H180        1.4288  -10.5026  -48.9262 H         1 UNK         0.0600 
    181 H181        2.0399   -8.3818  -46.8007 H         1 UNK         0.0600 
    182 H182        1.7751   -8.1072  -48.5157 H         1 UNK         0.0600 
    183 H183        3.1980   -8.9877  -47.9845 H         1 UNK         0.0600 
    184 H184        2.2600  -12.0489  -47.5726 H         1 UNK         0.3000 
    185 H185        2.9036  -12.3435  -44.1097 H         1 UNK         0.0600 
    186 H186        0.5494  -13.0989  -44.4496 H         1 UNK         0.0600 
    187 H187        1.0027  -13.8824  -45.9511 H         1 UNK         0.0600 
    188 H188        1.6673  -14.4524  -44.4226 H         1 UNK         0.0600 
    189 H189        4.5309  -13.3279  -45.1855 H         1 UNK         0.3000 
    190 H190       -0.8578  -21.2511  -48.1978 H         1 UNK         0.3000 
    191 H191       -1.3022  -22.7843  -50.5161 H         1 UNK         0.0600 
    192 H192       -3.3370  -21.1326  -48.9217 H         1 UNK         0.0600 
    193 H193       -3.4852  -21.6300  -50.5973 H         1 UNK         0.0600 
    194 H194       -2.2320  -20.4938  -50.1292 H         1 UNK         0.0600 
    195 H195       -2.8591  -23.0421  -47.2787 H         1 UNK         0.3000 
    196 H196       -4.5283  -25.2502  -47.8447 H         1 UNK         0.0600 
    197 H197       -4.6462  -25.4753  -45.3649 H         1 UNK         0.0600 
    198 H198       -4.8138  -23.7978  -45.8627 H         1 UNK         0.0600 
    199 H199       -3.2908  -24.3680  -45.1855 H         1 UNK         0.0600 
    200 H200       -1.1619  -25.1839  -46.5665 H         1 UNK         0.3000 
    201 H201       -0.8265  -27.9902  -46.3027 H         1 UNK         0.0600 
    202 H202        0.6617  -26.3273  -45.2199 H         1 UNK         0.0600 
    203 H203        1.2583  -25.7984  -46.7916 H         1 UNK         0.0600 
    204 H204        1.6008  -27.4258  -46.2195 H         1 UNK         0.0600 
    205 H205       -0.3751  -25.8360  -49.0965 H         1 UNK         0.3000 
    206 H206        0.6471  -27.8737  -50.8845 H         1 UNK         0.0600 
    207 H207        1.1871  -25.4528  -51.1358 H         1 UNK         0.0600 
    208 H208        0.4005  -26.0734  -52.5775 H         1 UNK         0.0600 
    209 H209       -0.5103  -25.0910  -51.4386 H         1 UNK         0.0600 
    210 H210       -2.3778  -27.5775  -49.5594 H         1 UNK         0.3000 
    211 H211       -4.3421  -28.4712  -49.8700 H         1 UNK         0.0600 
    212 H212       -3.2812  -29.9838  -52.3083 H         1 UNK         0.0600 
    213 H213       -4.7054  -30.3735  -51.3580 H         1 UNK         0.0600 
    214 H214       -3.1124  -30.5204  -50.6363 H         1 UNK         0.0600 
    215 H215       -3.6525  -25.9103  -51.1068 H         1 UNK         0.3000 
    216 H216       -5.8285  -25.6131  -53.1231 H         1 UNK         0.0600 
    217 H217       -4.9175  -23.3301  -53.3917 H         1 UNK         0.0600 
    218 H218       -3.6138  -24.4864  -53.6016 H         1 UNK         0.0600 
    219 H219       -3.7610  -23.5857  -52.0958 H         1 UNK         0.0600 
    220 H220       -7.0941  -23.4691  -52.5760 H         1 UNK         0.3000 
    221 H221       -8.4042  -23.7407  -50.0007 H         1 UNK         0.0600 
    222 H222       -8.6184  -21.5848  -52.1796 H         1 UNK         0.0600 
    223 H223       -9.6360  -23.0198  -52.0517 H         1 UNK         0.0600 
    224 H224       -9.7128  -21.7756  -50.8151 H         1 UNK         0.0600 
    225 H225       -8.1675  -22.4256  -48.1891 H         1 UNK         0.3000 
    226 H226       -5.7007  -21.0806  -47.7328 H         1 UNK         0.0600 
    227 H227       -6.9861  -22.2256  -45.9494 H         1 UNK         0.0600 
    228 H228       -6.7366  -20.5412  -45.5272 H         1 UNK         0.0600 
    229 H229       -8.3074  -21.0675  -46.1198 H         1 UNK         0.0600 
    230 H230       -8.5423  -19.9259  -49.2607 H         1 UNK         0.3000 
    231 H231       -8.2487  -17.0974  -48.7004 H         1 UNK         0.0600 
    232 H232       -9.8928  -16.8844  -50.5679 H         1 UNK         0.0600 
    233 H233      -10.4189  -18.0895  -49.4041 H         1 UNK         0.0600 
    234 H234       -9.7154  -18.5946  -50.9414 H         1 UNK         0.0600 
    235 H235       -6.5197  -19.3368  -50.7458 H         1 UNK         0.3000 
    236 H236       -5.6496  -17.3558  -52.7191 H         1 UNK         0.0600 
    237 H237       -6.0006  -19.8005  -53.2887 H         1 UNK         0.0600 
    238 H238       -4.3712  -19.2441  -53.6382 H         1 UNK         0.0600 
    239 H239       -4.6702  -20.2167  -52.2093 H         1 UNK         0.0600 
    240 H240       -3.3702  -16.9816  -53.0655 H         1 UNK         0.3000 
    241 H241       -1.3371  -16.3368  -52.6656 H         1 UNK         0.0600 
    242 H242       -3.2088  -16.1346  -49.5983 H         1 UNK         0.3800 
    243 H243       -2.4304  -14.6393  -49.0655 H         1 UNK         0.3800 
    244 H244        0.1325  -17.5198  -51.0437 H         1 UNK         0.0800 
    245 H245       -1.2513  -18.2639  -50.3034 H         1 UNK         0.0800 
    246 H246        0.9535  -18.0586  -53.5727 H         1 UNK         0.0800 
    247 H247        0.9805  -19.7577  -53.9710 H         1 UNK         0.0800 
@<TRIPOS>BOND
     1    1    2 1    
     2    1  127 1    
     3    1  128 1    
     4    1  129 1    
     5    2    3 2    
     6    2    4 am   BACKBONE|DICT|INTERRES
     7    4    5 1    
     8    4  130 1    
     9    5    6 1    
    10    5   65 1    
    11    5  131 1    
    12    6    7 1    
    13    6  132 1    
    14    6  133 1    
    15    7    8 1    
    16    8    9 1    
    17    8  134 1    
    18    8  135 1    
    19    9   10 ar   
    20    9   14 ar   
    21   10   11 ar   
    22   10  136 1    
    23   11   12 ar   
    24   11  126 1    
    25   12   13 ar   
    26   12  137 1    
    27   13   14 ar   
    28   13   15 1    
    29   14  138 1    
    30   15   16 1    
    31   15  139 1    
    32   15  140 1    
    33   16   17 1    
    34   17   18 1    
    35   17  141 1    
    36   17  142 1    
    37   18   19 1    
    38   18   67 1    
    39   18  143 1    
    40   19   20 am   BACKBONE|DICT|INTERRES
    41   19  144 1    
    42   20   21 2    
    43   20   22 1    
    44   22   23 1    
    45   22   24 1    
    46   22  145 1    
    47   23  146 1    
    48   23  147 1    
    49   23  148 1    
    50   24   25 am   BACKBONE|DICT|INTERRES
    51   24  149 1    
    52   25   26 2    
    53   25   27 1    
    54   27   28 1    
    55   27   29 1    
    56   27  150 1    
    57   28  151 1    
    58   28  152 1    
    59   28  153 1    
    60   29   30 am   BACKBONE|DICT|INTERRES
    61   29  154 1    
    62   30   31 2    
    63   30   32 1    
    64   32   33 1    
    65   32   34 1    
    66   32  155 1    
    67   33  156 1    
    68   33  157 1    
    69   33  158 1    
    70   34   35 am   BACKBONE|DICT|INTERRES
    71   34  159 1    
    72   35   36 2    
    73   35   37 1    
    74   37   38 1    
    75   37   39 1    
    76   37  160 1    
    77   38  161 1    
    78   38  162 1    
    79   38  163 1    
    80   39   40 am   BACKBONE|DICT|INTERRES
    81   39  164 1    
    82   40   41 2    
    83   40   42 1    
    84   42   43 1    
    85   42   44 1    
    86   42  165 1    
    87   43  166 1    
    88   43  167 1    
    89   43  168 1    
    90   44   45 am   BACKBONE|DICT|INTERRES
    91   44  169 1    
    92   45   46 2    
    93   45   47 1    
    94   47   48 1    
    95   47   49 1    
    96   47  170 1    
    97   48  171 1    
    98   48  172 1    
    99   48  173 1    
   100   49   50 am   BACKBONE|DICT|INTERRES
   101   49  174 1    
   102   50   51 2    
   103   50   52 1    
   104   52   53 1    
   105   52   54 1    
   106   52  175 1    
   107   53  176 1    
   108   53  177 1    
   109   53  178 1    
   110   54   55 am   BACKBONE|DICT|INTERRES
   111   54  179 1    
   112   55   56 2    
   113   55   57 1    
   114   57   58 1    
   115   57   59 1    
   116   57  180 1    
   117   58  181 1    
   118   58  182 1    
   119   58  183 1    
   120   59   60 am   BACKBONE|DICT|INTERRES
   121   59  184 1    
   122   60   61 2    
   123   60   62 1    
   124   62   63 1    
   125   62   64 1    
   126   62  185 1    
   127   63  186 1    
   128   63  187 1    
   129   63  188 1    
   130   64   65 am   BACKBONE|DICT|INTERRES
   131   64  189 1    
   132   65   66 2    
   133   67   68 2    
   134   67   69 am   BACKBONE|DICT|INTERRES
   135   69   70 1    
   136   69  190 1    
   137   70   71 1    
   138   70   72 1    
   139   70  191 1    
   140   71  192 1    
   141   71  193 1    
   142   71  194 1    
   143   72   73 2    
   144   72   74 am   BACKBONE|DICT|INTERRES
   145   74   75 1    
   146   74  195 1    
   147   75   76 1    
   148   75   77 1    
   149   75  196 1    
   150   76  197 1    
   151   76  198 1    
   152   76  199 1    
   153   77   78 2    
   154   77   79 am   BACKBONE|DICT|INTERRES
   155   79   80 1    
   156   79  200 1    
   157   80   81 1    
   158   80   82 1    
   159   80  201 1    
   160   81  202 1    
   161   81  203 1    
   162   81  204 1    
   163   82   83 2    
   164   82   84 am   BACKBONE|DICT|INTERRES
   165   84   85 1    
   166   84  205 1    
   167   85   86 1    
   168   85   87 1    
   169   85  206 1    
   170   86  207 1    
   171   86  208 1    
   172   86  209 1    
   173   87   88 2    
   174   87   89 am   BACKBONE|DICT|INTERRES
   175   89   90 1    
   176   89  210 1    
   177   90   91 1    
   178   90   92 1    
   179   90  211 1    
   180   91  212 1    
   181   91  213 1    
   182   91  214 1    
   183   92   93 2    
   184   92   94 am   BACKBONE|DICT|INTERRES
   185   94   95 1    
   186   94  215 1    
   187   95   96 1    
   188   95   97 1    
   189   95  216 1    
   190   96  217 1    
   191   96  218 1    
   192   96  219 1    
   193   97   98 2    
   194   97   99 am   BACKBONE|DICT|INTERRES
   195   99  100 1    
   196   99  220 1    
   197  100  101 1    
   198  100  102 1    
   199  100  221 1    
   200  101  222 1    
   201  101  223 1    
   202  101  224 1    
   203  102  103 2    
   204  102  104 am   BACKBONE|DICT|INTERRES
   205  104  105 1    
   206  104  225 1    
   207  105  106 1    
   208  105  107 1    
   209  105  226 1    
   210  106  227 1    
   211  106  228 1    
   212  106  229 1    
   213  107  108 2    
   214  107  109 am   BACKBONE|DICT|INTERRES
   215  109  110 1    
   216  109  230 1    
   217  110  111 1    
   218  110  112 1    
   219  110  231 1    
   220  111  232 1    
   221  111  233 1    
   222  111  234 1    
   223  112  113 2    
   224  112  114 am   BACKBONE|DICT|INTERRES
   225  114  115 1    
   226  114  235 1    
   227  115  116 1    
   228  115  117 1    
   229  115  236 1    
   230  116  237 1    
   231  116  238 1    
   232  116  239 1    
   233  117  118 2    
   234  117  119 am   BACKBONE|DICT|INTERRES
   235  119  120 1    
   236  119  240 1    
   237  120  121 1    
   238  120  124 1    
   239  120  241 1    
   240  121  122 am   BACKBONE|DICT|INTERRES
   241  121  123 2    
   242  122  242 1    
   243  122  243 1    
   244  124  125 1    
   245  124  244 1    
   246  124  245 1    
   247  125  126 1    
   248  126  246 1    
   249  126  247 1    
@<TRIPOS>SUBSTRUCTURE
     1 UNK         1 GROUP             0       ****    0 ROOT    
