@<TRIPOS>MOLECULE
3R540
247   249    1
SMALL
USER_CHARGES


@<TRIPOS>ATOM
      1 CA          2.7543  -10.6628  -46.0799 C.3       0 UNK        -0.1800 
      2 C           2.0107  -11.9807  -45.9250 C.2       0 UNK         0.5000 
      3 O           2.1379  -12.6402  -44.8945 O.2       0 UNK        -0.5000 
      4 N           1.2083  -12.3546  -46.9296 N.am      1 UNK        -0.5000 
      5 CA          0.4965  -13.6394  -47.0370 C.3       1 UNK         0.1400 
      6 C6         -0.0934  -13.8597  -48.4525 C.3       23 UNK        -0.0398 
      7 S7          1.1548  -13.7325  -49.7790 S.3       23 UNK        -0.2404 
      8 C8          0.1325  -14.0156  -51.2599 C.3       23 UNK        -0.0205 
      9 C9         -0.2683  -15.4764  -51.3995 C.ar      23 UNK        -0.0193 
     10 C10         0.5843  -16.3830  -52.0345 C.ar      23 UNK        -0.1150 
     11 C11         0.2241  -17.7280  -52.1627 C.ar      23 UNK        -0.0193 
     12 C12        -0.9874  -18.1704  -51.6233 C.ar      23 UNK        -0.1150 
     13 C13        -1.8418  -17.2759  -50.9719 C.ar      23 UNK        -0.0193 
     14 C14        -1.4884  -15.9256  -50.8892 C.ar      23 UNK        -0.1150 
     15 C15        -3.1358  -17.7730  -50.3415 C.3       23 UNK        -0.0205 
     16 S16        -3.2770  -17.3185  -48.5790 S.3       23 UNK        -0.2404 
     17 C17        -1.8540  -18.1902  -47.8319 C.3       23 UNK        -0.0398 
     18 CA         -2.2344  -19.6011  -47.3224 C.3       11 UNK         0.1400 
     19 N          -1.1177  -20.5466  -47.4088 N.am      11 UNK        -0.5000 
     20 C          -1.2375  -21.8825  -47.3681 C.2       10 UNK         0.5000 
     21 O          -2.3157  -22.4578  -47.2101 O.2       10 UNK        -0.5000 
     22 CA          0.0582  -22.7102  -47.4714 C.3       10 UNK         0.1400 
     23 CB          0.3629  -23.0409  -48.9410 C.3       10 UNK        -0.1800 
     24 N           1.2177  -22.0405  -46.8777 N.am      10 UNK        -0.5000 
     25 C           1.3177  -21.6852  -45.5893 C.2       9 UNK         0.5000 
     26 O           0.4553  -21.9396  -44.7481 O.2       9 UNK        -0.5000 
     27 CA          2.5427  -20.8482  -45.1728 C.3       9 UNK         0.1400 
     28 CB          3.6862  -20.8260  -46.2112 C.3       9 UNK        -0.1800 
     29 N           2.1382  -19.4849  -44.8263 N.am      9 UNK        -0.5000 
     30 C           1.4858  -18.6093  -45.6066 C.2       8 UNK         0.5000 
     31 O           1.1542  -18.8326  -46.7719 O.2       8 UNK        -0.5000 
     32 CA          1.1422  -17.2520  -44.9738 C.3       8 UNK         0.1400 
     33 CB         -0.1240  -17.3654  -44.1102 C.3       8 UNK        -0.1800 
     34 N           2.2278  -16.7217  -44.1548 N.am      8 UNK        -0.5000 
     35 C           3.4224  -16.3188  -44.6083 C.2       7 UNK         0.5000 
     36 O           3.7326  -16.2892  -45.7994 O.2       7 UNK        -0.5000 
     37 CA          4.4535  -15.9083  -43.5412 C.3       7 UNK         0.1400 
     38 CB          4.2627  -14.4439  -43.1173 C.3       7 UNK        -0.1800 
     39 N           4.3750  -16.7680  -42.3595 N.am      7 UNK        -0.5000 
     40 C           4.9008  -17.9985  -42.2820 C.2       6 UNK         0.5000 
     41 O           5.5603  -18.5198  -43.1814 O.2       6 UNK        -0.5000 
     42 CA          4.6406  -18.7846  -40.9821 C.3       6 UNK         0.1400 
     43 CB          5.7514  -18.5110  -39.9569 C.3       6 UNK        -0.1800 
     44 N           3.3437  -18.4772  -40.3758 N.am      6 UNK        -0.5000 
     45 C           2.1605  -18.8371  -40.8922 C.2       5 UNK         0.5000 
     46 O           2.0376  -19.4894  -41.9283 O.2       5 UNK        -0.5000 
     47 CA          0.9045  -18.3335  -40.1535 C.3       5 UNK         0.1400 
     48 CB          0.5143  -19.3010  -39.0267 C.3       5 UNK        -0.1800 
     49 N           1.0547  -16.9783  -39.6083 N.am      5 UNK        -0.5000 
     50 C           1.2872  -15.8928  -40.3567 C.2       4 UNK         0.5000 
     51 O           1.4193  -15.9300  -41.5821 O.2       4 UNK        -0.5000 
     52 CA          1.4517  -14.5540  -39.6290 C.3       4 UNK         0.1400 
     53 CB          2.8622  -14.4456  -39.0183 C.3       4 UNK        -0.1800 
     54 N           1.2435  -13.5011  -40.6155 N.am      4 UNK        -0.5000 
     55 C           1.0623  -12.1986  -40.3823 C.2       3 UNK         0.5000 
     56 O           1.0507  -11.6957  -39.2580 O.2       3 UNK        -0.5000 
     57 CA          0.8515  -11.3069  -41.6206 C.3       3 UNK         0.1400 
     58 CB          2.1990  -10.7681  -42.1251 C.3       3 UNK        -0.1800 
     59 N           0.1603  -11.9956  -42.7175 N.am      3 UNK        -0.5000 
     60 C          -1.1535  -12.2784  -42.7119 C.2       2 UNK         0.5000 
     61 O          -1.8936  -11.9982  -41.7678 O.2       2 UNK        -0.5000 
     62 CA         -1.7533  -12.9681  -43.9551 C.3       2 UNK         0.1400 
     63 CB         -3.1284  -12.3908  -44.3381 C.3       2 UNK        -0.1800 
     64 N          -0.8591  -12.8778  -45.1078 N.am      2 UNK        -0.5000 
     65 C          -0.5924  -13.8741  -45.9600 C.2       1 UNK         0.5000 
     66 O          -1.1706  -14.9595  -45.9259 O.2       1 UNK        -0.5000 
     67 C          -2.9219  -19.5803  -45.9368 C.2       11 UNK         0.5000 
     68 O          -4.0419  -19.0808  -45.8334 O.2       11 UNK        -0.5000 
     69 N          -2.3139  -20.2064  -44.9150 N.am      12 UNK        -0.5000 
     70 CA         -2.9639  -20.4974  -43.6317 C.3       12 UNK         0.1400 
     71 CB         -1.9208  -21.0353  -42.6411 C.3       12 UNK        -0.1800 
     72 C          -4.1519  -21.4794  -43.7681 C.2       12 UNK         0.5000 
     73 O          -5.0534  -21.4560  -42.9302 O.2       12 UNK        -0.5000 
     74 N          -4.1514  -22.2858  -44.8398 N.am      13 UNK        -0.5000 
     75 CA         -5.2512  -23.1476  -45.2759 C.3       13 UNK         0.1400 
     76 CB         -4.7430  -24.5993  -45.3264 C.3       13 UNK        -0.1800 
     77 C          -5.7953  -22.6800  -46.6446 C.2       13 UNK         0.5000 
     78 O          -6.2891  -23.4991  -47.4232 O.2       13 UNK        -0.5000 
     79 N          -5.6435  -21.3779  -46.9457 N.am      14 UNK        -0.5000 
     80 CA         -6.0092  -20.6839  -48.1913 C.3       14 UNK         0.1400 
     81 CB         -7.5425  -20.6508  -48.3554 C.3       14 UNK        -0.1800 
     82 C          -5.3118  -21.2326  -49.4563 C.2       14 UNK         0.5000 
     83 O          -5.7657  -20.9617  -50.5688 O.2       14 UNK        -0.5000 
     84 N          -4.2508  -22.0322  -49.2702 N.am      15 UNK        -0.5000 
     85 CA         -3.5413  -22.8264  -50.2728 C.3       15 UNK         0.1400 
     86 CB         -2.6701  -21.9181  -51.1596 C.3       15 UNK        -0.1800 
     87 C          -4.4862  -23.7525  -51.0641 C.2       15 UNK         0.5000 
     88 O          -4.3281  -23.9002  -52.2762 O.2       15 UNK        -0.5000 
     89 N          -5.4807  -24.3242  -50.3652 N.am      16 UNK        -0.5000 
     90 CA         -6.5780  -25.1355  -50.9063 C.3       16 UNK         0.1400 
     91 CB         -6.0454  -26.4723  -51.4650 C.3       16 UNK        -0.1800 
     92 C          -7.4465  -24.3538  -51.9186 C.2       16 UNK         0.5000 
     93 O          -7.8673  -24.9113  -52.9323 O.2       16 UNK        -0.5000 
     94 N          -7.6732  -23.0654  -51.6185 N.am      17 UNK        -0.5000 
     95 CA         -8.3037  -22.0450  -52.4624 C.3       17 UNK         0.1400 
     96 CB         -9.7701  -22.4005  -52.7882 C.3       17 UNK        -0.1800 
     97 C          -7.4461  -21.7336  -53.7066 C.2       17 UNK         0.5000 
     98 O          -7.9538  -21.7367  -54.8296 O.2       17 UNK        -0.5000 
     99 N          -6.1521  -21.4751  -53.4602 N.am      18 UNK        -0.5000 
    100 CA        -5.0943  -21.1812  -54.4348 C.3       18 UNK         0.1400 
    101 CB        -5.2987  -19.7804  -55.0460 C.3       18 UNK        -0.1800 
    102 C         -4.9246  -22.2912  -55.4949 C.2       18 UNK         0.5000 
    103 O         -4.9145  -22.0124  -56.6962 O.2       18 UNK        -0.5000 
    104 N         -4.8192  -23.5373  -55.0200 N.am      19 UNK        -0.5000 
    105 CA        -4.6528  -24.7396  -55.8365 C.3       19 UNK         0.1400 
    106 CB        -5.9037  -25.6206  -55.7028 C.3       19 UNK        -0.1800 
    107 C         -3.3939  -25.5276  -55.4397 C.2       19 UNK         0.5000 
    108 O         -2.7554  -26.1146  -56.3141 O.2       19 UNK        -0.5000 
    109 N         -3.0422  -25.5252  -54.1456 N.am      20 UNK        -0.5000 
    110 CA        -1.8372  -26.1687  -53.6163 C.3       20 UNK         0.1400 
    111 CB        -2.0169  -26.4248  -52.1117 C.3       20 UNK        -0.1800 
    112 C         -0.5740  -25.3257  -53.8676 C.2       20 UNK         0.5000 
    113 O          0.5166  -25.8839  -53.9932 O.2       20 UNK        -0.5000 
    114 N         -0.7486  -24.0029  -53.9465 N.am      21 UNK        -0.5000 
    115 CA         0.2760  -23.0140  -54.2451 C.3       21 UNK         0.1400 
    116 CB         1.0872  -22.6900  -52.9776 C.3       21 UNK        -0.1800 
    117 C         -0.4320  -21.7651  -54.7818 C.2       21 UNK         0.5000 
    118 O         -1.5402  -21.4615  -54.3341 O.2       21 UNK        -0.5000 
    119 N          0.2197  -21.0665  -55.7187 N.am      22 UNK        -0.5000 
    120 CA        -0.2438  -19.8057  -56.3331 C.3       22 UNK         0.1400 
    121 C         -1.5696  -19.9141  -57.1514 C.2       22 UNK         0.5000 
    122 N         -1.9859  -21.1013  -57.5731 N.am      22 UNK        -0.7600 
    123 O         -2.2168  -18.9100  -57.4363 O.2       22 UNK        -0.5000 
    124 C124       -0.2595  -18.6212  -55.3255 C.3       23 UNK        -0.0398 
    125 S125        1.3941  -18.2886  -54.6225 S.3       23 UNK        -0.2404 
    126 C126        1.1537  -18.7062  -52.8659 C.3       23 UNK        -0.0205 
    127 H127        3.8100  -10.7991  -45.8458 H         1 UNK         0.0600 
    128 H128        2.3458   -9.9178  -45.3978 H         1 UNK         0.0600 
    129 H129        2.6797  -10.2742  -47.0957 H         1 UNK         0.0600 
    130 H130        1.1384  -11.7614  -47.7444 H         1 UNK         0.3000 
    131 H131        1.2450  -14.4174  -46.8735 H         1 UNK         0.0600 
    132 H132       -0.5446  -14.8513  -48.5147 H         1 UNK         0.0800 
    133 H133       -0.8909  -13.1417  -48.6515 H         1 UNK         0.0800 
    134 H134       -0.7508  -13.3759  -51.2274 H         1 UNK         0.0800 
    135 H135        0.6974  -13.7069  -52.1408 H         1 UNK         0.0800 
    136 H136        1.5287  -16.0415  -52.4349 H         1 UNK         0.1150 
    137 H137       -1.2611  -19.2129  -51.7055 H         1 UNK         0.1150 
    138 H138       -2.1513  -15.2299  -50.3943 H         1 UNK         0.1150 
    139 H139       -3.9790  -17.3456  -50.8854 H         1 UNK         0.0800 
    140 H140       -3.2259  -18.8564  -50.4354 H         1 UNK         0.0800 
    141 H141       -1.4450  -17.5731  -47.0312 H         1 UNK         0.0800 
    142 H142       -1.0589  -18.2566  -48.5750 H         1 UNK         0.0800 
    143 H143       -2.9834  -19.9887  -48.0120 H         1 UNK         0.0600 
    144 H144       -0.1897  -20.1349  -47.4527 H         1 UNK         0.3000 
    145 H145       -0.1029  -23.6456  -46.9317 H         1 UNK         0.0600 
    146 H146        1.2506  -23.6674  -49.0293 H         1 UNK         0.0600 
    147 H147       -0.4617  -23.5868  -49.4002 H         1 UNK         0.0600 
    148 H148        0.5288  -22.1389  -49.5316 H         1 UNK         0.0600 
    149 H149        1.9554  -21.7641  -47.5091 H         1 UNK         0.3000 
    150 H150        2.9302  -21.3001  -44.2586 H         1 UNK         0.0600 
    151 H151        4.0237  -21.8361  -46.4466 H         1 UNK         0.0600 
    152 H152        4.5478  -20.2835  -45.8210 H         1 UNK         0.0600 
    153 H153        3.3940  -20.3440  -47.1446 H         1 UNK         0.0600 
    154 H154        2.2698  -19.2412  -43.8489 H         1 UNK         0.3000 
    155 H155        0.9546  -16.5475  -45.7841 H         1 UNK         0.0600 
    156 H156       -0.9818  -17.6652  -44.7094 H         1 UNK         0.0600 
    157 H157       -0.3753  -16.4093  -43.6507 H         1 UNK         0.0600 
    158 H158       -0.0071  -18.0990  -43.3129 H         1 UNK         0.0600 
    159 H159        2.0330  -16.6287  -43.1613 H         1 UNK         0.3000 
    160 H160        5.4493  -16.0037  -43.9796 H         1 UNK         0.0600 
    161 H161        3.2620  -14.2599  -42.7263 H         1 UNK         0.0600 
    162 H162        4.4092  -13.7754  -43.9661 H         1 UNK         0.0600 
    163 H163        4.9814  -14.1553  -42.3504 H         1 UNK         0.0600 
    164 H164        3.8091  -16.4346  -41.5939 H         1 UNK         0.3000 
    165 H165        4.6585  -19.8483  -41.2294 H         1 UNK         0.0600 
    166 H166        5.6201  -19.1186  -39.0613 H         1 UNK         0.0600 
    167 H167        6.7319  -18.7515  -40.3703 H         1 UNK         0.0600 
    168 H168        5.7711  -17.4636  -39.6531 H         1 UNK         0.0600 
    169 H169        3.3538  -17.9421  -39.5201 H         1 UNK         0.3000 
    170 H170        0.0864  -18.3111  -40.8761 H         1 UNK         0.0600 
    171 H171        0.3751  -20.3121  -39.4121 H         1 UNK         0.0600 
    172 H172        1.2795  -19.3471  -38.2508 H         1 UNK         0.0600 
    173 H173       -0.4233  -19.0023  -38.5575 H         1 UNK         0.0600 
    174 H174        0.9667  -16.8799  -38.6070 H         1 UNK         0.3000 
    175 H175        0.6920  -14.4757  -38.8490 H         1 UNK         0.0600 
    176 H176        3.6365  -14.4981  -39.7850 H         1 UNK         0.0600 
    177 H177        2.9924  -13.5077  -38.4787 H         1 UNK         0.0600 
    178 H178        3.0473  -15.2511  -38.3069 H         1 UNK         0.0600 
    179 H179        1.2063  -13.8446  -41.5675 H         1 UNK         0.3000 
    180 H180        0.2439  -10.4532  -41.3125 H         1 UNK         0.0600 
    181 H181        2.8547  -11.5719  -42.4620 H         1 UNK         0.0600 
    182 H182        2.7233  -10.2271  -41.3363 H         1 UNK         0.0600 
    183 H183        2.0604  -10.0759  -42.9549 H         1 UNK         0.0600 
    184 H184        0.7387  -12.2981  -43.4952 H         1 UNK         0.3000 
    185 H185       -1.8872  -14.0148  -43.6742 H         1 UNK         0.0600 
    186 H186       -3.8421  -12.4899  -43.5194 H         1 UNK         0.0600 
    187 H187       -3.0609  -11.3326  -44.5924 H         1 UNK         0.0600 
    188 H188       -3.5493  -12.9156  -45.1960 H         1 UNK         0.0600 
    189 H189       -0.3527  -12.0107  -45.2162 H         1 UNK         0.3000 
    190 H190       -1.4061  -20.6298  -45.0632 H         1 UNK         0.3000 
    191 H191       -3.3552  -19.5582  -43.2352 H         1 UNK         0.0600 
    192 H192       -1.5357  -22.0068  -42.9524 H         1 UNK         0.0600 
    193 H193       -1.0747  -20.3545  -42.5435 H         1 UNK         0.0600 
    194 H194       -2.3551  -21.1597  -41.6484 H         1 UNK         0.0600 
    195 H195       -3.3637  -22.2436  -45.4784 H         1 UNK         0.3000 
    196 H196       -6.0831  -23.0978  -44.5710 H         1 UNK         0.0600 
    197 H197       -4.3546  -24.9134  -44.3575 H         1 UNK         0.0600 
    198 H198       -3.9457  -24.7188  -46.0614 H         1 UNK         0.0600 
    199 H199       -5.5444  -25.2899  -45.5919 H         1 UNK         0.0600 
    200 H200       -5.2189  -20.7807  -46.2451 H         1 UNK         0.3000 
    201 H201       -5.6651  -19.6546  -48.0821 H         1 UNK         0.0600 
    202 H202       -7.8355  -20.0205  -49.1960 H         1 UNK         0.0600 
    203 H203       -8.0241  -20.2438  -47.4664 H         1 UNK         0.0600 
    204 H204       -7.9539  -21.6447  -48.5337 H         1 UNK         0.0600 
    205 H205       -3.9321  -22.1886  -48.3199 H         1 UNK         0.3000 
    206 H206       -2.8734  -23.4914  -49.7251 H         1 UNK         0.0600 
    207 H207       -1.9684  -21.3415  -50.5573 H         1 UNK         0.0600 
    208 H208       -3.2699  -21.2145  -51.7353 H         1 UNK         0.0600 
    209 H209       -2.0820  -22.5065  -51.8627 H         1 UNK         0.0600 
    210 H210       -5.5490  -24.1137  -49.3749 H         1 UNK         0.3000 
    211 H211       -7.2306  -25.3676  -50.0634 H         1 UNK         0.0600 
    212 H212       -5.4524  -27.0015  -50.7193 H         1 UNK         0.0600 
    213 H213       -6.8662  -27.1304  -51.7521 H         1 UNK         0.0600 
    214 H214       -5.4212  -26.3277  -52.3463 H         1 UNK         0.0600 
    215 H215       -7.2301  -22.7027  -50.7858 H         1 UNK         0.3000 
    216 H216       -8.3193  -21.1297  -51.8687 H         1 UNK         0.0600 
    217 H217      -10.2654  -21.5707  -53.2935 H         1 UNK         0.0600 
    218 H218       -9.8470  -23.2691  -53.4423 H         1 UNK         0.0600 
    219 H219      -10.3354  -22.6118  -51.8806 H         1 UNK         0.0600 
    220 H220       -5.8607  -21.4700  -52.4873 H         1 UNK         0.3000 
    221 H221       -4.1601  -21.1561  -53.8752 H         1 UNK         0.0600 
    222 H222       -6.2082  -19.7280  -55.6451 H         1 UNK         0.0600 
    223 H223       -5.3619  -19.0181  -54.2696 H         1 UNK         0.0600 
    224 H224       -4.4627  -19.5139  -55.6937 H         1 UNK         0.0600 
    225 H225       -4.8195  -23.6643  -54.0107 H         1 UNK         0.3000 
    226 H226       -4.5407  -24.4713  -56.8888 H         1 UNK         0.0600 
    227 H227       -6.8012  -25.0772  -55.9992 H         1 UNK         0.0600 
    228 H228       -5.8302  -26.5037  -56.3386 H         1 UNK         0.0600 
    229 H229       -6.0463  -25.9642  -54.6783 H         1 UNK         0.0600 
    230 H230       -3.6011  -25.0027  -53.4753 H         1 UNK         0.3000 
    231 H231       -1.7051  -27.1329  -54.1120 H         1 UNK         0.0600 
    232 H232       -1.1715  -26.9850  -51.7104 H         1 UNK         0.0600 
    233 H233       -2.9166  -27.0072  -51.9128 H         1 UNK         0.0600 
    234 H234       -2.0857  -25.4939  -51.5490 H         1 UNK         0.0600 
    235 H235       -1.6817  -23.6186  -53.8670 H         1 UNK         0.3000 
    236 H236        0.9404  -23.4071  -55.0176 H         1 UNK         0.0600 
    237 H237        1.5800  -23.5782  -52.5824 H         1 UNK         0.0600 
    238 H238        1.8655  -21.9564  -53.1904 H         1 UNK         0.0600 
    239 H239        0.4541  -22.2814  -52.1892 H         1 UNK         0.0600 
    240 H240        1.1223  -21.3927  -56.0328 H         1 UNK         0.3000 
    241 H241        0.5055  -19.5654  -57.0880 H         1 UNK         0.0600 
    242 H242       -2.8642  -21.1722  -58.0635 H         1 UNK         0.3800 
    243 H243       -1.4637  -21.9340  -57.3575 H         1 UNK         0.3800 
    244 H244       -0.5805  -17.7015  -55.8167 H         1 UNK         0.0800 
    245 H245       -0.9840  -18.8034  -54.5310 H         1 UNK         0.0800 
    246 H246        2.1222  -18.6968  -52.3643 H         1 UNK         0.0800 
    247 H247        0.7763  -19.7259  -52.7876 H         1 UNK         0.0800 
@<TRIPOS>BOND
     1    1    2 1    
     2    1  127 1    
     3    1  128 1    
     4    1  129 1    
     5    2    3 2    
     6    2    4 am   BACKBONE|DICT|INTERRES
     7    4    5 1    
     8    4  130 1    
     9    5    6 1    
    10    5   65 1    
    11    5  131 1    
    12    6    7 1    
    13    6  132 1    
    14    6  133 1    
    15    7    8 1    
    16    8    9 1    
    17    8  134 1    
    18    8  135 1    
    19    9   10 ar   
    20    9   14 ar   
    21   10   11 ar   
    22   10  136 1    
    23   11   12 ar   
    24   11  126 1    
    25   12   13 ar   
    26   12  137 1    
    27   13   14 ar   
    28   13   15 1    
    29   14  138 1    
    30   15   16 1    
    31   15  139 1    
    32   15  140 1    
    33   16   17 1    
    34   17   18 1    
    35   17  141 1    
    36   17  142 1    
    37   18   19 1    
    38   18   67 1    
    39   18  143 1    
    40   19   20 am   BACKBONE|DICT|INTERRES
    41   19  144 1    
    42   20   21 2    
    43   20   22 1    
    44   22   23 1    
    45   22   24 1    
    46   22  145 1    
    47   23  146 1    
    48   23  147 1    
    49   23  148 1    
    50   24   25 am   BACKBONE|DICT|INTERRES
    51   24  149 1    
    52   25   26 2    
    53   25   27 1    
    54   27   28 1    
    55   27   29 1    
    56   27  150 1    
    57   28  151 1    
    58   28  152 1    
    59   28  153 1    
    60   29   30 am   BACKBONE|DICT|INTERRES
    61   29  154 1    
    62   30   31 2    
    63   30   32 1    
    64   32   33 1    
    65   32   34 1    
    66   32  155 1    
    67   33  156 1    
    68   33  157 1    
    69   33  158 1    
    70   34   35 am   BACKBONE|DICT|INTERRES
    71   34  159 1    
    72   35   36 2    
    73   35   37 1    
    74   37   38 1    
    75   37   39 1    
    76   37  160 1    
    77   38  161 1    
    78   38  162 1    
    79   38  163 1    
    80   39   40 am   BACKBONE|DICT|INTERRES
    81   39  164 1    
    82   40   41 2    
    83   40   42 1    
    84   42   43 1    
    85   42   44 1    
    86   42  165 1    
    87   43  166 1    
    88   43  167 1    
    89   43  168 1    
    90   44   45 am   BACKBONE|DICT|INTERRES
    91   44  169 1    
    92   45   46 2    
    93   45   47 1    
    94   47   48 1    
    95   47   49 1    
    96   47  170 1    
    97   48  171 1    
    98   48  172 1    
    99   48  173 1    
   100   49   50 am   BACKBONE|DICT|INTERRES
   101   49  174 1    
   102   50   51 2    
   103   50   52 1    
   104   52   53 1    
   105   52   54 1    
   106   52  175 1    
   107   53  176 1    
   108   53  177 1    
   109   53  178 1    
   110   54   55 am   BACKBONE|DICT|INTERRES
   111   54  179 1    
   112   55   56 2    
   113   55   57 1    
   114   57   58 1    
   115   57   59 1    
   116   57  180 1    
   117   58  181 1    
   118   58  182 1    
   119   58  183 1    
   120   59   60 am   BACKBONE|DICT|INTERRES
   121   59  184 1    
   122   60   61 2    
   123   60   62 1    
   124   62   63 1    
   125   62   64 1    
   126   62  185 1    
   127   63  186 1    
   128   63  187 1    
   129   63  188 1    
   130   64   65 am   BACKBONE|DICT|INTERRES
   131   64  189 1    
   132   65   66 2    
   133   67   68 2    
   134   67   69 am   BACKBONE|DICT|INTERRES
   135   69   70 1    
   136   69  190 1    
   137   70   71 1    
   138   70   72 1    
   139   70  191 1    
   140   71  192 1    
   141   71  193 1    
   142   71  194 1    
   143   72   73 2    
   144   72   74 am   BACKBONE|DICT|INTERRES
   145   74   75 1    
   146   74  195 1    
   147   75   76 1    
   148   75   77 1    
   149   75  196 1    
   150   76  197 1    
   151   76  198 1    
   152   76  199 1    
   153   77   78 2    
   154   77   79 am   BACKBONE|DICT|INTERRES
   155   79   80 1    
   156   79  200 1    
   157   80   81 1    
   158   80   82 1    
   159   80  201 1    
   160   81  202 1    
   161   81  203 1    
   162   81  204 1    
   163   82   83 2    
   164   82   84 am   BACKBONE|DICT|INTERRES
   165   84   85 1    
   166   84  205 1    
   167   85   86 1    
   168   85   87 1    
   169   85  206 1    
   170   86  207 1    
   171   86  208 1    
   172   86  209 1    
   173   87   88 2    
   174   87   89 am   BACKBONE|DICT|INTERRES
   175   89   90 1    
   176   89  210 1    
   177   90   91 1    
   178   90   92 1    
   179   90  211 1    
   180   91  212 1    
   181   91  213 1    
   182   91  214 1    
   183   92   93 2    
   184   92   94 am   BACKBONE|DICT|INTERRES
   185   94   95 1    
   186   94  215 1    
   187   95   96 1    
   188   95   97 1    
   189   95  216 1    
   190   96  217 1    
   191   96  218 1    
   192   96  219 1    
   193   97   98 2    
   194   97   99 am   BACKBONE|DICT|INTERRES
   195   99  100 1    
   196   99  220 1    
   197  100  101 1    
   198  100  102 1    
   199  100  221 1    
   200  101  222 1    
   201  101  223 1    
   202  101  224 1    
   203  102  103 2    
   204  102  104 am   BACKBONE|DICT|INTERRES
   205  104  105 1    
   206  104  225 1    
   207  105  106 1    
   208  105  107 1    
   209  105  226 1    
   210  106  227 1    
   211  106  228 1    
   212  106  229 1    
   213  107  108 2    
   214  107  109 am   BACKBONE|DICT|INTERRES
   215  109  110 1    
   216  109  230 1    
   217  110  111 1    
   218  110  112 1    
   219  110  231 1    
   220  111  232 1    
   221  111  233 1    
   222  111  234 1    
   223  112  113 2    
   224  112  114 am   BACKBONE|DICT|INTERRES
   225  114  115 1    
   226  114  235 1    
   227  115  116 1    
   228  115  117 1    
   229  115  236 1    
   230  116  237 1    
   231  116  238 1    
   232  116  239 1    
   233  117  118 2    
   234  117  119 am   BACKBONE|DICT|INTERRES
   235  119  120 1    
   236  119  240 1    
   237  120  121 1    
   238  120  124 1    
   239  120  241 1    
   240  121  122 am   BACKBONE|DICT|INTERRES
   241  121  123 2    
   242  122  242 1    
   243  122  243 1    
   244  124  125 1    
   245  124  244 1    
   246  124  245 1    
   247  125  126 1    
   248  126  246 1    
   249  126  247 1    
@<TRIPOS>SUBSTRUCTURE
     1 UNK         1 GROUP             0       ****    0 ROOT    
