@<TRIPOS>MOLECULE
3R540
247   249    1
SMALL
USER_CHARGES


@<TRIPOS>ATOM
      1 CA          3.7478  -15.2126  -46.9216 C.3       0 UNK        -0.1800 
      2 C           2.4110  -15.7250  -47.4356 C.2       0 UNK         0.5000 
      3 O           1.7266  -16.4680  -46.7338 O.2       0 UNK        -0.5000 
      4 N           2.0446  -15.3049  -48.6540 N.am      1 UNK        -0.5000 
      5 CA          0.8995  -15.7464  -49.4689 C.3       1 UNK         0.1400 
      6 C6          0.7682  -14.8841  -50.7490 C.3       23 UNK        -0.0398 
      7 S7          2.2396  -15.0471  -51.8221 S.3       23 UNK        -0.2404 
      8 C8          1.5904  -15.9674  -53.2567 C.3       23 UNK        -0.0205 
      9 C9          0.8628  -17.2430  -52.8565 C.ar      23 UNK        -0.0193 
     10 C10        -0.5238  -17.3282  -52.9963 C.ar      23 UNK        -0.1150 
     11 C11        -1.2133  -18.4897  -52.6317 C.ar      23 UNK        -0.0193 
     12 C12        -0.4978  -19.5590  -52.0824 C.ar      23 UNK        -0.1150 
     13 C13         0.8912  -19.4830  -51.9261 C.ar      23 UNK        -0.0193 
     14 C14         1.5675  -18.3306  -52.3374 C.ar      23 UNK        -0.1150 
     15 C15         1.6606  -20.6377  -51.2972 C.3       23 UNK        -0.0205 
     16 S16         2.5750  -20.1462  -49.7940 S.3       23 UNK        -0.2404 
     17 C17         1.2300  -19.5542  -48.7133 C.3       23 UNK        -0.0398 
     18 CA          0.5073  -20.6919  -47.9570 C.3       11 UNK         0.1400 
     19 N           1.3570  -21.3485  -46.9596 N.am      11 UNK        -0.5000 
     20 C           1.9029  -22.5653  -47.1058 C.2       10 UNK         0.5000 
     21 O           1.8008  -23.2470  -48.1255 O.2       10 UNK        -0.5000 
     22 CA          2.6933  -23.1404  -45.9105 C.3       10 UNK         0.1400 
     23 CB          4.1978  -22.8892  -46.0945 C.3       10 UNK        -0.1800 
     24 N           2.2804  -22.6022  -44.6142 N.am      10 UNK        -0.5000 
     25 C           1.0562  -22.7149  -44.0818 C.2       9 UNK         0.5000 
     26 O           0.1603  -23.3952  -44.5781 O.2       9 UNK        -0.5000 
     27 CA          0.7589  -21.8934  -42.8113 C.3       9 UNK         0.1400 
     28 CB          0.7005  -22.8068  -41.5782 C.3       9 UNK        -0.1800 
     29 N           1.6931  -20.7949  -42.5412 N.am      9 UNK        -0.5000 
     30 C           1.9758  -19.7590  -43.3416 C.2       8 UNK         0.5000 
     31 O           1.5434  -19.6605  -44.4920 O.2       8 UNK        -0.5000 
     32 CA          2.8883  -18.6631  -42.7500 C.3       8 UNK         0.1400 
     33 CB          3.0894  -17.4911  -43.7230 C.3       8 UNK        -0.1800 
     34 N           2.3791  -18.1417  -41.4775 N.am      8 UNK        -0.5000 
     35 C           2.4630  -18.7661  -40.2924 C.2       7 UNK         0.5000 
     36 O           2.9821  -19.8759  -40.1534 O.2       7 UNK        -0.5000 
     37 CA          1.8426  -18.0474  -39.0766 C.3       7 UNK         0.1400 
     38 CB          2.3168  -18.6183  -37.7239 C.3       7 UNK        -0.1800 
     39 N           2.0167  -16.5946  -39.1247 N.am      7 UNK        -0.5000 
     40 C           3.1674  -15.9028  -39.1182 C.2       6 UNK         0.5000 
     41 O           4.2786  -16.4207  -39.0008 O.2       6 UNK        -0.5000 
     42 CA          3.0691  -14.3734  -39.2953 C.3       6 UNK         0.1400 
     43 CB          3.8224  -13.9321  -40.5611 C.3       6 UNK        -0.1800 
     44 N           1.6805  -13.9171  -39.3927 N.am      6 UNK        -0.5000 
     45 C           0.9256  -13.5243  -38.3570 C.2       5 UNK         0.5000 
     46 O           1.3467  -13.4221  -37.2045 O.2       5 UNK        -0.5000 
     47 CA         -0.5576  -13.2166  -38.6505 C.3       5 UNK         0.1400 
     48 CB         -0.7595  -11.7096  -38.8694 C.3       5 UNK        -0.1800 
     49 N          -1.0860  -13.9405  -39.8104 N.am      5 UNK        -0.5000 
     50 C          -1.2591  -15.2687  -39.8781 C.2       4 UNK         0.5000 
     51 O          -1.0180  -16.0368  -38.9478 O.2       4 UNK        -0.5000 
     52 CA         -1.7103  -15.8396  -41.2362 C.3       4 UNK         0.1400 
     53 CB         -3.2428  -15.8887  -41.3216 C.3       4 UNK        -0.1800 
     54 N          -1.1853  -15.0836  -42.3762 N.am      4 UNK        -0.5000 
     55 C           0.1117  -14.9438  -42.6768 C.2       3 UNK         0.5000 
     56 O           1.0166  -15.4789  -42.0320 O.2       3 UNK        -0.5000 
     57 CA          0.4288  -14.0417  -43.8852 C.3       3 UNK         0.1400 
     58 CB          1.9341  -13.8147  -44.0946 C.3       3 UNK        -0.1800 
     59 N          -0.1606  -14.5553  -45.1235 N.am      3 UNK        -0.5000 
     60 C          -1.4312  -14.3532  -45.5038 C.2       2 UNK         0.5000 
     61 O          -2.2592  -13.7814  -44.7922 O.2       2 UNK        -0.5000 
     62 CA         -1.8372  -14.8530  -46.9024 C.3       2 UNK         0.1400 
     63 CB         -2.9604  -14.0111  -47.5364 C.3       2 UNK        -0.1800 
     64 N          -0.6803  -14.8796  -47.7957 N.am      2 UNK        -0.5000 
     65 C          -0.4528  -15.8140  -48.7252 C.2       1 UNK         0.5000 
     66 O          -1.2444  -16.7177  -48.9927 O.2       1 UNK        -0.5000 
     67 C          -0.7900  -20.1580  -47.3255 C.2       11 UNK         0.5000 
     68 O          -1.8325  -20.2196  -47.9731 O.2       11 UNK        -0.5000 
     69 N          -0.7275  -19.6288  -46.0955 N.am      12 UNK        -0.5000 
     70 CA         -1.8402  -18.9183  -45.4629 C.3       12 UNK         0.1400 
     71 CB         -1.3091  -18.1137  -44.2677 C.3       12 UNK        -0.1800 
     72 C          -3.0108  -19.8205  -45.0295 C.2       12 UNK         0.5000 
     73 O          -4.1341  -19.3276  -44.9193 O.2       12 UNK        -0.5000 
     74 N          -2.7461  -21.1117  -44.7870 N.am      13 UNK        -0.5000 
     75 CA         -3.7541  -22.0937  -44.3915 C.3       13 UNK         0.1400 
     76 CB         -3.0672  -23.2929  -43.7189 C.3       13 UNK        -0.1800 
     77 C          -4.5838  -22.5259  -45.6125 C.2       13 UNK         0.5000 
     78 O          -4.1095  -23.3306  -46.4164 O.2       13 UNK        -0.5000 
     79 N          -5.7888  -21.9516  -45.7480 N.am      14 UNK        -0.5000 
     80 CA         -6.7863  -22.2201  -46.7955 C.3       14 UNK         0.1400 
     81 CB         -7.4100  -23.6160  -46.5874 C.3       14 UNK        -0.1800 
     82 C          -6.2434  -22.0233  -48.2284 C.2       14 UNK         0.5000 
     83 O          -6.5715  -22.7993  -49.1295 O.2       14 UNK        -0.5000 
     84 N          -5.3645  -21.0214  -48.3944 N.am      15 UNK        -0.5000 
     85 CA         -4.6170  -20.6905  -49.6166 C.3       15 UNK         0.1400 
     86 CB         -5.5868  -20.1979  -50.7108 C.3       15 UNK        -0.1800 
     87 C          -3.7037  -21.8362  -50.1181 C.2       15 UNK         0.5000 
     88 O          -3.3548  -21.8634  -51.3012 O.2       15 UNK        -0.5000 
     89 N          -3.3893  -22.7955  -49.2309 N.am      16 UNK        -0.5000 
     90 CA         -2.7391  -24.0802  -49.4983 C.3       16 UNK         0.1400 
     91 CB         -1.2394  -23.8779  -49.7795 C.3       16 UNK        -0.1800 
     92 C          -3.4828  -24.9099  -50.5679 C.2       16 UNK         0.5000 
     93 O          -2.8512  -25.5356  -51.4199 O.2       16 UNK        -0.5000 
     94 N          -4.8246  -24.8653  -50.5086 N.am      17 UNK        -0.5000 
     95 CA         -5.7752  -25.4298  -51.4724 C.3       17 UNK         0.1400 
     96 CB         -5.6847  -26.9700  -51.5164 C.3       17 UNK        -0.1800 
     97 C          -5.6594  -24.7648  -52.8611 C.2       17 UNK         0.5000 
     98 O          -5.7471  -25.4456  -53.8843 O.2       17 UNK        -0.5000 
     99 N          -5.4634  -23.4368  -52.8509 N.am      18 UNK        -0.5000 
    100 CA        -5.2518  -22.5487  -53.9972 C.3       18 UNK         0.1400 
    101 CB        -6.5078  -22.4903  -54.8907 C.3       18 UNK        -0.1800 
    102 C         -3.9691  -22.9064  -54.7724 C.2       18 UNK         0.5000 
    103 O         -4.0148  -23.1159  -55.9859 O.2       18 UNK        -0.5000 
    104 N         -2.8417  -22.9720  -54.0492 N.am      19 UNK        -0.5000 
    105 CA        -1.5423  -23.4328  -54.5561 C.3       19 UNK         0.1400 
    106 CB        -0.5238  -23.4623  -53.4089 C.3       19 UNK        -0.1800 
    107 C         -0.9829  -22.6269  -55.7449 C.2       19 UNK         0.5000 
    108 O         -0.3263  -23.2080  -56.6097 O.2       19 UNK        -0.5000 
    109 N         -1.2738  -21.3207  -55.7799 N.am      20 UNK        -0.5000 
    110 CA        -0.9081  -20.4078  -56.8657 C.3       20 UNK         0.1400 
    111 CB        -0.1696  -19.1956  -56.2703 C.3       20 UNK        -0.1800 
    112 C         -2.1414  -19.9991  -57.7005 C.2       20 UNK         0.5000 
    113 O         -2.1371  -18.9242  -58.3017 O.2       20 UNK        -0.5000 
    114 N         -3.1783  -20.8551  -57.7168 N.am      21 UNK        -0.5000 
    115 CA        -4.4782  -20.6760  -58.3819 C.3       21 UNK         0.1400 
    116 CB        -4.3169  -20.5996  -59.9148 C.3       21 UNK        -0.1800 
    117 C         -5.2993  -19.5062  -57.7957 C.2       21 UNK         0.5000 
    118 O         -6.0445  -18.8403  -58.5170 O.2       21 UNK        -0.5000 
    119 N         -5.1246  -19.2779  -56.4898 N.am      22 UNK        -0.5000 
    120 CA        -5.7499  -18.2128  -55.6951 C.3       22 UNK         0.1400 
    121 C         -7.2958  -18.3362  -55.5984 C.2       22 UNK         0.5000 
    122 N         -8.0135  -17.2211  -55.5957 N.am      22 UNK        -0.7600 
    123 O         -7.8475  -19.4271  -55.4795 O.2       22 UNK        -0.5000 
    124 C124       -5.1198  -18.1434  -54.2812 C.3       23 UNK        -0.0398 
    125 S125       -3.3201  -17.8599  -54.3633 S.3       23 UNK        -0.2404 
    126 C126       -2.7278  -18.5888  -52.7991 C.3       23 UNK        -0.0205 
    127 H127        4.4986  -15.2254  -47.7119 H         1 UNK         0.0600 
    128 H128        4.1103  -15.8355  -46.1041 H         1 UNK         0.0600 
    129 H129        3.6495  -14.1908  -46.5570 H         1 UNK         0.0600 
    130 H130        2.6734  -14.6835  -49.1433 H         1 UNK         0.3000 
    131 H131        1.1264  -16.7671  -49.7791 H         1 UNK         0.0600 
    132 H132       -0.1265  -15.1474  -51.3143 H         1 UNK         0.0800 
    133 H133        0.6507  -13.8312  -50.4870 H         1 UNK         0.0800 
    134 H134        2.4188  -16.2202  -53.9198 H         1 UNK         0.0800 
    135 H135        0.9325  -15.3112  -53.8287 H         1 UNK         0.0800 
    136 H136       -1.0687  -16.4845  -53.3950 H         1 UNK         0.1150 
    137 H137       -1.0262  -20.4475  -51.7660 H         1 UNK         0.1150 
    138 H138        2.6400  -18.2656  -52.2189 H         1 UNK         0.1150 
    139 H139        0.9918  -21.4629  -51.0484 H         1 UNK         0.0800 
    140 H140        2.3690  -21.0284  -52.0287 H         1 UNK         0.0800 
    141 H141        0.5227  -18.9849  -49.3176 H         1 UNK         0.0800 
    142 H142        1.6552  -18.8431  -48.0036 H         1 UNK         0.0800 
    143 H143        0.1841  -21.4221  -48.6997 H         1 UNK         0.0600 
    144 H144        1.5048  -20.8506  -46.0884 H         1 UNK         0.3000 
    145 H145        2.5228  -24.2188  -45.8928 H         1 UNK         0.0600 
    146 H146        4.4293  -21.8232  -46.0966 H         1 UNK         0.0600 
    147 H147        4.7778  -23.3592  -45.3001 H         1 UNK         0.0600 
    148 H148        4.5496  -23.3027  -47.0407 H         1 UNK         0.0600 
    149 H149        2.9487  -22.0181  -44.1345 H         1 UNK         0.3000 
    150 H150       -0.2275  -21.4467  -42.9494 H         1 UNK         0.0600 
    151 H151       -0.0129  -23.6193  -41.7239 H         1 UNK         0.0600 
    152 H152        0.3849  -22.2547  -40.6927 H         1 UNK         0.0600 
    153 H153        1.6718  -23.2553  -41.3660 H         1 UNK         0.0600 
    154 H154        2.1153  -20.7800  -41.6169 H         1 UNK         0.3000 
    155 H155        3.8655  -19.1167  -42.5733 H         1 UNK         0.0600 
    156 H156        3.5677  -17.8256  -44.6442 H         1 UNK         0.0600 
    157 H157        3.7201  -16.7153  -43.2889 H         1 UNK         0.0600 
    158 H158        2.1365  -17.0392  -43.9988 H         1 UNK         0.0600 
    159 H159        1.9222  -17.2358  -41.5223 H         1 UNK         0.3000 
    160 H160        0.7683  -18.2238  -39.1446 H         1 UNK         0.0600 
    161 H161        1.8524  -18.0918  -36.8901 H         1 UNK         0.0600 
    162 H162        3.3983  -18.5446  -37.6075 H         1 UNK         0.0600 
    163 H163        2.0502  -19.6716  -37.6295 H         1 UNK         0.0600 
    164 H164        1.1564  -16.0691  -39.2104 H         1 UNK         0.3000 
    165 H165        3.5515  -13.9080  -38.4334 H         1 UNK         0.0600 
    166 H166        3.4715  -14.4674  -41.4434 H         1 UNK         0.0600 
    167 H167        3.7062  -12.8636  -40.7428 H         1 UNK         0.0600 
    168 H168        4.8906  -14.1308  -40.4668 H         1 UNK         0.0600 
    169 H169        1.2495  -14.0143  -40.3021 H         1 UNK         0.3000 
    170 H170       -1.1351  -13.5163  -37.7734 H         1 UNK         0.0600 
    171 H171       -0.2193  -11.3543  -39.7479 H         1 UNK         0.0600 
    172 H172       -1.8142  -11.4676  -39.0018 H         1 UNK         0.0600 
    173 H173       -0.4021  -11.1388  -38.0112 H         1 UNK         0.0600 
    174 H174       -1.3111  -13.3880  -40.6247 H         1 UNK         0.3000 
    175 H175       -1.3286  -16.8603  -41.3081 H         1 UNK         0.0600 
    176 H176       -3.6803  -14.8904  -41.2791 H         1 UNK         0.0600 
    177 H177       -3.5740  -16.3595  -42.2471 H         1 UNK         0.0600 
    178 H178       -3.6615  -16.4668  -40.4967 H         1 UNK         0.0600 
    179 H179       -1.8596  -14.6222  -42.9782 H         1 UNK         0.3000 
    180 H180       -0.0075  -13.0643  -43.6684 H         1 UNK         0.0600 
    181 H181        2.4634  -14.7443  -44.2951 H         1 UNK         0.0600 
    182 H182        2.3851  -13.3592  -43.2133 H         1 UNK         0.0600 
    183 H183        2.1145  -13.1381  -44.9297 H         1 UNK         0.0600 
    184 H184        0.4375  -15.1361  -45.7017 H         1 UNK         0.3000 
    185 H185       -2.2107  -15.8681  -46.7576 H         1 UNK         0.0600 
    186 H186       -3.2457  -14.4057  -48.5118 H         1 UNK         0.0600 
    187 H187       -3.8561  -14.0143  -46.9142 H         1 UNK         0.0600 
    188 H188       -2.6543  -12.9731  -47.6711 H         1 UNK         0.0600 
    189 H189        0.0245  -14.1738  -47.6332 H         1 UNK         0.3000 
    190 H190        0.1595  -19.5931  -45.5969 H         1 UNK         0.3000 
    191 H191       -2.2350  -18.2095  -46.1936 H         1 UNK         0.0600 
    192 H192       -0.9560  -18.7642  -43.4669 H         1 UNK         0.0600 
    193 H193       -0.4827  -17.4663  -44.5620 H         1 UNK         0.0600 
    194 H194       -2.0904  -17.4768  -43.8535 H         1 UNK         0.0600 
    195 H195       -1.8157  -21.4606  -44.9654 H         1 UNK         0.3000 
    196 H196       -4.4189  -21.6413  -43.6522 H         1 UNK         0.0600 
    197 H197       -2.4687  -22.9796  -42.8635 H         1 UNK         0.0600 
    198 H198       -2.4137  -23.8263  -44.4093 H         1 UNK         0.0600 
    199 H199       -3.8063  -24.0077  -43.3553 H         1 UNK         0.0600 
    200 H200       -6.0536  -21.2499  -45.0694 H         1 UNK         0.3000 
    201 H201       -7.5780  -21.4806  -46.6679 H         1 UNK         0.0600 
    202 H202       -8.2360  -23.7846  -47.2795 H         1 UNK         0.0600 
    203 H203       -7.8081  -23.7235  -45.5785 H         1 UNK         0.0600 
    204 H204       -6.6815  -24.4118  -46.7469 H         1 UNK         0.0600 
    205 H205       -5.1312  -20.4675  -47.5817 H         1 UNK         0.3000 
    206 H206       -3.9606  -19.8572  -49.3668 H         1 UNK         0.0600 
    207 H207       -6.2380  -20.9940  -51.0720 H         1 UNK         0.0600 
    208 H208       -5.0421  -19.8105  -51.5680 H         1 UNK         0.0600 
    209 H209       -6.2188  -19.3901  -50.3423 H         1 UNK         0.0600 
    210 H210       -3.7230  -22.6886  -48.2782 H         1 UNK         0.3000 
    211 H211       -2.8179  -24.6609  -48.5782 H         1 UNK         0.0600 
    212 H212       -0.7395  -23.5146  -48.8839 H         1 UNK         0.0600 
    213 H213       -0.7486  -24.8108  -50.0584 H         1 UNK         0.0600 
    214 H214       -1.0649  -23.1541  -50.5738 H         1 UNK         0.0600 
    215 H215       -5.2464  -24.2837  -49.7918 H         1 UNK         0.3000 
    216 H216       -6.7677  -25.1733  -51.0991 H         1 UNK         0.0600 
    217 H217       -6.4923  -27.3895  -52.1172 H         1 UNK         0.0600 
    218 H218       -4.7455  -27.3120  -51.9515 H         1 UNK         0.0600 
    219 H219       -5.7683  -27.3984  -50.5176 H         1 UNK         0.0600 
    220 H220       -5.3473  -23.0002  -51.9473 H         1 UNK         0.3000 
    221 H221       -5.0942  -21.5499  -53.5893 H         1 UNK         0.0600 
    222 H222       -6.7307  -23.4533  -55.3502 H         1 UNK         0.0600 
    223 H223       -7.3826  -22.1797  -54.3195 H         1 UNK         0.0600 
    224 H224       -6.3790  -21.7709  -55.6990 H         1 UNK         0.0600 
    225 H225       -2.8971  -22.7637  -53.0564 H         1 UNK         0.3000 
    226 H226       -1.6811  -24.4578  -54.9058 H         1 UNK         0.0600 
    227 H227       -0.8098  -24.1964  -52.6573 H         1 UNK         0.0600 
    228 H228        0.4678  -23.7429  -53.7666 H         1 UNK         0.0600 
    229 H229       -0.4357  -22.4905  -52.9242 H         1 UNK         0.0600 
    230 H230       -1.8134  -20.9275  -55.0229 H         1 UNK         0.3000 
    231 H231       -0.2210  -20.8975  -57.5582 H         1 UNK         0.0600 
    232 H232        0.2183  -18.5460  -57.0556 H         1 UNK         0.0600 
    233 H233        0.6787  -19.5085  -55.6611 H         1 UNK         0.0600 
    234 H234       -0.8239  -18.5934  -55.6427 H         1 UNK         0.0600 
    235 H235       -3.0966  -21.7131  -57.1808 H         1 UNK         0.3000 
    236 H236       -5.0516  -21.5779  -58.1628 H         1 UNK         0.0600 
    237 H237       -3.7367  -21.4414  -60.2925 H         1 UNK         0.0600 
    238 H238       -5.2878  -20.6281  -60.4107 H         1 UNK         0.0600 
    239 H239       -3.8197  -19.6811  -60.2271 H         1 UNK         0.0600 
    240 H240       -4.4684  -19.8617  -55.9981 H         1 UNK         0.3000 
    241 H241       -5.5285  -17.2742  -56.2073 H         1 UNK         0.0600 
    242 H242       -9.0167  -17.2869  -55.5180 H         1 UNK         0.3800 
    243 H243       -7.5845  -16.3126  -55.6848 H         1 UNK         0.3800 
    244 H244       -5.5629  -17.3345  -53.6976 H         1 UNK         0.0800 
    245 H245       -5.3195  -19.0662  -53.7367 H         1 UNK         0.0800 
    246 H246       -3.0338  -19.6347  -52.7704 H         1 UNK         0.0800 
    247 H247       -3.2083  -18.0881  -51.9576 H         1 UNK         0.0800 
@<TRIPOS>BOND
     1    1    2 1    
     2    1  127 1    
     3    1  128 1    
     4    1  129 1    
     5    2    3 2    
     6    2    4 am   BACKBONE|DICT|INTERRES
     7    4    5 1    
     8    4  130 1    
     9    5    6 1    
    10    5   65 1    
    11    5  131 1    
    12    6    7 1    
    13    6  132 1    
    14    6  133 1    
    15    7    8 1    
    16    8    9 1    
    17    8  134 1    
    18    8  135 1    
    19    9   10 ar   
    20    9   14 ar   
    21   10   11 ar   
    22   10  136 1    
    23   11   12 ar   
    24   11  126 1    
    25   12   13 ar   
    26   12  137 1    
    27   13   14 ar   
    28   13   15 1    
    29   14  138 1    
    30   15   16 1    
    31   15  139 1    
    32   15  140 1    
    33   16   17 1    
    34   17   18 1    
    35   17  141 1    
    36   17  142 1    
    37   18   19 1    
    38   18   67 1    
    39   18  143 1    
    40   19   20 am   BACKBONE|DICT|INTERRES
    41   19  144 1    
    42   20   21 2    
    43   20   22 1    
    44   22   23 1    
    45   22   24 1    
    46   22  145 1    
    47   23  146 1    
    48   23  147 1    
    49   23  148 1    
    50   24   25 am   BACKBONE|DICT|INTERRES
    51   24  149 1    
    52   25   26 2    
    53   25   27 1    
    54   27   28 1    
    55   27   29 1    
    56   27  150 1    
    57   28  151 1    
    58   28  152 1    
    59   28  153 1    
    60   29   30 am   BACKBONE|DICT|INTERRES
    61   29  154 1    
    62   30   31 2    
    63   30   32 1    
    64   32   33 1    
    65   32   34 1    
    66   32  155 1    
    67   33  156 1    
    68   33  157 1    
    69   33  158 1    
    70   34   35 am   BACKBONE|DICT|INTERRES
    71   34  159 1    
    72   35   36 2    
    73   35   37 1    
    74   37   38 1    
    75   37   39 1    
    76   37  160 1    
    77   38  161 1    
    78   38  162 1    
    79   38  163 1    
    80   39   40 am   BACKBONE|DICT|INTERRES
    81   39  164 1    
    82   40   41 2    
    83   40   42 1    
    84   42   43 1    
    85   42   44 1    
    86   42  165 1    
    87   43  166 1    
    88   43  167 1    
    89   43  168 1    
    90   44   45 am   BACKBONE|DICT|INTERRES
    91   44  169 1    
    92   45   46 2    
    93   45   47 1    
    94   47   48 1    
    95   47   49 1    
    96   47  170 1    
    97   48  171 1    
    98   48  172 1    
    99   48  173 1    
   100   49   50 am   BACKBONE|DICT|INTERRES
   101   49  174 1    
   102   50   51 2    
   103   50   52 1    
   104   52   53 1    
   105   52   54 1    
   106   52  175 1    
   107   53  176 1    
   108   53  177 1    
   109   53  178 1    
   110   54   55 am   BACKBONE|DICT|INTERRES
   111   54  179 1    
   112   55   56 2    
   113   55   57 1    
   114   57   58 1    
   115   57   59 1    
   116   57  180 1    
   117   58  181 1    
   118   58  182 1    
   119   58  183 1    
   120   59   60 am   BACKBONE|DICT|INTERRES
   121   59  184 1    
   122   60   61 2    
   123   60   62 1    
   124   62   63 1    
   125   62   64 1    
   126   62  185 1    
   127   63  186 1    
   128   63  187 1    
   129   63  188 1    
   130   64   65 am   BACKBONE|DICT|INTERRES
   131   64  189 1    
   132   65   66 2    
   133   67   68 2    
   134   67   69 am   BACKBONE|DICT|INTERRES
   135   69   70 1    
   136   69  190 1    
   137   70   71 1    
   138   70   72 1    
   139   70  191 1    
   140   71  192 1    
   141   71  193 1    
   142   71  194 1    
   143   72   73 2    
   144   72   74 am   BACKBONE|DICT|INTERRES
   145   74   75 1    
   146   74  195 1    
   147   75   76 1    
   148   75   77 1    
   149   75  196 1    
   150   76  197 1    
   151   76  198 1    
   152   76  199 1    
   153   77   78 2    
   154   77   79 am   BACKBONE|DICT|INTERRES
   155   79   80 1    
   156   79  200 1    
   157   80   81 1    
   158   80   82 1    
   159   80  201 1    
   160   81  202 1    
   161   81  203 1    
   162   81  204 1    
   163   82   83 2    
   164   82   84 am   BACKBONE|DICT|INTERRES
   165   84   85 1    
   166   84  205 1    
   167   85   86 1    
   168   85   87 1    
   169   85  206 1    
   170   86  207 1    
   171   86  208 1    
   172   86  209 1    
   173   87   88 2    
   174   87   89 am   BACKBONE|DICT|INTERRES
   175   89   90 1    
   176   89  210 1    
   177   90   91 1    
   178   90   92 1    
   179   90  211 1    
   180   91  212 1    
   181   91  213 1    
   182   91  214 1    
   183   92   93 2    
   184   92   94 am   BACKBONE|DICT|INTERRES
   185   94   95 1    
   186   94  215 1    
   187   95   96 1    
   188   95   97 1    
   189   95  216 1    
   190   96  217 1    
   191   96  218 1    
   192   96  219 1    
   193   97   98 2    
   194   97   99 am   BACKBONE|DICT|INTERRES
   195   99  100 1    
   196   99  220 1    
   197  100  101 1    
   198  100  102 1    
   199  100  221 1    
   200  101  222 1    
   201  101  223 1    
   202  101  224 1    
   203  102  103 2    
   204  102  104 am   BACKBONE|DICT|INTERRES
   205  104  105 1    
   206  104  225 1    
   207  105  106 1    
   208  105  107 1    
   209  105  226 1    
   210  106  227 1    
   211  106  228 1    
   212  106  229 1    
   213  107  108 2    
   214  107  109 am   BACKBONE|DICT|INTERRES
   215  109  110 1    
   216  109  230 1    
   217  110  111 1    
   218  110  112 1    
   219  110  231 1    
   220  111  232 1    
   221  111  233 1    
   222  111  234 1    
   223  112  113 2    
   224  112  114 am   BACKBONE|DICT|INTERRES
   225  114  115 1    
   226  114  235 1    
   227  115  116 1    
   228  115  117 1    
   229  115  236 1    
   230  116  237 1    
   231  116  238 1    
   232  116  239 1    
   233  117  118 2    
   234  117  119 am   BACKBONE|DICT|INTERRES
   235  119  120 1    
   236  119  240 1    
   237  120  121 1    
   238  120  124 1    
   239  120  241 1    
   240  121  122 am   BACKBONE|DICT|INTERRES
   241  121  123 2    
   242  122  242 1    
   243  122  243 1    
   244  124  125 1    
   245  124  244 1    
   246  124  245 1    
   247  125  126 1    
   248  126  246 1    
   249  126  247 1    
@<TRIPOS>SUBSTRUCTURE
     1 UNK         1 GROUP             0       ****    0 ROOT    
