@<TRIPOS>MOLECULE
3R540
247   249    1
SMALL
USER_CHARGES


@<TRIPOS>ATOM
      1 CA          4.8300  -14.1694  -47.8470 C.3       0 UNK        -0.1800 
      2 C           3.7713  -14.0123  -48.9296 C.2       0 UNK         0.5000 
      3 O           3.7330  -12.9832  -49.6034 O.2       0 UNK        -0.5000 
      4 N           2.9089  -15.0269  -49.0828 N.am      1 UNK        -0.5000 
      5 CA          1.8050  -15.1101  -50.0545 C.3       1 UNK         0.1400 
      6 C6          2.2807  -15.1517  -51.5337 C.3       23 UNK        -0.0398 
      7 S7          3.4750  -16.5000  -51.8593 S.3       23 UNK        -0.2404 
      8 C8          2.4914  -17.6805  -52.8387 C.3       23 UNK        -0.0205 
      9 C9          1.5927  -18.5490  -51.9700 C.ar      23 UNK        -0.0193 
     10 C10         0.3377  -18.0821  -51.5756 C.ar      23 UNK        -0.1150 
     11 C11        -0.5076  -18.8759  -50.7986 C.ar      23 UNK        -0.0193 
     12 C12        -0.1006  -20.1598  -50.4324 C.ar      23 UNK        -0.1150 
     13 C13         1.1494  -20.6465  -50.8265 C.ar      23 UNK        -0.0193 
     14 C14         1.9957  -19.8336  -51.5885 C.ar      23 UNK        -0.1150 
     15 C15         1.5611  -22.0672  -50.4684 C.3       23 UNK        -0.0205 
     16 S16         2.7534  -22.1520  -49.0925 S.3       23 UNK        -0.2404 
     17 C17         1.8420  -21.4171  -47.6925 C.3       23 UNK        -0.0398 
     18 CA          1.0070  -22.4429  -46.8811 C.3       11 UNK         0.1400 
     19 N           0.9240  -22.0968  -45.4584 N.am      11 UNK        -0.5000 
     20 C           0.3565  -22.8588  -44.5109 C.2       10 UNK         0.5000 
     21 O          -0.0948  -23.9855  -44.7189 O.2       10 UNK        -0.5000 
     22 CA          0.2220  -22.2378  -43.1071 C.3       10 UNK         0.1400 
     23 CB          1.5300  -22.3782  -42.3148 C.3       10 UNK        -0.1800 
     24 N          -0.1802  -20.8305  -43.1529 N.am      10 UNK        -0.5000 
     25 C          -1.3600  -20.3952  -43.6196 C.2       9 UNK         0.5000 
     26 O          -2.2648  -21.1450  -43.9867 O.2       9 UNK        -0.5000 
     27 CA         -1.5348  -18.8697  -43.7609 C.3       9 UNK         0.1400 
     28 CB         -1.9207  -18.2252  -42.4219 C.3       9 UNK        -0.1800 
     29 N          -0.3392  -18.2160  -44.2957 N.am      9 UNK        -0.5000 
     30 C           0.1734  -18.4621  -45.5099 C.2       8 UNK         0.5000 
     31 O          -0.3402  -19.2221  -46.3267 O.2       8 UNK        -0.5000 
     32 CA          1.5146  -17.7961  -45.8484 C.3       8 UNK         0.1400 
     33 CB          1.2923  -16.3575  -46.3193 C.3       8 UNK        -0.1800 
     34 N           2.4280  -17.8040  -44.7067 N.am      8 UNK        -0.5000 
     35 C           3.0239  -18.9054  -44.2289 C.2       7 UNK         0.5000 
     36 O           2.8860  -20.0235  -44.7219 O.2       7 UNK        -0.5000 
     37 CA          3.8814  -18.7363  -42.9625 C.3       7 UNK         0.1400 
     38 CB          5.2906  -18.2447  -43.3251 C.3       7 UNK        -0.1800 
     39 N           3.2786  -17.8155  -41.9989 N.am      7 UNK        -0.5000 
     40 C           2.1241  -18.0390  -41.3551 C.2       6 UNK         0.5000 
     41 O           1.4662  -19.0727  -41.4701 O.2       6 UNK        -0.5000 
     42 CA          1.5937  -16.8917  -40.4750 C.3       6 UNK         0.1400 
     43 CB          2.1531  -17.0021  -39.0491 C.3       6 UNK        -0.1800 
     44 N           1.8972  -15.5629  -41.0163 N.am      6 UNK        -0.5000 
     45 C           1.4248  -15.0945  -42.1788 C.2       5 UNK         0.5000 
     46 O           0.6977  -15.7472  -42.9316 O.2       5 UNK        -0.5000 
     47 CA          1.8813  -13.6862  -42.5911 C.3       5 UNK         0.1400 
     48 CB          2.8750  -13.7575  -43.7614 C.3       5 UNK        -0.1800 
     49 N           0.7260  -12.8877  -42.9863 N.am      5 UNK        -0.5000 
     50 C          -0.0526  -12.2132  -42.1277 C.2       4 UNK         0.5000 
     51 O           0.1930  -12.1085  -40.9250 O.2       4 UNK        -0.5000 
     52 CA         -1.3249  -11.5474  -42.6941 C.3       4 UNK         0.1400 
     53 CB         -1.0517  -10.0772  -43.0463 C.3       4 UNK        -0.1800 
     54 N          -1.8516  -12.2276  -43.8767 N.am      4 UNK        -0.5000 
     55 C          -2.3472  -13.4719  -43.8885 C.2       3 UNK         0.5000 
     56 O          -2.5588  -14.1260  -42.8667 O.2       3 UNK        -0.5000 
     57 CA         -2.6522  -14.1034  -45.2637 C.3       3 UNK         0.1400 
     58 CB         -4.1703  -14.2659  -45.4436 C.3       3 UNK        -0.1800 
     59 N          -2.1013  -13.4056  -46.4376 N.am      3 UNK        -0.5000 
     60 C          -0.8011  -13.1803  -46.6735 C.2       2 UNK         0.5000 
     61 O           0.0902  -13.3866  -45.8484 O.2       2 UNK        -0.5000 
     62 CA         -0.4075  -12.6439  -48.0545 C.3       2 UNK         0.1400 
     63 CB          0.1826  -11.2288  -47.9522 C.3       2 UNK        -0.1800 
     64 N           0.6046  -13.5578  -48.5699 N.am      2 UNK        -0.5000 
     65 C           0.6944  -14.0552  -49.8099 C.2       1 UNK         0.5000 
     66 O          -0.0687  -13.7397  -50.7254 O.2       1 UNK        -0.5000 
     67 C          -0.3953  -22.6336  -47.4924 C.2       11 UNK         0.5000 
     68 O          -0.6400  -23.6485  -48.1409 O.2       11 UNK        -0.5000 
     69 N          -1.3019  -21.6792  -47.2393 N.am      12 UNK        -0.5000 
     70 CA         -2.6938  -21.7017  -47.6861 C.3       12 UNK         0.1400 
     71 CB         -3.3807  -20.3795  -47.3140 C.3       12 UNK        -0.1800 
     72 C          -3.4821  -22.8988  -47.1313 C.2       12 UNK         0.5000 
     73 O          -4.2162  -23.5378  -47.8837 O.2       12 UNK        -0.5000 
     74 N          -3.2846  -23.2086  -45.8426 N.am      13 UNK        -0.5000 
     75 CA         -3.8733  -24.3689  -45.1729 C.3       13 UNK         0.1400 
     76 CB         -3.5736  -24.2994  -43.6680 C.3       13 UNK        -0.1800 
     77 C          -3.4006  -25.7106  -45.7658 C.2       13 UNK         0.5000 
     78 O          -4.2063  -26.6339  -45.8878 O.2       13 UNK        -0.5000 
     79 N          -2.1161  -25.7879  -46.1400 N.am      14 UNK        -0.5000 
     80 CA         -1.5190  -26.9463  -46.8026 C.3       14 UNK         0.1400 
     81 CB          0.0120  -26.8594  -46.7016 C.3       14 UNK        -0.1800 
     82 C          -1.9676  -27.0835  -48.2701 C.2       14 UNK         0.5000 
     83 O          -2.2922  -28.1898  -48.7034 O.2       14 UNK        -0.5000 
     84 N          -1.9693  -25.9646  -49.0075 N.am      15 UNK        -0.5000 
     85 CA         -2.3236  -25.8960  -50.4259 C.3       15 UNK         0.1400 
     86 CB         -1.8395  -24.5580  -51.0035 C.3       15 UNK        -0.1800 
     87 C          -3.8250  -26.0994  -50.6965 C.2       15 UNK         0.5000 
     88 O          -4.1740  -26.6728  -51.7297 O.2       15 UNK        -0.5000 
     89 N          -4.6797  -25.6381  -49.7715 N.am      16 UNK        -0.5000 
     90 CA         -6.1402  -25.7484  -49.7756 C.3       16 UNK         0.1400 
     91 CB         -6.5669  -27.2091  -49.5112 C.3       16 UNK        -0.1800 
     92 C          -6.7573  -25.1347  -51.0487 C.2       16 UNK         0.5000 
     93 O          -6.7916  -23.9112  -51.1725 O.2       16 UNK        -0.5000 
     94 N          -7.2016  -25.9787  -51.9890 N.am      17 UNK        -0.5000 
     95 CA         -7.7462  -25.5745  -53.2873 C.3       17 UNK         0.1400 
     96 CB         -8.3506  -26.8067  -53.9774 C.3       17 UNK        -0.1800 
     97 C          -6.7160  -24.8905  -54.2110 C.2       17 UNK         0.5000 
     98 O          -7.1126  -24.1205  -55.0863 O.2       17 UNK        -0.5000 
     99 N          -5.4215  -25.1683  -54.0012 N.am      18 UNK        -0.5000 
    100 CA        -4.3103  -24.6022  -54.7685 C.3       18 UNK         0.1400 
    101 CB        -3.1975  -25.6589  -54.8763 C.3       18 UNK        -0.1800 
    102 C         -3.7687  -23.2836  -54.1767 C.2       18 UNK         0.5000 
    103 O         -2.7876  -22.7545  -54.7020 O.2       18 UNK        -0.5000 
    104 N         -4.3804  -22.7739  -53.0967 N.am      19 UNK        -0.5000 
    105 CA        -3.9817  -21.5561  -52.3854 C.3       19 UNK         0.1400 
    106 CB        -4.5967  -21.5847  -50.9752 C.3       19 UNK        -0.1800 
    107 C         -4.3478  -20.2657  -53.1523 C.2       19 UNK         0.5000 
    108 O         -5.1677  -19.4756  -52.6812 O.2       19 UNK        -0.5000 
    109 N         -3.7385  -20.0737  -54.3280 N.am      20 UNK        -0.5000 
    110 CA        -3.7949  -18.8377  -55.1097 C.3       20 UNK         0.1400 
    111 CB        -3.1935  -19.0979  -56.4990 C.3       20 UNK        -0.1800 
    112 C         -3.0406  -17.7020  -54.3919 C.2       20 UNK         0.5000 
    113 O         -2.0121  -17.9659  -53.7696 O.2       20 UNK        -0.5000 
    114 N         -3.5585  -16.4717  -54.5036 N.am      21 UNK        -0.5000 
    115 CA        -3.1775  -15.2862  -53.7249 C.3       21 UNK         0.1400 
    116 CB        -1.6846  -14.9171  -53.8955 C.3       21 UNK        -0.1800 
    117 C         -3.6500  -15.4191  -52.2601 C.2       21 UNK         0.5000 
    118 O         -4.7631  -15.9017  -52.0386 O.2       21 UNK        -0.5000 
    119 N         -2.8483  -14.9515  -51.2942 N.am      22 UNK        -0.5000 
    120 CA        -3.1299  -14.8791  -49.8467 C.3       22 UNK         0.1400 
    121 C         -4.2686  -13.9010  -49.4441 C.2       22 UNK         0.5000 
    122 N         -5.4093  -13.9039  -50.1167 N.am      22 UNK        -0.7600 
    123 O         -4.0959  -13.1144  -48.5171 O.2       22 UNK        -0.5000 
    124 C124       -3.2846  -16.2584  -49.1530 C.3       23 UNK        -0.0398 
    125 S125       -1.6844  -17.1215  -49.0417 S.3       23 UNK        -0.2404 
    126 C126       -1.8621  -18.3392  -50.3752 C.3       23 UNK        -0.0205 
    127 H127        5.8261  -14.0813  -48.2807 H         1 UNK         0.0600 
    128 H128        4.7615  -15.1363  -47.3477 H         1 UNK         0.0600 
    129 H129        4.7140  -13.3899  -47.0939 H         1 UNK         0.0600 
    130 H130        3.0321  -15.8522  -48.5149 H         1 UNK         0.3000 
    131 H131        1.3214  -16.0656  -49.8489 H         1 UNK         0.0600 
    132 H132        1.4334  -15.2582  -52.2119 H         1 UNK         0.0800 
    133 H133        2.7548  -14.2077  -51.8051 H         1 UNK         0.0800 
    134 H134        3.1773  -18.3137  -53.4035 H         1 UNK         0.0800 
    135 H135        1.8970  -17.1485  -53.5832 H         1 UNK         0.0800 
    136 H136        0.0078  -17.0988  -51.8750 H         1 UNK         0.1150 
    137 H137       -0.7603  -20.7825  -49.8477 H         1 UNK         0.1150 
    138 H138        2.9610  -20.2090  -51.8978 H         1 UNK         0.1150 
    139 H139        0.6857  -22.6699  -50.2300 H         1 UNK         0.0800 
    140 H140        2.0112  -22.5371  -51.3440 H         1 UNK         0.0800 
    141 H141        1.2488  -20.5638  -48.0220 H         1 UNK         0.0800 
    142 H142        2.6147  -20.9911  -47.0544 H         1 UNK         0.0800 
    143 H143        1.5141  -23.4092  -46.9238 H         1 UNK         0.0600 
    144 H144        1.3242  -21.2052  -45.1863 H         1 UNK         0.3000 
    145 H145       -0.5557  -22.7892  -42.5747 H         1 UNK         0.0600 
    146 H146        2.3478  -21.8300  -42.7824 H         1 UNK         0.0600 
    147 H147        1.4159  -22.0025  -41.2978 H         1 UNK         0.0600 
    148 H148        1.8329  -23.4235  -42.2442 H         1 UNK         0.0600 
    149 H149        0.4912  -20.1510  -42.8081 H         1 UNK         0.3000 
    150 H150       -2.3489  -18.6937  -44.4671 H         1 UNK         0.0600 
    151 H151       -2.8491  -18.6506  -42.0392 H         1 UNK         0.0600 
    152 H152       -2.0737  -17.1508  -42.5306 H         1 UNK         0.0600 
    153 H153       -1.1534  -18.3785  -41.6636 H         1 UNK         0.0600 
    154 H154        0.1197  -17.5330  -43.7014 H         1 UNK         0.3000 
    155 H155        1.9780  -18.3549  -46.6643 H         1 UNK         0.0600 
    156 H156        0.7390  -15.7897  -45.5737 H         1 UNK         0.0600 
    157 H157        2.2362  -15.8455  -46.4985 H         1 UNK         0.0600 
    158 H158        0.7137  -16.3338  -47.2429 H         1 UNK         0.0600 
    159 H159        2.5379  -16.9347  -44.2067 H         1 UNK         0.3000 
    160 H160        3.9709  -19.7152  -42.4867 H         1 UNK         0.0600 
    161 H161        5.7699  -18.9230  -44.0324 H         1 UNK         0.0600 
    162 H162        5.2689  -17.2548  -43.7827 H         1 UNK         0.0600 
    163 H163        5.9291  -18.1932  -42.4430 H         1 UNK         0.0600 
    164 H164        3.7561  -16.9408  -41.8402 H         1 UNK         0.3000 
    165 H165        0.5076  -16.9910  -40.4236 H         1 UNK         0.0600 
    166 H166        1.7191  -16.2454  -38.3954 H         1 UNK         0.0600 
    167 H167        1.9229  -17.9757  -38.6143 H         1 UNK         0.0600 
    168 H168        3.2370  -16.8820  -39.0300 H         1 UNK         0.0600 
    169 H169        2.4889  -14.9708  -40.4511 H         1 UNK         0.3000 
    170 H170        2.3858  -13.2073  -41.7492 H         1 UNK         0.0600 
    171 H171        3.7495  -14.3541  -43.4992 H         1 UNK         0.0600 
    172 H172        2.4252  -14.2036  -44.6478 H         1 UNK         0.0600 
    173 H173        3.2291  -12.7638  -44.0359 H         1 UNK         0.0600 
    174 H174        0.4280  -12.9869  -43.9528 H         1 UNK         0.3000 
    175 H175       -2.0901  -11.5789  -41.9157 H         1 UNK         0.0600 
    176 H176       -0.3059   -9.9853  -43.8370 H         1 UNK         0.0600 
    177 H177       -1.9601   -9.5755  -43.3802 H         1 UNK         0.0600 
    178 H178       -0.6797   -9.5305  -42.1787 H         1 UNK         0.0600 
    179 H179       -1.7096  -11.7704  -44.7647 H         1 UNK         0.3000 
    180 H180       -2.2060  -15.1003  -45.2480 H         1 UNK         0.0600 
    181 H181       -4.6671  -13.2992  -45.5336 H         1 UNK         0.0600 
    182 H182       -4.6163  -14.7875  -44.5957 H         1 UNK         0.0600 
    183 H183       -4.4065  -14.8471  -46.3334 H         1 UNK         0.0600 
    184 H184       -2.7797  -13.1747  -47.1598 H         1 UNK         0.3000 
    185 H185       -1.2802  -12.6081  -48.7059 H         1 UNK         0.0600 
    186 H186        0.4851  -10.8596  -48.9323 H         1 UNK         0.0600 
    187 H187       -0.5506  -10.5284  -47.5507 H         1 UNK         0.0600 
    188 H188        1.0579  -11.2008  -47.3015 H         1 UNK         0.0600 
    189 H189        1.2503  -13.8952  -47.8690 H         1 UNK         0.3000 
    190 H190       -1.0028  -20.8453  -46.7355 H         1 UNK         0.3000 
    191 H191       -2.6802  -21.7876  -48.7730 H         1 UNK         0.0600 
    192 H192       -3.4690  -20.2596  -46.2344 H         1 UNK         0.0600 
    193 H193       -4.3863  -20.3310  -47.7333 H         1 UNK         0.0600 
    194 H194       -2.8257  -19.5235  -47.6937 H         1 UNK         0.0600 
    195 H195       -2.7028  -22.5980  -45.2765 H         1 UNK         0.3000 
    196 H196       -4.9557  -24.3129  -45.3057 H         1 UNK         0.0600 
    197 H197       -4.0298  -25.1374  -43.1397 H         1 UNK         0.0600 
    198 H198       -3.9695  -23.3832  -43.2293 H         1 UNK         0.0600 
    199 H199       -2.5024  -24.3291  -43.4685 H         1 UNK         0.0600 
    200 H200       -1.5081  -24.9950  -45.9675 H         1 UNK         0.3000 
    201 H201       -1.8378  -27.8457  -46.2715 H         1 UNK         0.0600 
    202 H202        0.3362  -26.8316  -45.6611 H         1 UNK         0.0600 
    203 H203        0.4014  -25.9682  -47.1944 H         1 UNK         0.0600 
    204 H204        0.4838  -27.7253  -47.1675 H         1 UNK         0.0600 
    205 H205       -1.6286  -25.1025  -48.5856 H         1 UNK         0.3000 
    206 H206       -1.7903  -26.6956  -50.9443 H         1 UNK         0.0600 
    207 H207       -0.7568  -24.4686  -50.9205 H         1 UNK         0.0600 
    208 H208       -2.0882  -24.4696  -52.0600 H         1 UNK         0.0600 
    209 H209       -2.2852  -23.7097  -50.4845 H         1 UNK         0.0600 
    210 H210       -4.3013  -25.0897  -49.0034 H         1 UNK         0.3000 
    211 H211       -6.4967  -25.1440  -48.9402 H         1 UNK         0.0600 
    212 H212       -6.1860  -27.8980  -50.2657 H         1 UNK         0.0600 
    213 H213       -7.6533  -27.3039  -49.4893 H         1 UNK         0.0600 
    214 H214       -6.1957  -27.5483  -48.5438 H         1 UNK         0.0600 
    215 H215       -7.1024  -26.9704  -51.8275 H         1 UNK         0.3000 
    216 H216       -8.5486  -24.8564  -53.1057 H         1 UNK         0.0600 
    217 H217       -8.7943  -26.5393  -54.9374 H         1 UNK         0.0600 
    218 H218       -9.1386  -27.2528  -53.3703 H         1 UNK         0.0600 
    219 H219       -7.5964  -27.5718  -54.1660 H         1 UNK         0.0600 
    220 H220       -5.1689  -25.7958  -53.2429 H         1 UNK         0.3000 
    221 H221       -4.6485  -24.3776  -55.7821 H         1 UNK         0.0600 
    222 H222       -2.7759  -25.9059  -53.9023 H         1 UNK         0.0600 
    223 H223       -3.5723  -26.5808  -55.3211 H         1 UNK         0.0600 
    224 H224       -2.3798  -25.3069  -55.5064 H         1 UNK         0.0600 
    225 H225       -5.1969  -23.2498  -52.7351 H         1 UNK         0.3000 
    226 H226       -2.8956  -21.5663  -52.2687 H         1 UNK         0.0600 
    227 H227       -4.3407  -22.5018  -50.4462 H         1 UNK         0.0600 
    228 H228       -4.2427  -20.7468  -50.3755 H         1 UNK         0.0600 
    229 H229       -5.6843  -21.5181  -51.0100 H         1 UNK         0.0600 
    230 H230       -3.0982  -20.7930  -54.6478 H         1 UNK         0.3000 
    231 H231       -4.8424  -18.5526  -55.2276 H         1 UNK         0.0600 
    232 H232       -3.2399  -18.2018  -57.1190 H         1 UNK         0.0600 
    233 H233       -3.7362  -19.8851  -57.0228 H         1 UNK         0.0600 
    234 H234       -2.1469  -19.3984  -56.4331 H         1 UNK         0.0600 
    235 H235       -4.4122  -16.3684  -55.0340 H         1 UNK         0.3000 
    236 H236       -3.7568  -14.4629  -54.1449 H         1 UNK         0.0600 
    237 H237       -1.4775  -13.9246  -53.4936 H         1 UNK         0.0600 
    238 H238       -1.4044  -14.8990  -54.9486 H         1 UNK         0.0600 
    239 H239       -1.0220  -15.6176  -53.3887 H         1 UNK         0.0600 
    240 H240       -1.9569  -14.5502  -51.5592 H         1 UNK         0.3000 
    241 H241       -2.2329  -14.4375  -49.4248 H         1 UNK         0.0600 
    242 H242       -5.5315  -14.5686  -50.8745 H         1 UNK         0.3800 
    243 H243       -6.1489  -13.2666  -49.8676 H         1 UNK         0.3800 
    244 H244       -3.6402  -16.1416  -48.1289 H         1 UNK         0.0800 
    245 H245       -4.0259  -16.8801  -49.6565 H         1 UNK         0.0800 
    246 H246       -2.5160  -19.1462  -50.0468 H         1 UNK         0.0800 
    247 H247       -2.3511  -17.8770  -51.2311 H         1 UNK         0.0800 
@<TRIPOS>BOND
     1    1    2 1    
     2    1  127 1    
     3    1  128 1    
     4    1  129 1    
     5    2    3 2    
     6    2    4 am   BACKBONE|DICT|INTERRES
     7    4    5 1    
     8    4  130 1    
     9    5    6 1    
    10    5   65 1    
    11    5  131 1    
    12    6    7 1    
    13    6  132 1    
    14    6  133 1    
    15    7    8 1    
    16    8    9 1    
    17    8  134 1    
    18    8  135 1    
    19    9   10 ar   
    20    9   14 ar   
    21   10   11 ar   
    22   10  136 1    
    23   11   12 ar   
    24   11  126 1    
    25   12   13 ar   
    26   12  137 1    
    27   13   14 ar   
    28   13   15 1    
    29   14  138 1    
    30   15   16 1    
    31   15  139 1    
    32   15  140 1    
    33   16   17 1    
    34   17   18 1    
    35   17  141 1    
    36   17  142 1    
    37   18   19 1    
    38   18   67 1    
    39   18  143 1    
    40   19   20 am   BACKBONE|DICT|INTERRES
    41   19  144 1    
    42   20   21 2    
    43   20   22 1    
    44   22   23 1    
    45   22   24 1    
    46   22  145 1    
    47   23  146 1    
    48   23  147 1    
    49   23  148 1    
    50   24   25 am   BACKBONE|DICT|INTERRES
    51   24  149 1    
    52   25   26 2    
    53   25   27 1    
    54   27   28 1    
    55   27   29 1    
    56   27  150 1    
    57   28  151 1    
    58   28  152 1    
    59   28  153 1    
    60   29   30 am   BACKBONE|DICT|INTERRES
    61   29  154 1    
    62   30   31 2    
    63   30   32 1    
    64   32   33 1    
    65   32   34 1    
    66   32  155 1    
    67   33  156 1    
    68   33  157 1    
    69   33  158 1    
    70   34   35 am   BACKBONE|DICT|INTERRES
    71   34  159 1    
    72   35   36 2    
    73   35   37 1    
    74   37   38 1    
    75   37   39 1    
    76   37  160 1    
    77   38  161 1    
    78   38  162 1    
    79   38  163 1    
    80   39   40 am   BACKBONE|DICT|INTERRES
    81   39  164 1    
    82   40   41 2    
    83   40   42 1    
    84   42   43 1    
    85   42   44 1    
    86   42  165 1    
    87   43  166 1    
    88   43  167 1    
    89   43  168 1    
    90   44   45 am   BACKBONE|DICT|INTERRES
    91   44  169 1    
    92   45   46 2    
    93   45   47 1    
    94   47   48 1    
    95   47   49 1    
    96   47  170 1    
    97   48  171 1    
    98   48  172 1    
    99   48  173 1    
   100   49   50 am   BACKBONE|DICT|INTERRES
   101   49  174 1    
   102   50   51 2    
   103   50   52 1    
   104   52   53 1    
   105   52   54 1    
   106   52  175 1    
   107   53  176 1    
   108   53  177 1    
   109   53  178 1    
   110   54   55 am   BACKBONE|DICT|INTERRES
   111   54  179 1    
   112   55   56 2    
   113   55   57 1    
   114   57   58 1    
   115   57   59 1    
   116   57  180 1    
   117   58  181 1    
   118   58  182 1    
   119   58  183 1    
   120   59   60 am   BACKBONE|DICT|INTERRES
   121   59  184 1    
   122   60   61 2    
   123   60   62 1    
   124   62   63 1    
   125   62   64 1    
   126   62  185 1    
   127   63  186 1    
   128   63  187 1    
   129   63  188 1    
   130   64   65 am   BACKBONE|DICT|INTERRES
   131   64  189 1    
   132   65   66 2    
   133   67   68 2    
   134   67   69 am   BACKBONE|DICT|INTERRES
   135   69   70 1    
   136   69  190 1    
   137   70   71 1    
   138   70   72 1    
   139   70  191 1    
   140   71  192 1    
   141   71  193 1    
   142   71  194 1    
   143   72   73 2    
   144   72   74 am   BACKBONE|DICT|INTERRES
   145   74   75 1    
   146   74  195 1    
   147   75   76 1    
   148   75   77 1    
   149   75  196 1    
   150   76  197 1    
   151   76  198 1    
   152   76  199 1    
   153   77   78 2    
   154   77   79 am   BACKBONE|DICT|INTERRES
   155   79   80 1    
   156   79  200 1    
   157   80   81 1    
   158   80   82 1    
   159   80  201 1    
   160   81  202 1    
   161   81  203 1    
   162   81  204 1    
   163   82   83 2    
   164   82   84 am   BACKBONE|DICT|INTERRES
   165   84   85 1    
   166   84  205 1    
   167   85   86 1    
   168   85   87 1    
   169   85  206 1    
   170   86  207 1    
   171   86  208 1    
   172   86  209 1    
   173   87   88 2    
   174   87   89 am   BACKBONE|DICT|INTERRES
   175   89   90 1    
   176   89  210 1    
   177   90   91 1    
   178   90   92 1    
   179   90  211 1    
   180   91  212 1    
   181   91  213 1    
   182   91  214 1    
   183   92   93 2    
   184   92   94 am   BACKBONE|DICT|INTERRES
   185   94   95 1    
   186   94  215 1    
   187   95   96 1    
   188   95   97 1    
   189   95  216 1    
   190   96  217 1    
   191   96  218 1    
   192   96  219 1    
   193   97   98 2    
   194   97   99 am   BACKBONE|DICT|INTERRES
   195   99  100 1    
   196   99  220 1    
   197  100  101 1    
   198  100  102 1    
   199  100  221 1    
   200  101  222 1    
   201  101  223 1    
   202  101  224 1    
   203  102  103 2    
   204  102  104 am   BACKBONE|DICT|INTERRES
   205  104  105 1    
   206  104  225 1    
   207  105  106 1    
   208  105  107 1    
   209  105  226 1    
   210  106  227 1    
   211  106  228 1    
   212  106  229 1    
   213  107  108 2    
   214  107  109 am   BACKBONE|DICT|INTERRES
   215  109  110 1    
   216  109  230 1    
   217  110  111 1    
   218  110  112 1    
   219  110  231 1    
   220  111  232 1    
   221  111  233 1    
   222  111  234 1    
   223  112  113 2    
   224  112  114 am   BACKBONE|DICT|INTERRES
   225  114  115 1    
   226  114  235 1    
   227  115  116 1    
   228  115  117 1    
   229  115  236 1    
   230  116  237 1    
   231  116  238 1    
   232  116  239 1    
   233  117  118 2    
   234  117  119 am   BACKBONE|DICT|INTERRES
   235  119  120 1    
   236  119  240 1    
   237  120  121 1    
   238  120  124 1    
   239  120  241 1    
   240  121  122 am   BACKBONE|DICT|INTERRES
   241  121  123 2    
   242  122  242 1    
   243  122  243 1    
   244  124  125 1    
   245  124  244 1    
   246  124  245 1    
   247  125  126 1    
   248  126  246 1    
   249  126  247 1    
@<TRIPOS>SUBSTRUCTURE
     1 UNK         1 GROUP             0       ****    0 ROOT    
