@<TRIPOS>MOLECULE
3R540
247   249    1
SMALL
USER_CHARGES


@<TRIPOS>ATOM
      1 CA          4.0809  -18.2552  -45.8362 C.3       0 UNK        -0.1800 
      2 C           4.1092  -16.8745  -46.4769 C.2       0 UNK         0.5000 
      3 O           4.9523  -16.0509  -46.1224 O.2       0 UNK        -0.5000 
      4 N           3.1897  -16.6198  -47.4166 N.am      1 UNK        -0.5000 
      5 CA          3.0144  -15.3505  -48.1290 C.3       1 UNK         0.1400 
      6 C6          4.1955  -15.0459  -49.0964 C.3       23 UNK        -0.0398 
      7 S7          3.6933  -13.9707  -50.4870 S.3       23 UNK        -0.2404 
      8 C8          3.4853  -15.1657  -51.8470 C.3       23 UNK        -0.0205 
      9 C9          2.4985  -16.2724  -51.5030 C.ar      23 UNK        -0.0193 
     10 C10         1.1322  -15.9963  -51.3951 C.ar      23 UNK        -0.1150 
     11 C11         0.2218  -17.0098  -51.0727 C.ar      23 UNK        -0.0193 
     12 C12         0.6992  -18.3051  -50.8446 C.ar      23 UNK        -0.1150 
     13 C13         2.0625  -18.5935  -50.9497 C.ar      23 UNK        -0.0193 
     14 C14         2.9559  -17.5742  -51.2841 C.ar      23 UNK        -0.1150 
     15 C15         2.5771  -20.0004  -50.6936 C.3       23 UNK        -0.0205 
     16 S16         3.1160  -20.1833  -48.9672 S.3       23 UNK        -0.2404 
     17 C17         3.7621  -21.8955  -48.9524 C.3       23 UNK        -0.0398 
     18 CA          2.7687  -22.9545  -48.4048 C.3       11 UNK         0.1400 
     19 N           2.1418  -22.5125  -47.1577 N.am      11 UNK        -0.5000 
     20 C           1.4237  -23.2696  -46.3208 C.2       10 UNK         0.5000 
     21 O           1.3103  -24.4899  -46.4320 O.2       10 UNK        -0.5000 
     22 CA          0.7004  -22.5426  -45.1696 C.3       10 UNK         0.1400 
     23 CB          1.3519  -22.8812  -43.8200 C.3       10 UNK        -0.1800 
     24 N           0.6242  -21.0840  -45.3015 N.am      10 UNK        -0.5000 
     25 C          -0.0363  -20.4103  -46.2526 C.2       9 UNK         0.5000 
     26 O          -0.6045  -20.9471  -47.2046 O.2       9 UNK        -0.5000 
     27 CA         -0.0390  -18.8750  -46.1100 C.3       9 UNK         0.1400 
     28 CB          0.0613  -18.1747  -47.4722 C.3       9 UNK        -0.1800 
     29 N          -1.2219  -18.3807  -45.4078 N.am      9 UNK        -0.5000 
     30 C          -1.5211  -18.6258  -44.1231 C.2       8 UNK         0.5000 
     31 O          -0.7985  -19.2855  -43.3747 O.2       8 UNK        -0.5000 
     32 CA         -2.8251  -18.0183  -43.5719 C.3       8 UNK         0.1400 
     33 CB         -2.7097  -17.6410  -42.0838 C.3       8 UNK        -0.1800 
     34 N          -3.2312  -16.8347  -44.3324 N.am      8 UNK        -0.5000 
     35 C          -4.3409  -16.7515  -45.0774 C.2       7 UNK         0.5000 
     36 O          -5.1499  -17.6720  -45.2022 O.2       7 UNK        -0.5000 
     37 CA         -4.6002  -15.4267  -45.8209 C.3       7 UNK         0.1400 
     38 CB         -5.5393  -14.5301  -45.0001 C.3       7 UNK        -0.1800 
     39 N          -3.3962  -14.6638  -46.1530 N.am      7 UNK        -0.5000 
     40 C          -2.4239  -15.0488  -46.9869 C.2       6 UNK         0.5000 
     41 O          -2.3957  -16.1518  -47.5241 O.2       6 UNK        -0.5000 
     42 CA         -1.2761  -14.0575  -47.2599 C.3       6 UNK         0.1400 
     43 CB         -1.6434  -13.0621  -48.3747 C.3       6 UNK        -0.1800 
     44 N          -0.7676  -13.3748  -46.0647 N.am      6 UNK        -0.5000 
     45 C          -1.3859  -12.5091  -45.2471 C.2       5 UNK         0.5000 
     46 O          -2.5207  -12.0741  -45.4504 O.2       5 UNK        -0.5000 
     47 CA         -0.6244  -12.0854  -43.9718 C.3       5 UNK         0.1400 
     48 CB         -1.5757  -11.7741  -42.7978 C.3       5 UNK        -0.1800 
     49 N           0.4116  -13.0363  -43.5491 N.am      5 UNK        -0.5000 
     50 C           0.2578  -14.3275  -43.2082 C.2       4 UNK         0.5000 
     51 O          -0.8282  -14.9097  -43.2265 O.2       4 UNK        -0.5000 
     52 CA          1.5365  -15.1019  -42.8205 C.3       4 UNK         0.1400 
     53 CB          1.5051  -16.5464  -43.3411 C.3       4 UNK        -0.1800 
     54 N           2.7264  -14.4477  -43.3618 N.am      4 UNK        -0.5000 
     55 C           3.6541  -13.7869  -42.6574 C.2       3 UNK         0.5000 
     56 O           3.6674  -13.7277  -41.4277 O.2       3 UNK        -0.5000 
     57 CA          4.7317  -13.0299  -43.4634 C.3       3 UNK         0.1400 
     58 CB          6.0435  -13.8277  -43.4995 C.3       3 UNK        -0.1800 
     59 N           4.3150  -12.7186  -44.8351 N.am      3 UNK        -0.5000 
     60 C           3.3400  -11.8541  -45.1539 C.2       2 UNK         0.5000 
     61 O           2.7334  -11.1814  -44.3203 O.2       2 UNK        -0.5000 
     62 CA          2.9202  -11.7671  -46.6345 C.3       2 UNK         0.1400 
     63 CB          3.6220  -10.5879  -47.3233 C.3       2 UNK        -0.1800 
     64 N           3.1667  -12.9860  -47.4097 N.am      2 UNK        -0.5000 
     65 C           2.6553  -14.1986  -47.1571 C.2       1 UNK         0.5000 
     66 O           1.9162  -14.4262  -46.1957 O.2       1 UNK        -0.5000 
     67 C           1.7467  -23.3801  -49.4842 C.2       11 UNK         0.5000 
     68 O           2.1084  -24.1470  -50.3782 O.2       11 UNK        -0.5000 
     69 N           0.5054  -22.8796  -49.4015 N.am      12 UNK        -0.5000 
     70 CA         -0.5858  -23.2289  -50.3067 C.3       12 UNK         0.1400 
     71 CB         -1.7023  -22.1967  -50.1422 C.3       12 UNK        -0.1800 
     72 C          -1.1044  -24.6594  -50.0553 C.2       12 UNK         0.5000 
     73 O          -1.2062  -25.0952  -48.9062 O.2       12 UNK        -0.5000 
     74 N          -1.4223  -25.3614  -51.1495 N.am      13 UNK        -0.5000 
     75 CA         -1.7455  -26.7898  -51.1753 C.3       13 UNK         0.1400 
     76 CB         -1.6258  -27.2862  -52.6251 C.3       13 UNK        -0.1800 
     77 C          -3.1214  -27.1748  -50.5957 C.2       13 UNK         0.5000 
     78 O          -3.3433  -28.3597  -50.3401 O.2       13 UNK        -0.5000 
     79 N          -4.0265  -26.2057  -50.3985 N.am      14 UNK        -0.5000 
     80 CA         -5.3916  -26.4180  -49.9028 C.3       14 UNK         0.1400 
     81 CB         -6.2935  -25.2527  -50.3555 C.3       14 UNK        -0.1800 
     82 C          -5.4312  -26.6444  -48.3770 C.2       14 UNK         0.5000 
     83 O          -6.0660  -25.8782  -47.6541 O.2       14 UNK        -0.5000 
     84 N          -4.7271  -27.6839  -47.9074 N.am      15 UNK        -0.5000 
     85 CA         -4.6078  -28.1143  -46.5078 C.3       15 UNK         0.1400 
     86 CB         -5.9387  -28.7243  -46.0208 C.3       15 UNK        -0.1800 
     87 C          -4.0809  -26.9992  -45.5769 C.2       15 UNK         0.5000 
     88 O          -4.5728  -26.8391  -44.4588 O.2       15 UNK        -0.5000 
     89 N          -3.1036  -26.2341  -46.0854 N.am      16 UNK        -0.5000 
     90 CA         -2.4633  -25.0647  -45.4739 C.3       16 UNK         0.1400 
     91 CB         -1.8143  -25.4153  -44.1167 C.3       16 UNK        -0.1800 
     92 C          -3.3554  -23.8050  -45.3979 C.2       16 UNK         0.5000 
     93 O          -2.9263  -22.8095  -44.8131 O.2       16 UNK        -0.5000 
     94 N          -4.5472  -23.8269  -46.0128 N.am      17 UNK        -0.5000 
     95 CA         -5.3230  -22.6228  -46.3047 C.3       17 UNK         0.1400 
     96 CB         -6.8190  -22.9633  -46.3849 C.3       17 UNK        -0.1800 
     97 C          -4.8275  -22.0328  -47.6338 C.2       17 UNK         0.5000 
     98 O          -4.4419  -22.7840  -48.5318 O.2       17 UNK        -0.5000 
     99 N          -4.8631  -20.7005  -47.7425 N.am      18 UNK        -0.5000 
    100 CA        -4.2854  -19.9329  -48.8492 C.3       18 UNK         0.1400 
    101 CB        -4.3275  -18.4497  -48.4766 C.3       18 UNK        -0.1800 
    102 C         -4.9431  -20.1472  -50.2258 C.2       18 UNK         0.5000 
    103 O         -4.3251  -19.8072  -51.2344 O.2       18 UNK        -0.5000 
    104 N         -6.1681  -20.6920  -50.2400 N.am      19 UNK        -0.5000 
    105 CA        -7.0893  -20.8014  -51.3772 C.3       19 UNK         0.1400 
    106 CB        -8.3187  -21.6073  -50.9287 C.3       19 UNK        -0.1800 
    107 C         -6.5173  -21.3948  -52.6808 C.2       19 UNK         0.5000 
    108 O         -6.9886  -21.0332  -53.7597 O.2       19 UNK        -0.5000 
    109 N         -5.5238  -22.2872  -52.5722 N.am      20 UNK        -0.5000 
    110 CA        -4.8386  -22.8874  -53.7206 C.3       20 UNK         0.1400 
    111 CB        -4.0731  -24.1383  -53.2636 C.3       20 UNK        -0.1800 
    112 C         -3.8799  -21.9220  -54.4453 C.2       20 UNK         0.5000 
    113 O         -3.5877  -22.1455  -55.6209 O.2       20 UNK        -0.5000 
    114 N         -3.3892  -20.8970  -53.7378 N.am      21 UNK        -0.5000 
    115 CA        -2.3979  -19.9439  -54.2336 C.3       21 UNK         0.1400 
    116 CB        -1.2008  -19.9356  -53.2716 C.3       21 UNK        -0.1800 
    117 C         -2.9821  -18.5299  -54.3717 C.2       21 UNK         0.5000 
    118 O         -2.6956  -17.8583  -55.3640 O.2       21 UNK        -0.5000 
    119 N         -3.7778  -18.1030  -53.3848 N.am      22 UNK        -0.5000 
    120 CA        -4.3532  -16.7583  -53.2793 C.3       22 UNK         0.1400 
    121 C         -5.8891  -16.8702  -53.1212 C.2       22 UNK         0.5000 
    122 N         -6.6609  -16.3856  -54.0845 N.am      22 UNK        -0.7600 
    123 O         -6.3905  -17.3653  -52.1156 O.2       22 UNK        -0.5000 
    124 C124       -3.7284  -15.9557  -52.1064 C.3       23 UNK        -0.0398 
    125 S125       -1.9297  -15.7061  -52.3036 S.3       23 UNK        -0.2404 
    126 C126       -1.2696  -16.7162  -50.9352 C.3       23 UNK        -0.0205 
    127 H127        3.2276  -18.8426  -46.1734 H         1 UNK         0.0600 
    128 H128        4.0239  -18.1648  -44.7517 H         1 UNK         0.0600 
    129 H129        4.9897  -18.8020  -46.0870 H         1 UNK         0.0600 
    130 H130        2.5353  -17.3442  -47.6708 H         1 UNK         0.3000 
    131 H131        2.1170  -15.5018  -48.7294 H         1 UNK         0.0600 
    132 H132        5.0393  -14.5968  -48.5698 H         1 UNK         0.0800 
    133 H133        4.5877  -15.9756  -49.5098 H         1 UNK         0.0800 
    134 H134        4.4597  -15.5821  -52.1074 H         1 UNK         0.0800 
    135 H135        3.1341  -14.6354  -52.7333 H         1 UNK         0.0800 
    136 H136        0.7802  -14.9872  -51.5567 H         1 UNK         0.1150 
    137 H137        0.0120  -19.0921  -50.5695 H         1 UNK         0.1150 
    138 H138        4.0114  -17.7951  -51.3595 H         1 UNK         0.1150 
    139 H139        1.7986  -20.7303  -50.9184 H         1 UNK         0.0800 
    140 H140        3.4107  -20.2176  -51.3632 H         1 UNK         0.0800 
    141 H141        4.6480  -21.8893  -48.3162 H         1 UNK         0.0800 
    142 H142        4.1280  -22.1669  -49.9445 H         1 UNK         0.0800 
    143 H143        3.3465  -23.8509  -48.1698 H         1 UNK         0.0600 
    144 H144        2.1767  -21.5187  -46.9858 H         1 UNK         0.3000 
    145 H145       -0.3223  -22.9159  -45.1600 H         1 UNK         0.0600 
    146 H146        0.7835  -22.4577  -42.9916 H         1 UNK         0.0600 
    147 H147        1.3947  -23.9599  -43.6634 H         1 UNK         0.0600 
    148 H148        2.3718  -22.4994  -43.7599 H         1 UNK         0.0600 
    149 H149        0.9984  -20.5553  -44.5257 H         1 UNK         0.3000 
    150 H150        0.8400  -18.5898  -45.5305 H         1 UNK         0.0600 
    151 H151        0.1789  -17.0977  -47.3550 H         1 UNK         0.0600 
    152 H152       -0.8246  -18.3521  -48.0836 H         1 UNK         0.0600 
    153 H153        0.9211  -18.5358  -48.0323 H         1 UNK         0.0600 
    154 H154       -1.8658  -17.8259  -45.9567 H         1 UNK         0.3000 
    155 H155       -3.5783  -18.8043  -43.6521 H         1 UNK         0.0600 
    156 H156       -1.9052  -16.9268  -41.9092 H         1 UNK         0.0600 
    157 H157       -2.5063  -18.5194  -41.4701 H         1 UNK         0.0600 
    158 H158       -3.6359  -17.1991  -41.7164 H         1 UNK         0.0600 
    159 H159       -2.6065  -16.0384  -44.2812 H         1 UNK         0.3000 
    160 H160       -5.0990  -15.6762  -46.7597 H         1 UNK         0.0600 
    161 H161       -5.0764  -14.2178  -44.0629 H         1 UNK         0.0600 
    162 H162       -6.4645  -15.0525  -44.7530 H         1 UNK         0.0600 
    163 H163       -5.8121  -13.6321  -45.5547 H         1 UNK         0.0600 
    164 H164       -3.3215  -13.7277  -45.7637 H         1 UNK         0.3000 
    165 H165       -0.4419  -14.6552  -47.6294 H         1 UNK         0.0600 
    166 H166       -1.9182  -13.5895  -49.2893 H         1 UNK         0.0600 
    167 H167       -2.4874  -12.4300  -48.0980 H         1 UNK         0.0600 
    168 H168       -0.8010  -12.4133  -48.6147 H         1 UNK         0.0600 
    169 H169        0.1599  -13.6847  -45.7895 H         1 UNK         0.3000 
    170 H170       -0.1030  -11.1623  -44.2280 H         1 UNK         0.0600 
    171 H171       -2.2557  -10.9589  -43.0476 H         1 UNK         0.0600 
    172 H172       -2.1855  -12.6382  -42.5316 H         1 UNK         0.0600 
    173 H173       -1.0204  -11.4692  -41.9109 H         1 UNK         0.0600 
    174 H174        1.3492  -12.6543  -43.5276 H         1 UNK         0.3000 
    175 H175        1.5761  -15.1311  -41.7302 H         1 UNK         0.0600 
    176 H176        1.3628  -16.5758  -44.4217 H         1 UNK         0.0600 
    177 H177        2.4306  -17.0720  -43.1072 H         1 UNK         0.0600 
    178 H178        0.6927  -17.1054  -42.8787 H         1 UNK         0.0600 
    179 H179        2.7752  -14.4235  -44.3754 H         1 UNK         0.3000 
    180 H180        4.9230  -12.0867  -42.9475 H         1 UNK         0.0600 
    181 H181        5.9143  -14.7944  -43.9863 H         1 UNK         0.0600 
    182 H182        6.4116  -14.0175  -42.4905 H         1 UNK         0.0600 
    183 H183        6.8235  -13.2836  -44.0322 H         1 UNK         0.0600 
    184 H184        4.7446  -13.2597  -45.5724 H         1 UNK         0.3000 
    185 H185        1.8442  -11.5820  -46.6536 H         1 UNK         0.0600 
    186 H186        4.7023  -10.7326  -47.3660 H         1 UNK         0.0600 
    187 H187        3.2601  -10.4540  -48.3430 H         1 UNK         0.0600 
    188 H188        3.4360   -9.6551  -46.7892 H         1 UNK         0.0600 
    189 H189        3.7365  -12.8763  -48.2376 H         1 UNK         0.3000 
    190 H190        0.2645  -22.2801  -48.6199 H         1 UNK         0.3000 
    191 H191       -0.2130  -23.1630  -51.3312 H         1 UNK         0.0600 
    192 H192       -2.5564  -22.4156  -50.7826 H         1 UNK         0.0600 
    193 H193       -1.3540  -21.1942  -50.3875 H         1 UNK         0.0600 
    194 H194       -2.0514  -22.1819  -49.1112 H         1 UNK         0.0600 
    195 H195       -1.3116  -24.9241  -52.0524 H         1 UNK         0.3000 
    196 H196       -0.9946  -27.3114  -50.5780 H         1 UNK         0.0600 
    197 H197       -2.3440  -26.7919  -53.2803 H         1 UNK         0.0600 
    198 H198       -0.6270  -27.1070  -53.0237 H         1 UNK         0.0600 
    199 H199       -1.8091  -28.3597  -52.6899 H         1 UNK         0.0600 
    200 H200       -3.7482  -25.2499  -50.5599 H         1 UNK         0.3000 
    201 H201       -5.7917  -27.3256  -50.3598 H         1 UNK         0.0600 
    202 H202       -5.9034  -24.2875  -50.0364 H         1 UNK         0.0600 
    203 H203       -7.2990  -25.3501  -49.9442 H         1 UNK         0.0600 
    204 H204       -6.4025  -25.2320  -51.4384 H         1 UNK         0.0600 
    205 H205       -4.2075  -28.2280  -48.5906 H         1 UNK         0.3000 
    206 H206       -3.8563  -28.9048  -46.4908 H         1 UNK         0.0600 
    207 H207       -6.2730  -29.5215  -46.6846 H         1 UNK         0.0600 
    208 H208       -5.8308  -29.1568  -45.0254 H         1 UNK         0.0600 
    209 H209       -6.7311  -27.9768  -45.9690 H         1 UNK         0.0600 
    210 H210       -2.7974  -26.4346  -47.0281 H         1 UNK         0.3000 
    211 H211       -1.6532  -24.7988  -46.1545 H         1 UNK         0.0600 
    212 H212       -1.2122  -24.5887  -43.7404 H         1 UNK         0.0600 
    213 H213       -1.1542  -26.2778  -44.2071 H         1 UNK         0.0600 
    214 H214       -2.5581  -25.6374  -43.3519 H         1 UNK         0.0600 
    215 H215       -4.8369  -24.6625  -46.5090 H         1 UNK         0.3000 
    216 H216       -5.1826  -21.8910  -45.5061 H         1 UNK         0.0600 
    217 H217       -7.0579  -23.5514  -47.2709 H         1 UNK         0.0600 
    218 H218       -7.4189  -22.0540  -46.4326 H         1 UNK         0.0600 
    219 H219       -7.1464  -23.5245  -45.5095 H         1 UNK         0.0600 
    220 H220       -5.2177  -20.1566  -46.9682 H         1 UNK         0.3000 
    221 H221       -3.2367  -20.2155  -48.9391 H         1 UNK         0.0600 
    222 H222       -3.7996  -18.2834  -47.5397 H         1 UNK         0.0600 
    223 H223       -5.3489  -18.0855  -48.3606 H         1 UNK         0.0600 
    224 H224       -3.8392  -17.8375  -49.2347 H         1 UNK         0.0600 
    225 H225       -6.5490  -20.9599  -49.3453 H         1 UNK         0.3000 
    226 H226       -7.4193  -19.7883  -51.6117 H         1 UNK         0.0600 
    227 H227       -8.0450  -22.6177  -50.6221 H         1 UNK         0.0600 
    228 H228       -8.8231  -21.1266  -50.0904 H         1 UNK         0.0600 
    229 H229       -9.0476  -21.6949  -51.7357 H         1 UNK         0.0600 
    230 H230       -5.1878  -22.5218  -51.6498 H         1 UNK         0.3000 
    231 H231       -5.5901  -23.2017  -54.4482 H         1 UNK         0.0600 
    232 H232       -3.4028  -23.9134  -52.4365 H         1 UNK         0.0600 
    233 H233       -3.4696  -24.5499  -54.0738 H         1 UNK         0.0600 
    234 H234       -4.7537  -24.9270  -52.9497 H         1 UNK         0.0600 
    235 H235       -3.7346  -20.7380  -52.7961 H         1 UNK         0.3000 
    236 H236       -2.0306  -20.2425  -55.2175 H         1 UNK         0.0600 
    237 H237       -0.7196  -20.9126  -53.2291 H         1 UNK         0.0600 
    238 H238       -0.4474  -19.2115  -53.5849 H         1 UNK         0.0600 
    239 H239       -1.5123  -19.6718  -52.2618 H         1 UNK         0.0600 
    240 H240       -4.0030  -18.7279  -52.6130 H         1 UNK         0.3000 
    241 H241       -4.1550  -16.1989  -54.1957 H         1 UNK         0.0600 
    242 H242       -7.6623  -16.4446  -53.9839 H         1 UNK         0.3800 
    243 H243       -6.2714  -15.9733  -54.9185 H         1 UNK         0.3800 
    244 H244       -3.9310  -16.4452  -51.1530 H         1 UNK         0.0800 
    245 H245       -4.1898  -14.9690  -52.0407 H         1 UNK         0.0800 
    246 H246       -1.4413  -16.1964  -49.9930 H         1 UNK         0.0800 
    247 H247       -1.8320  -17.6498  -50.8841 H         1 UNK         0.0800 
@<TRIPOS>BOND
     1    1    2 1    
     2    1  127 1    
     3    1  128 1    
     4    1  129 1    
     5    2    3 2    
     6    2    4 am   BACKBONE|DICT|INTERRES
     7    4    5 1    
     8    4  130 1    
     9    5    6 1    
    10    5   65 1    
    11    5  131 1    
    12    6    7 1    
    13    6  132 1    
    14    6  133 1    
    15    7    8 1    
    16    8    9 1    
    17    8  134 1    
    18    8  135 1    
    19    9   10 ar   
    20    9   14 ar   
    21   10   11 ar   
    22   10  136 1    
    23   11   12 ar   
    24   11  126 1    
    25   12   13 ar   
    26   12  137 1    
    27   13   14 ar   
    28   13   15 1    
    29   14  138 1    
    30   15   16 1    
    31   15  139 1    
    32   15  140 1    
    33   16   17 1    
    34   17   18 1    
    35   17  141 1    
    36   17  142 1    
    37   18   19 1    
    38   18   67 1    
    39   18  143 1    
    40   19   20 am   BACKBONE|DICT|INTERRES
    41   19  144 1    
    42   20   21 2    
    43   20   22 1    
    44   22   23 1    
    45   22   24 1    
    46   22  145 1    
    47   23  146 1    
    48   23  147 1    
    49   23  148 1    
    50   24   25 am   BACKBONE|DICT|INTERRES
    51   24  149 1    
    52   25   26 2    
    53   25   27 1    
    54   27   28 1    
    55   27   29 1    
    56   27  150 1    
    57   28  151 1    
    58   28  152 1    
    59   28  153 1    
    60   29   30 am   BACKBONE|DICT|INTERRES
    61   29  154 1    
    62   30   31 2    
    63   30   32 1    
    64   32   33 1    
    65   32   34 1    
    66   32  155 1    
    67   33  156 1    
    68   33  157 1    
    69   33  158 1    
    70   34   35 am   BACKBONE|DICT|INTERRES
    71   34  159 1    
    72   35   36 2    
    73   35   37 1    
    74   37   38 1    
    75   37   39 1    
    76   37  160 1    
    77   38  161 1    
    78   38  162 1    
    79   38  163 1    
    80   39   40 am   BACKBONE|DICT|INTERRES
    81   39  164 1    
    82   40   41 2    
    83   40   42 1    
    84   42   43 1    
    85   42   44 1    
    86   42  165 1    
    87   43  166 1    
    88   43  167 1    
    89   43  168 1    
    90   44   45 am   BACKBONE|DICT|INTERRES
    91   44  169 1    
    92   45   46 2    
    93   45   47 1    
    94   47   48 1    
    95   47   49 1    
    96   47  170 1    
    97   48  171 1    
    98   48  172 1    
    99   48  173 1    
   100   49   50 am   BACKBONE|DICT|INTERRES
   101   49  174 1    
   102   50   51 2    
   103   50   52 1    
   104   52   53 1    
   105   52   54 1    
   106   52  175 1    
   107   53  176 1    
   108   53  177 1    
   109   53  178 1    
   110   54   55 am   BACKBONE|DICT|INTERRES
   111   54  179 1    
   112   55   56 2    
   113   55   57 1    
   114   57   58 1    
   115   57   59 1    
   116   57  180 1    
   117   58  181 1    
   118   58  182 1    
   119   58  183 1    
   120   59   60 am   BACKBONE|DICT|INTERRES
   121   59  184 1    
   122   60   61 2    
   123   60   62 1    
   124   62   63 1    
   125   62   64 1    
   126   62  185 1    
   127   63  186 1    
   128   63  187 1    
   129   63  188 1    
   130   64   65 am   BACKBONE|DICT|INTERRES
   131   64  189 1    
   132   65   66 2    
   133   67   68 2    
   134   67   69 am   BACKBONE|DICT|INTERRES
   135   69   70 1    
   136   69  190 1    
   137   70   71 1    
   138   70   72 1    
   139   70  191 1    
   140   71  192 1    
   141   71  193 1    
   142   71  194 1    
   143   72   73 2    
   144   72   74 am   BACKBONE|DICT|INTERRES
   145   74   75 1    
   146   74  195 1    
   147   75   76 1    
   148   75   77 1    
   149   75  196 1    
   150   76  197 1    
   151   76  198 1    
   152   76  199 1    
   153   77   78 2    
   154   77   79 am   BACKBONE|DICT|INTERRES
   155   79   80 1    
   156   79  200 1    
   157   80   81 1    
   158   80   82 1    
   159   80  201 1    
   160   81  202 1    
   161   81  203 1    
   162   81  204 1    
   163   82   83 2    
   164   82   84 am   BACKBONE|DICT|INTERRES
   165   84   85 1    
   166   84  205 1    
   167   85   86 1    
   168   85   87 1    
   169   85  206 1    
   170   86  207 1    
   171   86  208 1    
   172   86  209 1    
   173   87   88 2    
   174   87   89 am   BACKBONE|DICT|INTERRES
   175   89   90 1    
   176   89  210 1    
   177   90   91 1    
   178   90   92 1    
   179   90  211 1    
   180   91  212 1    
   181   91  213 1    
   182   91  214 1    
   183   92   93 2    
   184   92   94 am   BACKBONE|DICT|INTERRES
   185   94   95 1    
   186   94  215 1    
   187   95   96 1    
   188   95   97 1    
   189   95  216 1    
   190   96  217 1    
   191   96  218 1    
   192   96  219 1    
   193   97   98 2    
   194   97   99 am   BACKBONE|DICT|INTERRES
   195   99  100 1    
   196   99  220 1    
   197  100  101 1    
   198  100  102 1    
   199  100  221 1    
   200  101  222 1    
   201  101  223 1    
   202  101  224 1    
   203  102  103 2    
   204  102  104 am   BACKBONE|DICT|INTERRES
   205  104  105 1    
   206  104  225 1    
   207  105  106 1    
   208  105  107 1    
   209  105  226 1    
   210  106  227 1    
   211  106  228 1    
   212  106  229 1    
   213  107  108 2    
   214  107  109 am   BACKBONE|DICT|INTERRES
   215  109  110 1    
   216  109  230 1    
   217  110  111 1    
   218  110  112 1    
   219  110  231 1    
   220  111  232 1    
   221  111  233 1    
   222  111  234 1    
   223  112  113 2    
   224  112  114 am   BACKBONE|DICT|INTERRES
   225  114  115 1    
   226  114  235 1    
   227  115  116 1    
   228  115  117 1    
   229  115  236 1    
   230  116  237 1    
   231  116  238 1    
   232  116  239 1    
   233  117  118 2    
   234  117  119 am   BACKBONE|DICT|INTERRES
   235  119  120 1    
   236  119  240 1    
   237  120  121 1    
   238  120  124 1    
   239  120  241 1    
   240  121  122 am   BACKBONE|DICT|INTERRES
   241  121  123 2    
   242  122  242 1    
   243  122  243 1    
   244  124  125 1    
   245  124  244 1    
   246  124  245 1    
   247  125  126 1    
   248  126  246 1    
   249  126  247 1    
@<TRIPOS>SUBSTRUCTURE
     1 UNK         1 GROUP             0       ****    0 ROOT    
