@<TRIPOS>MOLECULE
3R540
247   249    1
SMALL
USER_CHARGES


@<TRIPOS>ATOM
      1 CA          2.1068  -16.3466  -52.5842 C.3       0 UNK        -0.1800 
      2 C           2.6029  -15.0258  -52.0117 C.2       0 UNK         0.5000 
      3 O           3.6215  -14.5015  -52.4626 O.2       0 UNK        -0.5000 
      4 N           1.8840  -14.4906  -51.0238 N.am      1 UNK        -0.5000 
      5 CA          2.1632  -13.2493  -50.3063 C.3       1 UNK         0.1400 
      6 C6          3.4401  -13.3231  -49.4107 C.3       23 UNK        -0.0398 
      7 S7          3.2857  -14.1380  -47.7770 S.3       23 UNK        -0.2404 
      8 C8          3.7998  -15.8579  -48.1191 C.3       23 UNK        -0.0205 
      9 C9          2.7138  -16.7872  -48.6647 C.ar      23 UNK        -0.0193 
     10 C10         1.3541  -16.4470  -48.6718 C.ar      23 UNK        -0.1150 
     11 C11         0.3929  -17.3361  -49.1554 C.ar      23 UNK        -0.0193 
     12 C12         0.7967  -18.5772  -49.6441 C.ar      23 UNK        -0.1150 
     13 C13         2.1407  -18.9564  -49.6028 C.ar      23 UNK        -0.0193 
     14 C14         3.0933  -18.0521  -49.1255 C.ar      23 UNK        -0.1150 
     15 C15         2.5531  -20.3572  -50.0352 C.3       23 UNK        -0.0205 
     16 S16         2.4507  -21.5520  -48.6565 S.3       23 UNK        -0.2404 
     17 C17         0.6625  -21.5123  -48.3106 C.3       23 UNK        -0.0398 
     18 CA          0.1435  -22.6936  -47.4631 C.3       11 UNK         0.1400 
     19 N           0.5520  -22.5773  -46.0577 N.am      11 UNK        -0.5000 
     20 C           0.2953  -23.4835  -45.1036 C.2       10 UNK         0.5000 
     21 O          -0.2847  -24.5473  -45.3120 O.2       10 UNK        -0.5000 
     22 CA          0.6988  -23.1217  -43.6632 C.3       10 UNK         0.1400 
     23 CB          2.2140  -23.2656  -43.4564 C.3       10 UNK        -0.1800 
     24 N           0.2642  -21.7785  -43.2794 N.am      10 UNK        -0.5000 
     25 C          -1.0172  -21.3896  -43.2019 C.2       9 UNK         0.5000 
     26 O          -1.9730  -22.1372  -43.4081 O.2       9 UNK        -0.5000 
     27 CA         -1.2783  -19.9045  -42.8907 C.3       9 UNK         0.1400 
     28 CB         -1.1501  -19.6249  -41.3861 C.3       9 UNK        -0.1800 
     29 N          -0.3907  -19.0107  -43.6320 N.am      9 UNK        -0.5000 
     30 C          -0.3431  -18.9189  -44.9684 C.2       8 UNK         0.5000 
     31 O          -1.0808  -19.5427  -45.7303 O.2       8 UNK        -0.5000 
     32 CA          0.7550  -18.0187  -45.5514 C.3       8 UNK         0.1400 
     33 CB          0.3494  -16.5398  -45.4745 C.3       8 UNK        -0.1800 
     34 N           2.0418  -18.2171  -44.8894 N.am      8 UNK        -0.5000 
     35 C           2.7417  -19.3598  -44.9279 C.2       7 UNK         0.5000 
     36 O           2.3785  -20.3683  -45.5301 O.2       7 UNK        -0.5000 
     37 CA          4.0384  -19.3942  -44.1020 C.3       7 UNK         0.1400 
     38 CB          5.1823  -18.7086  -44.8648 C.3       7 UNK        -0.1800 
     39 N           3.8728  -18.7596  -42.7937 N.am      7 UNK        -0.5000 
     40 C           3.0618  -19.2136  -41.8264 C.2       6 UNK         0.5000 
     41 O           2.4155  -20.2579  -41.9073 O.2       6 UNK        -0.5000 
     42 CA          2.9045  -18.3139  -40.5866 C.3       6 UNK         0.1400 
     43 CB          4.0251  -18.5854  -39.5721 C.3       6 UNK        -0.1800 
     44 N           2.8845  -16.8872  -40.9257 N.am      6 UNK        -0.5000 
     45 C           1.9264  -16.3017  -41.6554 C.2       5 UNK         0.5000 
     46 O           0.9441  -16.9006  -42.1012 O.2       5 UNK        -0.5000 
     47 CA          2.1238  -14.8170  -41.9834 C.3       5 UNK         0.1400 
     48 CB          3.0724  -14.6427  -43.1840 C.3       5 UNK        -0.1800 
     49 N           0.8270  -14.2224  -42.2900 N.am      5 UNK        -0.5000 
     50 C           0.5104  -12.9344  -42.1231 C.2       4 UNK         0.5000 
     51 O           1.3084  -12.0851  -41.7214 O.2       4 UNK        -0.5000 
     52 CA         -0.9303  -12.5370  -42.4864 C.3       4 UNK         0.1400 
     53 CB         -1.1810  -11.0171  -42.4025 C.3       4 UNK        -0.1800 
     54 N          -1.2502  -13.0206  -43.8268 N.am      4 UNK        -0.5000 
     55 C          -2.4764  -13.2715  -44.2957 C.2       3 UNK         0.5000 
     56 O          -3.4959  -13.1751  -43.6101 O.2       3 UNK        -0.5000 
     57 CA         -2.5743  -13.6659  -45.7875 C.3       3 UNK         0.1400 
     58 CB         -4.0266  -13.8744  -46.2545 C.3       3 UNK        -0.1800 
     59 N          -1.9379  -12.6811  -46.6677 N.am      3 UNK        -0.5000 
     60 C          -0.6203  -12.5518  -46.8633 C.2       2 UNK         0.5000 
     61 O           0.2217  -13.2443  -46.2881 O.2       2 UNK        -0.5000 
     62 CA         -0.1679  -11.4305  -47.8189 C.3       2 UNK         0.1400 
     63 CB          0.2510  -10.1874  -47.0191 C.3       2 UNK        -0.1800 
     64 N           0.9500  -11.8547  -48.6638 N.am      2 UNK        -0.5000 
     65 C           0.8624  -12.8155  -49.5928 C.2       1 UNK         0.5000 
     66 O          -0.2059  -13.3531  -49.8995 O.2       1 UNK        -0.5000 
     67 C          -1.3898  -22.7960  -47.6218 C.2       11 UNK         0.5000 
     68 O          -1.8711  -23.6000  -48.4272 O.2       11 UNK        -0.5000 
     69 N          -2.1293  -21.9759  -46.8614 N.am      12 UNK        -0.5000 
     70 CA         -3.5894  -21.9659  -46.8335 C.3       12 UNK         0.1400 
     71 CB         -4.0969  -20.7656  -46.0216 C.3       12 UNK        -0.1800 
     72 C          -4.1690  -23.2863  -46.3001 C.2       12 UNK         0.5000 
     73 O          -5.0500  -23.8618  -46.9395 O.2       12 UNK        -0.5000 
     74 N          -3.6308  -23.7619  -45.1692 N.am      13 UNK        -0.5000 
     75 CA         -4.0029  -25.0303  -44.5429 C.3       13 UNK         0.1400 
     76 CB         -3.3354  -25.1312  -43.1629 C.3       13 UNK        -0.1800 
     77 C          -3.6533  -26.2589  -45.4027 C.2       13 UNK         0.5000 
     78 O          -4.4190  -27.2237  -45.4120 O.2       13 UNK        -0.5000 
     79 N          -2.5107  -26.2039  -46.1014 N.am      14 UNK        -0.5000 
     80 CA         -2.0102  -27.2719  -46.9623 C.3       14 UNK         0.1400 
     81 CB         -0.5591  -26.9783  -47.3763 C.3       14 UNK        -0.1800 
     82 C          -2.8892  -27.5158  -48.1992 C.2       14 UNK         0.5000 
     83 O          -3.3042  -28.6548  -48.4209 O.2       14 UNK        -0.5000 
     84 N          -3.1373  -26.4643  -48.9941 N.am      15 UNK        -0.5000 
     85 CA         -3.7929  -26.5961  -50.2988 C.3       15 UNK         0.1400 
     86 CB         -2.8024  -27.1957  -51.3241 C.3       15 UNK        -0.1800 
     87 C          -4.4073  -25.2796  -50.8033 C.2       15 UNK         0.5000 
     88 O          -4.4776  -25.0841  -52.0174 O.2       15 UNK        -0.5000 
     89 N          -4.8184  -24.3779  -49.8976 N.am      16 UNK        -0.5000 
     90 CA         -5.3995  -23.0608  -50.2091 C.3       16 UNK         0.1400 
     91 CB         -6.8009  -23.2168  -50.8367 C.3       16 UNK        -0.1800 
     92 C          -4.4578  -22.1787  -51.0603 C.2       16 UNK         0.5000 
     93 O          -4.9082  -21.5079  -51.9913 O.2       16 UNK        -0.5000 
     94 N          -3.1530  -22.2407  -50.7492 N.am      17 UNK        -0.5000 
     95 CA         -2.0487  -21.6225  -51.4908 C.3       17 UNK         0.1400 
     96 CB         -2.1529  -20.0826  -51.4531 C.3       17 UNK        -0.1800 
     97 C          -1.9087  -22.1901  -52.9175 C.2       17 UNK         0.5000 
     98 O          -1.7285  -21.4321  -53.8682 O.2       17 UNK        -0.5000 
     99 N          -2.0370  -23.5201  -53.0417 N.am      18 UNK        -0.5000 
    100 CA        -2.1034  -24.2831  -54.2965 C.3       18 UNK         0.1400 
    101 CB        -0.7496  -24.2536  -55.0358 C.3       18 UNK        -0.1800 
    102 C         -3.2917  -23.8316  -55.1734 C.2       18 UNK         0.5000 
    103 O         -3.1439  -23.6269  -56.3793 O.2       18 UNK        -0.5000 
    104 N         -4.4415  -23.6460  -54.5107 N.am      19 UNK        -0.5000 
    105 CA        -5.7156  -23.1287  -55.0150 C.3       19 UNK         0.1400 
    106 CB        -6.3075  -24.0755  -56.0795 C.3       19 UNK        -0.1800 
    107 C         -5.6828  -21.6572  -55.4879 C.2       19 UNK         0.5000 
    108 O         -6.6486  -21.2139  -56.1122 O.2       19 UNK        -0.5000 
    109 N         -4.6106  -20.9089  -55.1826 N.am      20 UNK        -0.5000 
    110 CA        -4.4907  -19.4872  -55.5174 C.3       20 UNK         0.1400 
    111 CB        -3.0220  -19.0454  -55.4434 C.3       20 UNK        -0.1800 
    112 C         -5.3631  -18.5891  -54.6222 C.2       20 UNK         0.5000 
    113 O         -5.8312  -17.5575  -55.1040 O.2       20 UNK        -0.5000 
    114 N         -5.5712  -19.0088  -53.3621 N.am      21 UNK        -0.5000 
    115 CA        -6.3879  -18.3769  -52.3219 C.3       21 UNK         0.1400 
    116 CB        -7.8840  -18.5514  -52.6506 C.3       21 UNK        -0.1800 
    117 C         -6.0090  -16.9027  -52.0621 C.2       21 UNK         0.5000 
    118 O         -6.6521  -15.9972  -52.5972 O.2       21 UNK        -0.5000 
    119 N         -4.9644  -16.6916  -51.2478 N.am      22 UNK        -0.5000 
    120 CA        -4.4357  -15.3633  -50.8736 C.3       22 UNK         0.1400 
    121 C         -5.4574  -14.3933  -50.2033 C.2       22 UNK         0.5000 
    122 N         -6.5017  -14.8818  -49.5447 N.am      22 UNK        -0.7600 
    123 O         -5.2905  -13.1791  -50.2750 O.2       22 UNK        -0.5000 
    124 C124       -3.1901  -15.4648  -49.9578 C.3       23 UNK        -0.0398 
    125 S125       -1.7954  -16.4303  -50.6305 S.3       23 UNK        -0.2404 
    126 C126       -1.0832  -16.9907  -49.0539 C.3       23 UNK        -0.0205 
    127 H127        2.8335  -17.1352  -52.3885 H         1 UNK         0.0600 
    128 H128        1.9691  -16.2643  -53.6622 H         1 UNK         0.0600 
    129 H129        1.1563  -16.6469  -52.1417 H         1 UNK         0.0600 
    130 H130        1.0231  -14.9345  -50.7251 H         1 UNK         0.3000 
    131 H131        2.3423  -12.4874  -51.0675 H         1 UNK         0.0600 
    132 H132        3.7825  -12.3066  -49.2135 H         1 UNK         0.0800 
    133 H133        4.2635  -13.7825  -49.9576 H         1 UNK         0.0800 
    134 H134        4.1608  -16.2864  -47.1834 H         1 UNK         0.0800 
    135 H135        4.6514  -15.8486  -48.8006 H         1 UNK         0.0800 
    136 H136        1.0245  -15.4976  -48.2769 H         1 UNK         0.1150 
    137 H137        0.0549  -19.2705  -50.0045 H         1 UNK         0.1150 
    138 H138        4.1335  -18.3441  -49.0908 H         1 UNK         0.1150 
    139 H139        1.9284  -20.6957  -50.8633 H         1 UNK         0.0800 
    140 H140        3.5762  -20.3426  -50.4137 H         1 UNK         0.0800 
    141 H141        0.1627  -21.4887  -49.2761 H         1 UNK         0.0800 
    142 H142        0.4245  -20.5698  -47.8155 H         1 UNK         0.0800 
    143 H143        0.5682  -23.6192  -47.8564 H         1 UNK         0.0600 
    144 H144        1.0772  -21.7413  -45.8113 H         1 UNK         0.3000 
    145 H145        0.2027  -23.8296  -42.9960 H         1 UNK         0.0600 
    146 H146        2.4877  -23.0857  -42.4167 H         1 UNK         0.0600 
    147 H147        2.7770  -22.5671  -44.0748 H         1 UNK         0.0600 
    148 H148        2.5479  -24.2720  -43.7116 H         1 UNK         0.0600 
    149 H149        0.9942  -21.1108  -43.0525 H         1 UNK         0.3000 
    150 H150       -2.3027  -19.6770  -43.1921 H         1 UNK         0.0600 
    151 H151       -1.8332  -20.2533  -40.8133 H         1 UNK         0.0600 
    152 H152       -1.3911  -18.5868  -41.1565 H         1 UNK         0.0600 
    153 H153       -0.1411  -19.8207  -41.0233 H         1 UNK         0.0600 
    154 H154        0.2292  -18.4229  -43.0824 H         1 UNK         0.3000 
    155 H155        0.8831  -18.2937  -46.5984 H         1 UNK         0.0600 
    156 H156       -0.5471  -16.3619  -46.0652 H         1 UNK         0.0600 
    157 H157        1.1317  -15.8901  -45.8661 H         1 UNK         0.0600 
    158 H158        0.1319  -16.2214  -44.4567 H         1 UNK         0.0600 
    159 H159        2.3878  -17.4544  -44.3295 H         1 UNK         0.3000 
    160 H160        4.3081  -20.4403  -43.9427 H         1 UNK         0.0600 
    161 H161        4.9855  -17.6475  -45.0227 H         1 UNK         0.0600 
    162 H162        5.3243  -19.1649  -45.8456 H         1 UNK         0.0600 
    163 H163        6.1253  -18.7989  -44.3255 H         1 UNK         0.0600 
    164 H164        4.3713  -17.8964  -42.6376 H         1 UNK         0.3000 
    165 H165        1.9508  -18.5626  -40.1161 H         1 UNK         0.0600 
    166 H166        3.8772  -18.0100  -38.6581 H         1 UNK         0.0600 
    167 H167        4.0492  -19.6391  -39.2909 H         1 UNK         0.0600 
    168 H168        5.0062  -18.3306  -39.9750 H         1 UNK         0.0600 
    169 H169        3.6606  -16.3328  -40.5932 H         1 UNK         0.3000 
    170 H170        2.5510  -14.3296  -41.1043 H         1 UNK         0.0600 
    171 H171        2.6674  -15.0973  -44.0884 H         1 UNK         0.0600 
    172 H172        3.2481  -13.5881  -43.3968 H         1 UNK         0.0600 
    173 H173        4.0442  -15.0983  -42.9913 H         1 UNK         0.0600 
    174 H174        0.1181  -14.8862  -42.5748 H         1 UNK         0.3000 
    175 H175       -1.5802  -13.0337  -41.7631 H         1 UNK         0.0600 
    176 H176       -0.5645  -10.4709  -43.1175 H         1 UNK         0.0600 
    177 H177       -2.2237  -10.7740  -42.6064 H         1 UNK         0.0600 
    178 H178       -0.9516  -10.6353  -41.4070 H         1 UNK         0.0600 
    179 H179       -0.4664  -13.1275  -44.4668 H         1 UNK         0.3000 
    180 H180       -2.0564  -14.6189  -45.9002 H         1 UNK         0.0600 
    181 H181       -4.6161  -12.9620  -46.1576 H         1 UNK         0.0600 
    182 H182       -4.5200  -14.6499  -45.6673 H         1 UNK         0.0600 
    183 H183       -4.0663  -14.1864  -47.2975 H         1 UNK         0.0600 
    184 H184       -2.5633  -12.0447  -47.1403 H         1 UNK         0.3000 
    185 H185       -1.0027  -11.1605  -48.4693 H         1 UNK         0.0600 
    186 H186        1.0972  -10.3978  -46.3635 H         1 UNK         0.0600 
    187 H187        0.5331   -9.3681  -47.6805 H         1 UNK         0.0600 
    188 H188       -0.5678   -9.8315  -46.3923 H         1 UNK         0.0600 
    189 H189        1.8574  -11.4870  -48.4205 H         1 UNK         0.3000 
    190 H190       -1.6627  -21.2909  -46.2722 H         1 UNK         0.3000 
    191 H191       -3.9304  -21.8345  -47.8594 H         1 UNK         0.0600 
    192 H192       -3.7582  -19.8254  -46.4571 H         1 UNK         0.0600 
    193 H193       -3.7500  -20.7988  -44.9890 H         1 UNK         0.0600 
    194 H194       -5.1871  -20.7402  -46.0017 H         1 UNK         0.0600 
    195 H195       -2.9222  -23.2116  -44.6902 H         1 UNK         0.3000 
    196 H196       -5.0851  -25.0255  -44.3978 H         1 UNK         0.0600 
    197 H197       -3.6465  -24.3121  -42.5143 H         1 UNK         0.0600 
    198 H198       -2.2478  -25.1009  -43.2404 H         1 UNK         0.0600 
    199 H199       -3.6051  -26.0626  -42.6636 H         1 UNK         0.0600 
    200 H200       -1.8976  -25.4044  -45.9708 H         1 UNK         0.3000 
    201 H201       -2.0056  -28.1935  -46.3764 H         1 UNK         0.0600 
    202 H202        0.1000  -26.9573  -46.5085 H         1 UNK         0.0600 
    203 H203       -0.4693  -26.0196  -47.8878 H         1 UNK         0.0600 
    204 H204       -0.1799  -27.7476  -48.0502 H         1 UNK         0.0600 
    205 H205       -2.7606  -25.5536  -48.7523 H         1 UNK         0.3000 
    206 H206       -4.6351  -27.2835  -50.1973 H         1 UNK         0.0600 
    207 H207       -2.4295  -28.1684  -51.0042 H         1 UNK         0.0600 
    208 H208       -1.9418  -26.5431  -51.4748 H         1 UNK         0.0600 
    209 H209       -3.2758  -27.3483  -52.2948 H         1 UNK         0.0600 
    210 H210       -4.7514  -24.5976  -48.9097 H         1 UNK         0.3000 
    211 H211       -5.5370  -22.5397  -49.2633 H         1 UNK         0.0600 
    212 H212       -6.7615  -23.7049  -51.8102 H         1 UNK         0.0600 
    213 H213       -7.2776  -22.2459  -50.9777 H         1 UNK         0.0600 
    214 H214       -7.4541  -23.8067  -50.1939 H         1 UNK         0.0600 
    215 H215       -2.8761  -22.8333  -49.9725 H         1 UNK         0.3000 
    216 H216       -1.1339  -21.9104  -50.9779 H         1 UNK         0.0600 
    217 H217       -1.2706  -19.6194  -51.8958 H         1 UNK         0.0600 
    218 H218       -2.2391  -19.7191  -50.4296 H         1 UNK         0.0600 
    219 H219       -3.0150  -19.7144  -52.0080 H         1 UNK         0.0600 
    220 H220       -2.2395  -24.0502  -52.2070 H         1 UNK         0.3000 
    221 H221       -2.3049  -25.3188  -54.0188 H         1 UNK         0.0600 
    222 H222       -0.5030  -23.2544  -55.3959 H         1 UNK         0.0600 
    223 H223        0.0605  -24.5858  -54.3868 H         1 UNK         0.0600 
    224 H224       -0.7649  -24.9169  -55.9013 H         1 UNK         0.0600 
    225 H225       -4.4464  -23.9010  -53.5261 H         1 UNK         0.3000 
    226 H226       -6.3909  -23.1409  -54.1590 H         1 UNK         0.0600 
    227 H227       -6.3417  -25.1031  -55.7173 H         1 UNK         0.0600 
    228 H228       -7.3287  -23.7904  -56.3347 H         1 UNK         0.0600 
    229 H229       -5.7262  -24.0627  -57.0017 H         1 UNK         0.0600 
    230 H230       -3.8435  -21.3258  -54.6704 H         1 UNK         0.3000 
    231 H231       -4.8231  -19.3536  -56.5491 H         1 UNK         0.0600 
    232 H232       -2.9040  -18.0303  -55.8244 H         1 UNK         0.0600 
    233 H233       -2.3805  -19.6942  -56.0401 H         1 UNK         0.0600 
    234 H234       -2.6500  -19.0498  -54.4188 H         1 UNK         0.0600 
    235 H235       -5.1542  -19.8936  -53.0850 H         1 UNK         0.3000 
    236 H236       -6.1935  -18.9280  -51.4004 H         1 UNK         0.0600 
    237 H237       -8.1556  -18.0629  -53.5870 H         1 UNK         0.0600 
    238 H238       -8.1450  -19.6063  -52.7373 H         1 UNK         0.0600 
    239 H239       -8.5084  -18.1245  -51.8650 H         1 UNK         0.0600 
    240 H240       -4.4654  -17.4840  -50.8721 H         1 UNK         0.3000 
    241 H241       -4.1237  -14.8837  -51.8031 H         1 UNK         0.0600 
    242 H242       -7.1576  -14.2469  -49.1178 H         1 UNK         0.3800 
    243 H243       -6.6548  -15.8750  -49.4823 H         1 UNK         0.3800 
    244 H244       -3.4863  -15.8988  -49.0010 H         1 UNK         0.0800 
    245 H245       -2.8016  -14.4696  -49.7304 H         1 UNK         0.0800 
    246 H246       -1.6414  -17.8544  -48.6890 H         1 UNK         0.0800 
    247 H247       -1.2155  -16.2060  -48.3078 H         1 UNK         0.0800 
@<TRIPOS>BOND
     1    1    2 1    
     2    1  127 1    
     3    1  128 1    
     4    1  129 1    
     5    2    3 2    
     6    2    4 am   BACKBONE|DICT|INTERRES
     7    4    5 1    
     8    4  130 1    
     9    5    6 1    
    10    5   65 1    
    11    5  131 1    
    12    6    7 1    
    13    6  132 1    
    14    6  133 1    
    15    7    8 1    
    16    8    9 1    
    17    8  134 1    
    18    8  135 1    
    19    9   10 ar   
    20    9   14 ar   
    21   10   11 ar   
    22   10  136 1    
    23   11   12 ar   
    24   11  126 1    
    25   12   13 ar   
    26   12  137 1    
    27   13   14 ar   
    28   13   15 1    
    29   14  138 1    
    30   15   16 1    
    31   15  139 1    
    32   15  140 1    
    33   16   17 1    
    34   17   18 1    
    35   17  141 1    
    36   17  142 1    
    37   18   19 1    
    38   18   67 1    
    39   18  143 1    
    40   19   20 am   BACKBONE|DICT|INTERRES
    41   19  144 1    
    42   20   21 2    
    43   20   22 1    
    44   22   23 1    
    45   22   24 1    
    46   22  145 1    
    47   23  146 1    
    48   23  147 1    
    49   23  148 1    
    50   24   25 am   BACKBONE|DICT|INTERRES
    51   24  149 1    
    52   25   26 2    
    53   25   27 1    
    54   27   28 1    
    55   27   29 1    
    56   27  150 1    
    57   28  151 1    
    58   28  152 1    
    59   28  153 1    
    60   29   30 am   BACKBONE|DICT|INTERRES
    61   29  154 1    
    62   30   31 2    
    63   30   32 1    
    64   32   33 1    
    65   32   34 1    
    66   32  155 1    
    67   33  156 1    
    68   33  157 1    
    69   33  158 1    
    70   34   35 am   BACKBONE|DICT|INTERRES
    71   34  159 1    
    72   35   36 2    
    73   35   37 1    
    74   37   38 1    
    75   37   39 1    
    76   37  160 1    
    77   38  161 1    
    78   38  162 1    
    79   38  163 1    
    80   39   40 am   BACKBONE|DICT|INTERRES
    81   39  164 1    
    82   40   41 2    
    83   40   42 1    
    84   42   43 1    
    85   42   44 1    
    86   42  165 1    
    87   43  166 1    
    88   43  167 1    
    89   43  168 1    
    90   44   45 am   BACKBONE|DICT|INTERRES
    91   44  169 1    
    92   45   46 2    
    93   45   47 1    
    94   47   48 1    
    95   47   49 1    
    96   47  170 1    
    97   48  171 1    
    98   48  172 1    
    99   48  173 1    
   100   49   50 am   BACKBONE|DICT|INTERRES
   101   49  174 1    
   102   50   51 2    
   103   50   52 1    
   104   52   53 1    
   105   52   54 1    
   106   52  175 1    
   107   53  176 1    
   108   53  177 1    
   109   53  178 1    
   110   54   55 am   BACKBONE|DICT|INTERRES
   111   54  179 1    
   112   55   56 2    
   113   55   57 1    
   114   57   58 1    
   115   57   59 1    
   116   57  180 1    
   117   58  181 1    
   118   58  182 1    
   119   58  183 1    
   120   59   60 am   BACKBONE|DICT|INTERRES
   121   59  184 1    
   122   60   61 2    
   123   60   62 1    
   124   62   63 1    
   125   62   64 1    
   126   62  185 1    
   127   63  186 1    
   128   63  187 1    
   129   63  188 1    
   130   64   65 am   BACKBONE|DICT|INTERRES
   131   64  189 1    
   132   65   66 2    
   133   67   68 2    
   134   67   69 am   BACKBONE|DICT|INTERRES
   135   69   70 1    
   136   69  190 1    
   137   70   71 1    
   138   70   72 1    
   139   70  191 1    
   140   71  192 1    
   141   71  193 1    
   142   71  194 1    
   143   72   73 2    
   144   72   74 am   BACKBONE|DICT|INTERRES
   145   74   75 1    
   146   74  195 1    
   147   75   76 1    
   148   75   77 1    
   149   75  196 1    
   150   76  197 1    
   151   76  198 1    
   152   76  199 1    
   153   77   78 2    
   154   77   79 am   BACKBONE|DICT|INTERRES
   155   79   80 1    
   156   79  200 1    
   157   80   81 1    
   158   80   82 1    
   159   80  201 1    
   160   81  202 1    
   161   81  203 1    
   162   81  204 1    
   163   82   83 2    
   164   82   84 am   BACKBONE|DICT|INTERRES
   165   84   85 1    
   166   84  205 1    
   167   85   86 1    
   168   85   87 1    
   169   85  206 1    
   170   86  207 1    
   171   86  208 1    
   172   86  209 1    
   173   87   88 2    
   174   87   89 am   BACKBONE|DICT|INTERRES
   175   89   90 1    
   176   89  210 1    
   177   90   91 1    
   178   90   92 1    
   179   90  211 1    
   180   91  212 1    
   181   91  213 1    
   182   91  214 1    
   183   92   93 2    
   184   92   94 am   BACKBONE|DICT|INTERRES
   185   94   95 1    
   186   94  215 1    
   187   95   96 1    
   188   95   97 1    
   189   95  216 1    
   190   96  217 1    
   191   96  218 1    
   192   96  219 1    
   193   97   98 2    
   194   97   99 am   BACKBONE|DICT|INTERRES
   195   99  100 1    
   196   99  220 1    
   197  100  101 1    
   198  100  102 1    
   199  100  221 1    
   200  101  222 1    
   201  101  223 1    
   202  101  224 1    
   203  102  103 2    
   204  102  104 am   BACKBONE|DICT|INTERRES
   205  104  105 1    
   206  104  225 1    
   207  105  106 1    
   208  105  107 1    
   209  105  226 1    
   210  106  227 1    
   211  106  228 1    
   212  106  229 1    
   213  107  108 2    
   214  107  109 am   BACKBONE|DICT|INTERRES
   215  109  110 1    
   216  109  230 1    
   217  110  111 1    
   218  110  112 1    
   219  110  231 1    
   220  111  232 1    
   221  111  233 1    
   222  111  234 1    
   223  112  113 2    
   224  112  114 am   BACKBONE|DICT|INTERRES
   225  114  115 1    
   226  114  235 1    
   227  115  116 1    
   228  115  117 1    
   229  115  236 1    
   230  116  237 1    
   231  116  238 1    
   232  116  239 1    
   233  117  118 2    
   234  117  119 am   BACKBONE|DICT|INTERRES
   235  119  120 1    
   236  119  240 1    
   237  120  121 1    
   238  120  124 1    
   239  120  241 1    
   240  121  122 am   BACKBONE|DICT|INTERRES
   241  121  123 2    
   242  122  242 1    
   243  122  243 1    
   244  124  125 1    
   245  124  244 1    
   246  124  245 1    
   247  125  126 1    
   248  126  246 1    
   249  126  247 1    
@<TRIPOS>SUBSTRUCTURE
     1 UNK         1 GROUP             0       ****    0 ROOT    
