@<TRIPOS>MOLECULE
3R540
247   249    1
SMALL
USER_CHARGES


@<TRIPOS>ATOM
      1 CA         -2.3639   -8.6648  -46.6078 C.3       0 UNK        -0.1800 
      2 C          -1.1598   -9.5951  -46.6019 C.2       0 UNK         0.5000 
      3 O          -0.1937   -9.3432  -45.8819 O.2       0 UNK        -0.5000 
      4 N          -1.2178  -10.6757  -47.3927 N.am      1 UNK        -0.5000 
      5 CA         -0.1483  -11.6737  -47.5555 C.3       1 UNK         0.1400 
      6 C6         -0.4731  -12.7155  -48.6536 C.3       23 UNK        -0.0398 
      7 S7         -0.8380  -11.9532  -50.2731 S.3       23 UNK        -0.2404 
      8 C8         -2.6127  -12.3179  -50.4764 C.3       23 UNK        -0.0205 
      9 C9         -2.8606  -13.7925  -50.7584 C.ar      23 UNK        -0.0193 
     10 C10        -2.5949  -14.3156  -52.0264 C.ar      23 UNK        -0.1150 
     11 C11        -2.8022  -15.6715  -52.2938 C.ar      23 UNK        -0.0193 
     12 C12        -3.2816  -16.5090  -51.2808 C.ar      23 UNK        -0.1150 
     13 C13        -3.5601  -15.9947  -50.0100 C.ar      23 UNK        -0.0193 
     14 C14        -3.3544  -14.6349  -49.7581 C.ar      23 UNK        -0.1150 
     15 C15        -4.0729  -16.9003  -48.9007 C.3       23 UNK        -0.0205 
     16 S16        -2.7179  -17.3820  -47.7885 S.3       23 UNK        -0.2404 
     17 C17        -3.6065  -18.2721  -46.4654 C.3       23 UNK        -0.0398 
     18 CA         -3.4606  -19.8072  -46.5846 C.3       11 UNK         0.1400 
     19 N          -2.0734  -20.2656  -46.4415 N.am      11 UNK        -0.5000 
     20 C          -1.6576  -21.5236  -46.6430 C.2       10 UNK         0.5000 
     21 O          -2.4064  -22.4417  -46.9755 O.2       10 UNK        -0.5000 
     22 CA         -0.1717  -21.8257  -46.3892 C.3       10 UNK         0.1400 
     23 CB          0.7058  -21.2909  -47.5307 C.3       10 UNK        -0.1800 
     24 N           0.2857  -21.2996  -45.1033 N.am      10 UNK        -0.5000 
     25 C          -0.1553  -21.7388  -43.9150 C.2       9 UNK         0.5000 
     26 O          -0.9498  -22.6694  -43.7834 O.2       9 UNK        -0.5000 
     27 CA          0.3431  -20.9962  -42.6621 C.3       9 UNK         0.1400 
     28 CB          1.7311  -21.5042  -42.2445 C.3       9 UNK        -0.1800 
     29 N           0.3844  -19.5446  -42.8345 N.am      9 UNK        -0.5000 
     30 C          -0.6831  -18.7719  -43.0827 C.2       8 UNK         0.5000 
     31 O          -1.8361  -19.1941  -43.1667 O.2       8 UNK        -0.5000 
     32 CA         -0.4051  -17.2808  -43.3423 C.3       8 UNK         0.1400 
     33 CB         -0.1308  -16.5492  -42.0207 C.3       8 UNK        -0.1800 
     34 N           0.7066  -17.0686  -44.2726 N.am      8 UNK        -0.5000 
     35 C           0.7568  -17.5632  -45.5192 C.2       7 UNK         0.5000 
     36 O          -0.1411  -18.2305  -46.0259 O.2       7 UNK        -0.5000 
     37 CA          2.0530  -17.3388  -46.3104 C.3       7 UNK         0.1400 
     38 CB          2.1055  -15.9204  -46.8900 C.3       7 UNK        -0.1800 
     39 N           3.2308  -17.5872  -45.4826 N.am      7 UNK        -0.5000 
     40 C           3.6017  -18.8019  -45.0531 C.2       6 UNK         0.5000 
     41 O           3.0209  -19.8441  -45.3576 O.2       6 UNK        -0.5000 
     42 CA          4.7979  -18.8505  -44.0858 C.3       6 UNK         0.1400 
     43 CB          6.1243  -18.8299  -44.8598 C.3       6 UNK        -0.1800 
     44 N           4.7805  -17.7501  -43.1200 N.am      6 UNK        -0.5000 
     45 C           3.8558  -17.6040  -42.1607 C.2       5 UNK         0.5000 
     46 O           2.9361  -18.3997  -41.9719 O.2       5 UNK        -0.5000 
     47 CA          3.9533  -16.3374  -41.2909 C.3       5 UNK         0.1400 
     48 CB          4.8875  -16.5753  -40.0954 C.3       5 UNK        -0.1800 
     49 N           4.3982  -15.1500  -42.0271 N.am      5 UNK        -0.5000 
     50 C           3.7179  -14.5813  -43.0306 C.2       4 UNK         0.5000 
     51 O           2.6727  -15.0426  -43.4958 O.2       4 UNK        -0.5000 
     52 CA          4.3094  -13.2935  -43.6250 C.3       4 UNK         0.1400 
     53 CB          4.7995  -13.5267  -45.0621 C.3       4 UNK        -0.1800 
     54 N           3.2793  -12.2603  -43.6261 N.am      4 UNK        -0.5000 
     55 C           3.0457  -11.4245  -42.6027 C.2       3 UNK         0.5000 
     56 O           3.7896  -11.3165  -41.6269 O.2       3 UNK        -0.5000 
     57 CA          1.7456  -10.5924  -42.6551 C.3       3 UNK         0.1400 
     58 CB          2.0067   -9.2218  -43.2964 C.3       3 UNK        -0.1800 
     59 N           0.6764  -11.2718  -43.3881 N.am      3 UNK        -0.5000 
     60 C           0.1221  -12.4340  -43.0117 C.2       2 UNK         0.5000 
     61 O           0.2825  -12.9165  -41.8904 O.2       2 UNK        -0.5000 
     62 CA         -0.7198  -13.2083  -44.0520 C.3       2 UNK         0.1400 
     63 CB         -2.1420  -13.4757  -43.5341 C.3       2 UNK        -0.1800 
     64 N          -0.8108  -12.5773  -45.3713 N.am      2 UNK        -0.5000 
     65 C           0.1983  -12.3950  -46.2361 C.2       1 UNK         0.5000 
     66 O           1.3628  -12.7184  -46.0048 O.2       1 UNK        -0.5000 
     67 C          -4.4131  -20.5327  -45.6113 C.2       11 UNK         0.5000 
     68 O          -5.4900  -20.9569  -46.0331 O.2       11 UNK        -0.5000 
     69 N          -3.9786  -20.7248  -44.3561 N.am      12 UNK        -0.5000 
     70 CA         -4.6916  -21.4914  -43.3286 C.3       12 UNK         0.1400 
     71 CB         -3.9757  -21.3277  -41.9798 C.3       12 UNK        -0.1800 
     72 C          -4.8532  -22.9857  -43.6734 C.2       12 UNK         0.5000 
     73 O          -5.8371  -23.5990  -43.2601 O.2       12 UNK        -0.5000 
     74 N          -3.9189  -23.5317  -44.4620 N.am      13 UNK        -0.5000 
     75 CA         -3.9432  -24.8881  -45.0102 C.3       13 UNK         0.1400 
     76 CB         -2.4967  -25.4039  -45.1202 C.3       13 UNK        -0.1800 
     77 C          -4.6894  -24.9616  -46.3613 C.2       13 UNK         0.5000 
     78 O          -4.3660  -25.8175  -47.1855 O.2       13 UNK        -0.5000 
     79 N          -5.6619  -24.0622  -46.5783 N.am      14 UNK        -0.5000 
     80 CA         -6.5018  -23.9274  -47.7737 C.3       14 UNK         0.1400 
     81 CB         -7.4285  -25.1513  -47.9327 C.3       14 UNK        -0.1800 
     82 C          -5.6726  -23.6298  -49.0379 C.2       14 UNK         0.5000 
     83 O          -5.8478  -24.2852  -50.0661 O.2       14 UNK        -0.5000 
     84 N          -4.7501  -22.6652  -48.9116 N.am      15 UNK        -0.5000 
     85 CA         -3.7538  -22.2640  -49.9114 C.3       15 UNK         0.1400 
     86 CB         -4.4297  -21.5889  -51.1202 C.3       15 UNK        -0.1800 
     87 C          -2.8366  -23.4417  -50.2980 C.2       15 UNK         0.5000 
     88 O          -2.6624  -23.7344  -51.4815 O.2       15 UNK        -0.5000 
     89 N          -2.3056  -24.1138  -49.2664 N.am      16 UNK        -0.5000 
     90 CA         -1.4767  -25.3215  -49.3107 C.3       16 UNK         0.1400 
     91 CB         -0.0822  -24.9885  -49.8800 C.3       16 UNK        -0.1800 
     92 C          -2.1729  -26.4761  -50.0604 C.2       16 UNK         0.5000 
     93 O          -1.6074  -27.0313  -51.0018 O.2       16 UNK        -0.5000 
     94 N          -3.4184  -26.7759  -49.6633 N.am      17 UNK        -0.5000 
     95 CA         -4.3417  -27.7221  -50.3035 C.3       17 UNK         0.1400 
     96 CB         -3.8717  -29.1742  -50.0805 C.3       17 UNK        -0.1800 
     97 C          -4.5868  -27.3835  -51.7915 C.2       17 UNK         0.5000 
     98 O          -4.5549  -28.2655  -52.6513 O.2       17 UNK        -0.5000 
     99 N          -4.7853  -26.0853  -52.0530 N.am      18 UNK        -0.5000 
    100 CA        -4.9543  -25.4207  -53.3461 C.3       18 UNK         0.1400 
    101 CB        -6.2181  -25.9284  -54.0691 C.3       18 UNK        -0.1800 
    102 C         -3.7120  -25.4280  -54.2657 C.2       18 UNK         0.5000 
    103 O         -3.8174  -24.9697  -55.4045 O.2       18 UNK        -0.5000 
    104 N         -2.5517  -25.9010  -53.7857 N.am      19 UNK        -0.5000 
    105 CA        -1.3011  -25.9184  -54.5515 C.3       19 UNK         0.1400 
    106 CB        -0.3145  -26.9070  -53.9134 C.3       19 UNK        -0.1800 
    107 C         -0.6514  -24.5273  -54.6822 C.2       19 UNK         0.5000 
    108 O          0.0990  -24.3026  -55.6325 O.2       19 UNK        -0.5000 
    109 N         -0.9505  -23.6232  -53.7414 N.am      20 UNK        -0.5000 
    110 CA        -0.4483  -22.2514  -53.6844 C.3       20 UNK         0.1400 
    111 CB         0.2982  -22.0474  -52.3529 C.3       20 UNK        -0.1800 
    112 C         -1.5923  -21.2363  -53.8688 C.2       20 UNK         0.5000 
    113 O         -1.4903  -20.1072  -53.3855 O.2       20 UNK        -0.5000 
    114 N         -2.6643  -21.6342  -54.5715 N.am      21 UNK        -0.5000 
    115 CA        -3.8619  -20.8337  -54.8559 C.3       21 UNK         0.1400 
    116 CB        -5.0198  -21.7789  -55.2203 C.3       21 UNK        -0.1800 
    117 C         -3.6330  -19.7334  -55.9173 C.2       21 UNK         0.5000 
    118 O         -4.3833  -19.6376  -56.8900 O.2       21 UNK        -0.5000 
    119 N         -2.5964  -18.9184  -55.6968 N.am      22 UNK        -0.5000 
    120 CA        -2.2234  -17.7144  -56.4589 C.3       22 UNK         0.1400 
    121 C         -1.7138  -17.9765  -57.9099 C.2       22 UNK         0.5000 
    122 N         -1.3825  -19.2057  -58.2854 N.am      22 UNK        -0.7600 
    123 O         -1.5812  -17.0470  -58.7018 O.2       22 UNK        -0.5000 
    124 C124       -3.3139  -16.6031  -56.4061 C.3       23 UNK        -0.0398 
    125 S125       -3.9642  -16.1714  -54.7468 S.3       23 UNK        -0.2404 
    126 C126       -2.4937  -16.2274  -53.6740 C.3       23 UNK        -0.0205 
    127 H127       -2.7896   -8.5968  -45.6067 H         1 UNK         0.0600 
    128 H128       -3.1429   -9.0133  -47.2863 H         1 UNK         0.0600 
    129 H129       -2.0629   -7.6649  -46.9202 H         1 UNK         0.0600 
    130 H130       -2.0307  -10.8125  -47.9749 H         1 UNK         0.3000 
    131 H131        0.7481  -11.1312  -47.8636 H         1 UNK         0.0600 
    132 H132        0.3743  -13.3890  -48.7956 H         1 UNK         0.0800 
    133 H133       -1.3063  -13.3471  -48.3445 H         1 UNK         0.0800 
    134 H134       -3.1618  -11.9939  -49.5914 H         1 UNK         0.0800 
    135 H135       -2.9996  -11.7251  -51.3067 H         1 UNK         0.0800 
    136 H136       -2.2176  -13.6659  -52.8039 H         1 UNK         0.1150 
    137 H137       -3.4350  -17.5602  -51.4824 H         1 UNK         0.1150 
    138 H138       -3.5659  -14.2385  -48.7749 H         1 UNK         0.1150 
    139 H139       -4.5370  -17.7955  -49.3177 H         1 UNK         0.0800 
    140 H140       -4.8471  -16.3799  -48.3348 H         1 UNK         0.0800 
    141 H141       -4.6577  -17.9788  -46.4876 H         1 UNK         0.0800 
    142 H142       -3.2161  -17.9295  -45.5054 H         1 UNK         0.0800 
    143 H143       -3.7807  -20.0823  -47.5910 H         1 UNK         0.0600 
    144 H144       -1.3862  -19.5523  -46.2002 H         1 UNK         0.3000 
    145 H145       -0.0570  -22.9115  -46.3640 H         1 UNK         0.0600 
    146 H146        1.7504  -21.5666  -47.3855 H         1 UNK         0.0600 
    147 H147        0.3901  -21.7028  -48.4903 H         1 UNK         0.0600 
    148 H148        0.6559  -20.2052  -47.6092 H         1 UNK         0.0600 
    149 H149        0.9580  -20.5421  -45.1306 H         1 UNK         0.3000 
    150 H150       -0.3554  -21.2120  -41.8512 H         1 UNK         0.0600 
    151 H151        1.7245  -22.5849  -42.0975 H         1 UNK         0.0600 
    152 H152        2.0504  -21.0501  -41.3063 H         1 UNK         0.0600 
    153 H153        2.4860  -21.2784  -42.9983 H         1 UNK         0.0600 
    154 H154        1.2953  -19.1036  -42.7424 H         1 UNK         0.3000 
    155 H155       -1.2970  -16.8448  -43.7969 H         1 UNK         0.0600 
    156 H156       -1.0034  -16.5868  -41.3679 H         1 UNK         0.0600 
    157 H157        0.1063  -15.5012  -42.1881 H         1 UNK         0.0600 
    158 H158        0.7031  -16.9913  -41.4765 H         1 UNK         0.0600 
    159 H159        1.4809  -16.4997  -43.9411 H         1 UNK         0.3000 
    160 H160        2.0652  -18.0440  -47.1443 H         1 UNK         0.0600 
    161 H161        2.0905  -15.1726  -46.0997 H         1 UNK         0.0600 
    162 H162        1.2475  -15.7302  -47.5362 H         1 UNK         0.0600 
    163 H163        3.0056  -15.7655  -47.4848 H         1 UNK         0.0600 
    164 H164        3.7269  -16.7777  -45.1415 H         1 UNK         0.3000 
    165 H165        4.7395  -19.7901  -43.5319 H         1 UNK         0.0600 
    166 H166        6.9749  -18.9407  -44.1870 H         1 UNK         0.0600 
    167 H167        6.1696  -19.6506  -45.5770 H         1 UNK         0.0600 
    168 H168        6.2541  -17.9004  -45.4156 H         1 UNK         0.0600 
    169 H169        5.5034  -17.0509  -43.2049 H         1 UNK         0.3000 
    170 H170        2.9541  -16.1294  -40.9030 H         1 UNK         0.0600 
    171 H171        4.5671  -17.4426  -39.5164 H         1 UNK         0.0600 
    172 H172        5.9147  -16.7553  -40.4152 H         1 UNK         0.0600 
    173 H173        4.8903  -15.7194  -39.4203 H         1 UNK         0.0600 
    174 H174        5.2485  -14.7129  -41.7016 H         1 UNK         0.3000 
    175 H175        5.1626  -12.9723  -43.0239 H         1 UNK         0.0600 
    176 H176        3.9844  -13.8092  -45.7281 H         1 UNK         0.0600 
    177 H177        5.2606  -12.6265  -45.4684 H         1 UNK         0.0600 
    178 H178        5.5465  -14.3205  -45.0984 H         1 UNK         0.0600 
    179 H179        2.5894  -12.3313  -44.3672 H         1 UNK         0.3000 
    180 H180        1.4079  -10.4343  -41.6289 H         1 UNK         0.0600 
    181 H181        2.3306   -9.3191  -44.3335 H         1 UNK         0.0600 
    182 H182        2.7842   -8.6791  -42.7573 H         1 UNK         0.0600 
    183 H183        1.1091   -8.6032  -43.2836 H         1 UNK         0.0600 
    184 H184        0.4681  -10.9133  -44.3113 H         1 UNK         0.3000 
    185 H185       -0.2245  -14.1712  -44.1915 H         1 UNK         0.0600 
    186 H186       -2.1215  -13.9973  -42.5763 H         1 UNK         0.0600 
    187 H187       -2.6973  -12.5480  -43.3914 H         1 UNK         0.0600 
    188 H188       -2.7029  -14.1023  -44.2278 H         1 UNK         0.0600 
    189 H189       -1.7223  -12.2331  -45.6359 H         1 UNK         0.3000 
    190 H190       -3.0938  -20.3107  -44.0716 H         1 UNK         0.3000 
    191 H191       -5.6936  -21.0678  -43.2352 H         1 UNK         0.0600 
    192 H192       -2.9511  -21.6986  -42.0224 H         1 UNK         0.0600 
    193 H193       -3.9409  -20.2813  -41.6764 H         1 UNK         0.0600 
    194 H194       -4.4924  -21.8769  -41.1917 H         1 UNK         0.0600 
    195 H195       -3.1437  -22.9527  -44.7602 H         1 UNK         0.3000 
    196 H196       -4.4760  -25.5450  -44.3201 H         1 UNK         0.0600 
    197 H197       -2.4706  -26.4437  -45.4481 H         1 UNK         0.0600 
    198 H198       -1.9893  -25.3576  -44.1565 H         1 UNK         0.0600 
    199 H199       -1.9127  -24.8194  -45.8310 H         1 UNK         0.0600 
    200 H200       -5.8202  -23.3678  -45.8608 H         1 UNK         0.3000 
    201 H201       -7.1338  -23.0534  -47.6095 H         1 UNK         0.0600 
    202 H202       -8.1323  -25.0026  -48.7524 H         1 UNK         0.0600 
    203 H203       -8.0143  -25.3216  -47.0295 H         1 UNK         0.0600 
    204 H204       -6.8687  -26.0623  -48.1461 H         1 UNK         0.0600 
    205 H205       -4.6460  -22.2454  -47.9975 H         1 UNK         0.3000 
    206 H206       -3.1132  -21.5176  -49.4415 H         1 UNK         0.0600 
    207 H207       -5.0827  -20.7754  -50.8047 H         1 UNK         0.0600 
    208 H208       -3.6788  -21.1609  -51.7820 H         1 UNK         0.0600 
    209 H209       -5.0242  -22.2909  -51.7049 H         1 UNK         0.0600 
    210 H210       -2.5080  -23.7544  -48.3372 H         1 UNK         0.3000 
    211 H211       -1.3483  -25.6509  -48.2787 H         1 UNK         0.0600 
    212 H212        0.3880  -24.1772  -49.3246 H         1 UNK         0.0600 
    213 H213        0.5803  -25.8524  -49.8179 H         1 UNK         0.0600 
    214 H214       -0.1332  -24.6924  -50.9280 H         1 UNK         0.0600 
    215 H215       -3.7927  -26.2860  -48.8516 H         1 UNK         0.3000 
    216 H216       -5.3015  -27.6020  -49.7989 H         1 UNK         0.0600 
    217 H217       -4.6096  -29.8849  -50.4540 H         1 UNK         0.0600 
    218 H218       -2.9311  -29.3795  -50.5925 H         1 UNK         0.0600 
    219 H219       -3.7288  -29.3824  -49.0202 H         1 UNK         0.0600 
    220 H220       -4.8321  -25.4537  -51.2576 H         1 UNK         0.3000 
    221 H221       -5.1236  -24.3741  -53.0948 H         1 UNK         0.0600 
    222 H222       -6.1044  -26.9574  -54.4106 H         1 UNK         0.0600 
    223 H223       -7.0899  -25.8840  -53.4163 H         1 UNK         0.0600 
    224 H224       -6.4402  -25.3177  -54.9449 H         1 UNK         0.0600 
    225 H225       -2.5081  -26.2375  -52.8306 H         1 UNK         0.3000 
    226 H226       -1.5243  -26.2758  -55.5590 H         1 UNK         0.0600 
    227 H227       -0.7724  -27.8845  -53.7601 H         1 UNK         0.0600 
    228 H228        0.5572  -27.0510  -54.5527 H         1 UNK         0.0600 
    229 H229        0.0478  -26.5481  -52.9497 H         1 UNK         0.0600 
    230 H230       -1.6027  -23.8759  -53.0000 H         1 UNK         0.3000 
    231 H231        0.2593  -22.0691  -54.4950 H         1 UNK         0.0600 
    232 H232        0.7639  -21.0621  -52.3097 H         1 UNK         0.0600 
    233 H233        1.0920  -22.7841  -52.2298 H         1 UNK         0.0600 
    234 H234       -0.3715  -22.1306  -51.4971 H         1 UNK         0.0600 
    235 H235       -2.6578  -22.5718  -54.9480 H         1 UNK         0.3000 
    236 H236       -4.1483  -20.3118  -53.9412 H         1 UNK         0.0600 
    237 H237       -5.2312  -22.4703  -54.4067 H         1 UNK         0.0600 
    238 H238       -5.9387  -21.2233  -55.4115 H         1 UNK         0.0600 
    239 H239       -4.7956  -22.3651  -56.1122 H         1 UNK         0.0600 
    240 H240       -2.0368  -19.1128  -54.8709 H         1 UNK         0.3000 
    241 H241       -1.3420  -17.3240  -55.9510 H         1 UNK         0.0600 
    242 H242       -1.0436  -19.3657  -59.2212 H         1 UNK         0.3800 
    243 H243       -1.4885  -19.9796  -57.6497 H         1 UNK         0.3800 
    244 H244       -2.9252  -15.6821  -56.8435 H         1 UNK         0.0800 
    245 H245       -4.1644  -16.8880  -57.0271 H         1 UNK         0.0800 
    246 H246       -1.6850  -15.6563  -54.1327 H         1 UNK         0.0800 
    247 H247       -2.1376  -17.2533  -53.5771 H         1 UNK         0.0800 
@<TRIPOS>BOND
     1    1    2 1    
     2    1  127 1    
     3    1  128 1    
     4    1  129 1    
     5    2    3 2    
     6    2    4 am   BACKBONE|DICT|INTERRES
     7    4    5 1    
     8    4  130 1    
     9    5    6 1    
    10    5   65 1    
    11    5  131 1    
    12    6    7 1    
    13    6  132 1    
    14    6  133 1    
    15    7    8 1    
    16    8    9 1    
    17    8  134 1    
    18    8  135 1    
    19    9   10 ar   
    20    9   14 ar   
    21   10   11 ar   
    22   10  136 1    
    23   11   12 ar   
    24   11  126 1    
    25   12   13 ar   
    26   12  137 1    
    27   13   14 ar   
    28   13   15 1    
    29   14  138 1    
    30   15   16 1    
    31   15  139 1    
    32   15  140 1    
    33   16   17 1    
    34   17   18 1    
    35   17  141 1    
    36   17  142 1    
    37   18   19 1    
    38   18   67 1    
    39   18  143 1    
    40   19   20 am   BACKBONE|DICT|INTERRES
    41   19  144 1    
    42   20   21 2    
    43   20   22 1    
    44   22   23 1    
    45   22   24 1    
    46   22  145 1    
    47   23  146 1    
    48   23  147 1    
    49   23  148 1    
    50   24   25 am   BACKBONE|DICT|INTERRES
    51   24  149 1    
    52   25   26 2    
    53   25   27 1    
    54   27   28 1    
    55   27   29 1    
    56   27  150 1    
    57   28  151 1    
    58   28  152 1    
    59   28  153 1    
    60   29   30 am   BACKBONE|DICT|INTERRES
    61   29  154 1    
    62   30   31 2    
    63   30   32 1    
    64   32   33 1    
    65   32   34 1    
    66   32  155 1    
    67   33  156 1    
    68   33  157 1    
    69   33  158 1    
    70   34   35 am   BACKBONE|DICT|INTERRES
    71   34  159 1    
    72   35   36 2    
    73   35   37 1    
    74   37   38 1    
    75   37   39 1    
    76   37  160 1    
    77   38  161 1    
    78   38  162 1    
    79   38  163 1    
    80   39   40 am   BACKBONE|DICT|INTERRES
    81   39  164 1    
    82   40   41 2    
    83   40   42 1    
    84   42   43 1    
    85   42   44 1    
    86   42  165 1    
    87   43  166 1    
    88   43  167 1    
    89   43  168 1    
    90   44   45 am   BACKBONE|DICT|INTERRES
    91   44  169 1    
    92   45   46 2    
    93   45   47 1    
    94   47   48 1    
    95   47   49 1    
    96   47  170 1    
    97   48  171 1    
    98   48  172 1    
    99   48  173 1    
   100   49   50 am   BACKBONE|DICT|INTERRES
   101   49  174 1    
   102   50   51 2    
   103   50   52 1    
   104   52   53 1    
   105   52   54 1    
   106   52  175 1    
   107   53  176 1    
   108   53  177 1    
   109   53  178 1    
   110   54   55 am   BACKBONE|DICT|INTERRES
   111   54  179 1    
   112   55   56 2    
   113   55   57 1    
   114   57   58 1    
   115   57   59 1    
   116   57  180 1    
   117   58  181 1    
   118   58  182 1    
   119   58  183 1    
   120   59   60 am   BACKBONE|DICT|INTERRES
   121   59  184 1    
   122   60   61 2    
   123   60   62 1    
   124   62   63 1    
   125   62   64 1    
   126   62  185 1    
   127   63  186 1    
   128   63  187 1    
   129   63  188 1    
   130   64   65 am   BACKBONE|DICT|INTERRES
   131   64  189 1    
   132   65   66 2    
   133   67   68 2    
   134   67   69 am   BACKBONE|DICT|INTERRES
   135   69   70 1    
   136   69  190 1    
   137   70   71 1    
   138   70   72 1    
   139   70  191 1    
   140   71  192 1    
   141   71  193 1    
   142   71  194 1    
   143   72   73 2    
   144   72   74 am   BACKBONE|DICT|INTERRES
   145   74   75 1    
   146   74  195 1    
   147   75   76 1    
   148   75   77 1    
   149   75  196 1    
   150   76  197 1    
   151   76  198 1    
   152   76  199 1    
   153   77   78 2    
   154   77   79 am   BACKBONE|DICT|INTERRES
   155   79   80 1    
   156   79  200 1    
   157   80   81 1    
   158   80   82 1    
   159   80  201 1    
   160   81  202 1    
   161   81  203 1    
   162   81  204 1    
   163   82   83 2    
   164   82   84 am   BACKBONE|DICT|INTERRES
   165   84   85 1    
   166   84  205 1    
   167   85   86 1    
   168   85   87 1    
   169   85  206 1    
   170   86  207 1    
   171   86  208 1    
   172   86  209 1    
   173   87   88 2    
   174   87   89 am   BACKBONE|DICT|INTERRES
   175   89   90 1    
   176   89  210 1    
   177   90   91 1    
   178   90   92 1    
   179   90  211 1    
   180   91  212 1    
   181   91  213 1    
   182   91  214 1    
   183   92   93 2    
   184   92   94 am   BACKBONE|DICT|INTERRES
   185   94   95 1    
   186   94  215 1    
   187   95   96 1    
   188   95   97 1    
   189   95  216 1    
   190   96  217 1    
   191   96  218 1    
   192   96  219 1    
   193   97   98 2    
   194   97   99 am   BACKBONE|DICT|INTERRES
   195   99  100 1    
   196   99  220 1    
   197  100  101 1    
   198  100  102 1    
   199  100  221 1    
   200  101  222 1    
   201  101  223 1    
   202  101  224 1    
   203  102  103 2    
   204  102  104 am   BACKBONE|DICT|INTERRES
   205  104  105 1    
   206  104  225 1    
   207  105  106 1    
   208  105  107 1    
   209  105  226 1    
   210  106  227 1    
   211  106  228 1    
   212  106  229 1    
   213  107  108 2    
   214  107  109 am   BACKBONE|DICT|INTERRES
   215  109  110 1    
   216  109  230 1    
   217  110  111 1    
   218  110  112 1    
   219  110  231 1    
   220  111  232 1    
   221  111  233 1    
   222  111  234 1    
   223  112  113 2    
   224  112  114 am   BACKBONE|DICT|INTERRES
   225  114  115 1    
   226  114  235 1    
   227  115  116 1    
   228  115  117 1    
   229  115  236 1    
   230  116  237 1    
   231  116  238 1    
   232  116  239 1    
   233  117  118 2    
   234  117  119 am   BACKBONE|DICT|INTERRES
   235  119  120 1    
   236  119  240 1    
   237  120  121 1    
   238  120  124 1    
   239  120  241 1    
   240  121  122 am   BACKBONE|DICT|INTERRES
   241  121  123 2    
   242  122  242 1    
   243  122  243 1    
   244  124  125 1    
   245  124  244 1    
   246  124  245 1    
   247  125  126 1    
   248  126  246 1    
   249  126  247 1    
@<TRIPOS>SUBSTRUCTURE
     1 UNK         1 GROUP             0       ****    0 ROOT    
