@<TRIPOS>MOLECULE
3R540
247   249    1
SMALL
USER_CHARGES


@<TRIPOS>ATOM
      1 CA          6.0598  -14.2628  -45.4546 C.3       0 UNK        -0.1800 
      2 C           4.7309  -13.5366  -45.5954 C.2       0 UNK         0.5000 
      3 O           4.1944  -13.0480  -44.6023 O.2       0 UNK        -0.5000 
      4 N           4.2074  -13.4474  -46.8254 N.am      1 UNK        -0.5000 
      5 CA          2.9016  -12.8604  -47.1664 C.3       1 UNK         0.1400 
      6 C6          2.5698  -12.9966  -48.6748 C.3       23 UNK        -0.0398 
      7 S7          2.8702  -14.6571  -49.3721 S.3       23 UNK        -0.2404 
      8 C8          1.3085  -15.5060  -48.9944 C.3       23 UNK        -0.0205 
      9 C9          1.1268  -16.7391  -49.8674 C.ar      23 UNK        -0.0193 
     10 C10         0.1267  -16.7665  -50.8449 C.ar      23 UNK        -0.1150 
     11 C11        -0.0308  -17.8849  -51.6685 C.ar      23 UNK        -0.0193 
     12 C12         0.8233  -18.9786  -51.5107 C.ar      23 UNK        -0.1150 
     13 C13         1.8100  -18.9770  -50.5220 C.ar      23 UNK        -0.0193 
     14 C14         1.9540  -17.8550  -49.6990 C.ar      23 UNK        -0.1150 
     15 C15         2.7139  -20.1914  -50.3451 C.3       23 UNK        -0.0205 
     16 S16         1.7738  -21.7114  -49.9768 S.3       23 UNK        -0.2404 
     17 C17         0.8638  -21.1834  -48.4901 C.3       23 UNK        -0.0398 
     18 CA          0.4565  -22.3508  -47.5642 C.3       11 UNK         0.1400 
     19 N           0.1798  -21.8799  -46.2058 N.am      11 UNK        -0.5000 
     20 C          -0.0433  -22.6707  -45.1475 C.2       10 UNK         0.5000 
     21 O           0.0106  -23.8999  -45.1874 O.2       10 UNK        -0.5000 
     22 CA         -0.4419  -21.9686  -43.8364 C.3       10 UNK         0.1400 
     23 CB          0.7958  -21.4166  -43.1139 C.3       10 UNK        -0.1800 
     24 N          -1.4057  -20.8879  -44.0510 N.am      10 UNK        -0.5000 
     25 C          -2.6457  -21.0579  -44.5317 C.2       9 UNK         0.5000 
     26 O          -3.1316  -22.1570  -44.7938 O.2       9 UNK        -0.5000 
     27 CA         -3.4586  -19.7843  -44.8242 C.3       9 UNK         0.1400 
     28 CB         -4.0746  -19.2109  -43.5393 C.3       9 UNK        -0.1800 
     29 N          -2.6567  -18.7595  -45.4933 N.am      9 UNK        -0.5000 
     30 C          -2.1387  -18.8890  -46.7234 C.2       8 UNK         0.5000 
     31 O          -2.3166  -19.8700  -47.4431 O.2       8 UNK        -0.5000 
     32 CA         -1.2318  -17.7505  -47.2133 C.3       8 UNK         0.1400 
     33 CB         -2.0728  -16.6155  -47.8175 C.3       8 UNK        -0.1800 
     34 N          -0.3832  -17.2347  -46.1377 N.am      8 UNK        -0.5000 
     35 C           0.6450  -17.9162  -45.6078 C.2       7 UNK         0.5000 
     36 O           0.9905  -19.0320  -45.9918 O.2       7 UNK        -0.5000 
     37 CA          1.3785  -17.2741  -44.4155 C.3       7 UNK         0.1400 
     38 CB          2.4638  -16.3078  -44.9094 C.3       7 UNK        -0.1800 
     39 N           0.4717  -16.5695  -43.5099 N.am      7 UNK        -0.5000 
     40 C          -0.5170  -17.1604  -42.8207 C.2       6 UNK         0.5000 
     41 O          -0.7026  -18.3768  -42.8124 O.2       6 UNK        -0.5000 
     42 CA         -1.4980  -16.2494  -42.0557 C.3       6 UNK         0.1400 
     43 CB         -1.1190  -16.1860  -40.5690 C.3       6 UNK        -0.1800 
     44 N          -1.5788  -14.8865  -42.5841 N.am      6 UNK        -0.5000 
     45 C          -1.9213  -14.5421  -43.8349 C.2       5 UNK         0.5000 
     46 O          -2.2783  -15.3534  -44.6891 O.2       5 UNK        -0.5000 
     47 CA         -1.7841  -13.0513  -44.2070 C.3       5 UNK         0.1400 
     48 CB         -3.1581  -12.3655  -44.1935 C.3       5 UNK        -0.1800 
     49 N          -0.8705  -12.3186  -43.3221 N.am      5 UNK        -0.5000 
     50 C           0.4508  -12.5297  -43.2477 C.2       4 UNK         0.5000 
     51 O           1.0560  -13.3401  -43.9518 O.2       4 UNK        -0.5000 
     52 CA          1.1907  -11.7836  -42.1327 C.3       4 UNK         0.1400 
     53 CB          1.2797  -12.6663  -40.8728 C.3       4 UNK        -0.1800 
     54 N           2.5267  -11.4090  -42.5820 N.am      4 UNK        -0.5000 
     55 C           3.2673  -10.4420  -42.0244 C.2       3 UNK         0.5000 
     56 O           2.9095   -9.7838  -41.0464 O.2       3 UNK        -0.5000 
     57 CA          4.6215  -10.1315  -42.6806 C.3       3 UNK         0.1400 
     58 CB          5.6975  -11.1352  -42.2356 C.3       3 UNK        -0.1800 
     59 N           4.5149  -10.1247  -44.1384 N.am      3 UNK        -0.5000 
     60 C           4.0783   -9.0782  -44.8545 C.2       2 UNK         0.5000 
     61 O           3.7607   -7.9976  -44.3557 O.2       2 UNK        -0.5000 
     62 CA          3.9906   -9.2481  -46.3835 C.3       2 UNK         0.1400 
     63 CB          5.2171   -8.6195  -47.0630 C.3       2 UNK        -0.1800 
     64 N           3.8883  -10.6460  -46.7988 N.am      2 UNK        -0.5000 
     65 C           2.7687  -11.3806  -46.7437 C.2       1 UNK         0.5000 
     66 O           1.6779  -10.9404  -46.3800 O.2       1 UNK        -0.5000 
     67 C          -0.7254  -23.1607  -48.1380 C.2       11 UNK         0.5000 
     68 O          -0.5147  -24.2618  -48.6445 O.2       11 UNK        -0.5000 
     69 N          -1.9514  -22.6362  -47.9952 N.am      12 UNK        -0.5000 
     70 CA         -3.1900  -23.3053  -48.3923 C.3       12 UNK         0.1400 
     71 CB         -4.3728  -22.3383  -48.2536 C.3       12 UNK        -0.1800 
     72 C          -3.4521  -24.6043  -47.6110 C.2       12 UNK         0.5000 
     73 O          -3.8944  -25.5833  -48.2093 O.2       12 UNK        -0.5000 
     74 N          -3.1494  -24.6136  -46.3060 N.am      13 UNK        -0.5000 
     75 CA         -3.2302  -25.8008  -45.4540 C.3       13 UNK         0.1400 
     76 CB         -3.0234  -25.4071  -43.9838 C.3       13 UNK        -0.1800 
     77 C          -2.2363  -26.8971  -45.8799 C.2       13 UNK         0.5000 
     78 O          -2.6214  -28.0641  -45.9555 O.2       13 UNK        -0.5000 
     79 N          -0.9948  -26.4994  -46.1937 N.am      14 UNK        -0.5000 
     80 CA          0.0571  -27.3806  -46.7056 C.3       14 UNK         0.1400 
     81 CB          1.3987  -26.6320  -46.7005 C.3       14 UNK        -0.1800 
     82 C          -0.2551  -27.9377  -48.1085 C.2       14 UNK         0.5000 
     83 O           0.0084  -29.1122  -48.3686 O.2       14 UNK        -0.5000 
     84 N          -0.8313  -27.0951  -48.9762 N.am      15 UNK        -0.5000 
     85 CA         -1.2664  -27.4457  -50.3305 C.3       15 UNK         0.1400 
     86 CB         -1.4867  -26.1512  -51.1286 C.3       15 UNK        -0.1800 
     87 C          -2.5385  -28.3176  -50.3731 C.2       15 UNK         0.5000 
     88 O          -2.8113  -28.9184  -51.4131 O.2       15 UNK        -0.5000 
     89 N          -3.2832  -28.3648  -49.2579 N.am      16 UNK        -0.5000 
     90 CA         -4.5982  -28.9875  -49.0825 C.3       16 UNK         0.1400 
     91 CB         -4.5379  -30.5147  -49.2973 C.3       16 UNK        -0.1800 
     92 C          -5.6669  -28.2793  -49.9398 C.2       16 UNK         0.5000 
     93 O          -6.3306  -28.9099  -50.7654 O.2       16 UNK        -0.5000 
     94 N          -5.7852  -26.9637  -49.7144 N.am      17 UNK        -0.5000 
     95 CA         -6.5932  -25.9841  -50.4428 C.3       17 UNK         0.1400 
     96 CB         -8.0931  -26.3559  -50.4367 C.3       17 UNK        -0.1800 
     97 C          -6.0173  -25.7032  -51.8459 C.2       17 UNK         0.5000 
     98 O          -4.8201  -25.8999  -52.0645 O.2       17 UNK        -0.5000 
     99 N          -6.8583  -25.1801  -52.7504 N.am      18 UNK        -0.5000 
    100 CA        -6.6003  -24.7986  -54.1495 C.3       18 UNK         0.1400 
    101 CB        -6.1459  -26.0109  -54.9847 C.3       18 UNK        -0.1800 
    102 C         -5.6407  -23.6043  -54.3419 C.2       18 UNK         0.5000 
    103 O         -5.8909  -22.7654  -55.2075 O.2       18 UNK        -0.5000 
    104 N         -4.5769  -23.5332  -53.5343 N.am      19 UNK        -0.5000 
    105 CA        -3.5667  -22.4739  -53.5418 C.3       19 UNK         0.1400 
    106 CB        -2.3061  -22.9911  -52.8296 C.3       19 UNK        -0.1800 
    107 C         -4.0419  -21.1597  -52.8921 C.2       19 UNK         0.5000 
    108 O         -3.3928  -20.1331  -53.0833 O.2       19 UNK        -0.5000 
    109 N         -5.1364  -21.2096  -52.1197 N.am      20 UNK        -0.5000 
    110 CA        -5.7144  -20.0767  -51.3957 C.3       20 UNK         0.1400 
    111 CB        -6.9290  -20.5689  -50.5925 C.3       20 UNK        -0.1800 
    112 C         -6.1253  -18.9119  -52.3189 C.2       20 UNK         0.5000 
    113 O         -6.7164  -19.1505  -53.3745 O.2       20 UNK        -0.5000 
    114 N         -5.8349  -17.6809  -51.8714 N.am      21 UNK        -0.5000 
    115 CA        -6.1656  -16.4029  -52.5153 C.3       21 UNK         0.1400 
    116 CB        -7.6894  -16.1583  -52.4760 C.3       21 UNK        -0.1800 
    117 C         -5.5633  -16.2511  -53.9300 C.2       21 UNK         0.5000 
    118 O         -6.2581  -15.8328  -54.8590 O.2       21 UNK        -0.5000 
    119 N         -4.2787  -16.6050  -54.0670 N.am      22 UNK        -0.5000 
    120 CA        -3.4970  -16.4599  -55.3047 C.3       22 UNK         0.1400 
    121 C         -3.2838  -14.9832  -55.7560 C.2       22 UNK         0.5000 
    122 N         -3.0232  -14.7547  -57.0366 N.am      22 UNK        -0.7600 
    123 O         -3.3273  -14.0465  -54.9605 O.2       22 UNK        -0.5000 
    124 C124       -2.1660  -17.2553  -55.2405 C.3       23 UNK        -0.0398 
    125 S125       -0.9590  -16.6689  -53.9945 S.3       23 UNK        -0.2404 
    126 C126       -1.1408  -17.9389  -52.7062 C.3       23 UNK        -0.0205 
    127 H127        6.8056  -13.5980  -45.0189 H         1 UNK         0.0600 
    128 H128        6.4344  -14.6136  -46.4164 H         1 UNK         0.0600 
    129 H129        5.9446  -15.1252  -44.7981 H         1 UNK         0.0600 
    130 H130        4.6941  -13.8770  -47.5997 H         1 UNK         0.3000 
    131 H131        2.1485  -13.4168  -46.6058 H         1 UNK         0.0600 
    132 H132        1.5338  -12.7102  -48.8645 H         1 UNK         0.0800 
    133 H133        3.1789  -12.3029  -49.2579 H         1 UNK         0.0800 
    134 H134        1.2996  -15.7926  -47.9427 H         1 UNK         0.0800 
    135 H135        0.4769  -14.8155  -49.1394 H         1 UNK         0.0800 
    136 H136       -0.5290  -15.9166  -50.9720 H         1 UNK         0.1150 
    137 H137        0.7078  -19.8485  -52.1423 H         1 UNK         0.1150 
    138 H138        2.7175  -17.8403  -48.9337 H         1 UNK         0.1150 
    139 H139        3.2884  -20.3427  -51.2599 H         1 UNK         0.0800 
    140 H140        3.4409  -20.0218  -49.5493 H         1 UNK         0.0800 
    141 H141        0.0015  -20.5829  -48.7850 H         1 UNK         0.0800 
    142 H142        1.5281  -20.5119  -47.9475 H         1 UNK         0.0800 
    143 H143        1.3078  -23.0304  -47.4849 H         1 UNK         0.0600 
    144 H144        0.1675  -20.8741  -46.0728 H         1 UNK         0.3000 
    145 H145       -0.9115  -22.7122  -43.1893 H         1 UNK         0.0600 
    146 H146        0.5274  -20.9803  -42.1515 H         1 UNK         0.0600 
    147 H147        1.5218  -22.2077  -42.9225 H         1 UNK         0.0600 
    148 H148        1.2954  -20.6457  -43.7013 H         1 UNK         0.0600 
    149 H149       -1.1013  -19.9499  -43.8035 H         1 UNK         0.3000 
    150 H150       -4.2750  -20.0578  -45.4960 H         1 UNK         0.0600 
    151 H151       -4.7402  -19.9379  -43.0724 H         1 UNK         0.0600 
    152 H152       -4.6636  -18.3174  -43.7473 H         1 UNK         0.0600 
    153 H153       -3.3140  -18.9490  -42.8045 H         1 UNK         0.0600 
    154 H154       -2.4543  -17.9179  -44.9724 H         1 UNK         0.3000 
    155 H155       -0.5855  -18.1501  -47.9973 H         1 UNK         0.0600 
    156 H156       -2.8220  -16.2459  -47.1171 H         1 UNK         0.0600 
    157 H157       -2.6012  -16.9604  -48.7071 H         1 UNK         0.0600 
    158 H158       -1.4534  -15.7714  -48.1153 H         1 UNK         0.0600 
    159 H159       -0.6714  -16.3621  -45.7126 H         1 UNK         0.3000 
    160 H160        1.8627  -18.0739  -43.8513 H         1 UNK         0.0600 
    161 H161        2.0341  -15.4773  -45.4686 H         1 UNK         0.0600 
    162 H162        3.1727  -16.8138  -45.5661 H         1 UNK         0.0600 
    163 H163        3.0303  -15.8895  -44.0771 H         1 UNK         0.0600 
    164 H164        0.5604  -15.5617  -43.4768 H         1 UNK         0.3000 
    165 H165       -2.4913  -16.6941  -42.1403 H         1 UNK         0.0600 
    166 H166       -1.8509  -15.6143  -39.9981 H         1 UNK         0.0600 
    167 H167       -1.0785  -17.1854  -40.1332 H         1 UNK         0.0600 
    168 H168       -0.1417  -15.7241  -40.4224 H         1 UNK         0.0600 
    169 H169       -1.3078  -14.1474  -41.9539 H         1 UNK         0.3000 
    170 H170       -1.3848  -13.0034  -45.2224 H         1 UNK         0.0600 
    171 H171       -3.8538  -12.8721  -44.8640 H         1 UNK         0.0600 
    172 H172       -3.6010  -12.3694  -43.1968 H         1 UNK         0.0600 
    173 H173       -3.0853  -11.3298  -44.5260 H         1 UNK         0.0600 
    174 H174       -1.2954  -11.6429  -42.7030 H         1 UNK         0.3000 
    175 H175        0.6315  -10.8752  -41.8977 H         1 UNK         0.0600 
    176 H176        1.8491  -13.5772  -41.0630 H         1 UNK         0.0600 
    177 H177        1.7594  -12.1394  -40.0480 H         1 UNK         0.0600 
    178 H178        0.2883  -12.9632  -40.5291 H         1 UNK         0.0600 
    179 H179        2.8829  -11.9303  -43.3793 H         1 UNK         0.3000 
    180 H180        4.9387   -9.1417  -42.3445 H         1 UNK         0.0600 
    181 H181        5.4309  -12.1616  -42.4867 H         1 UNK         0.0600 
    182 H182        5.8407  -11.0933  -41.1552 H         1 UNK         0.0600 
    183 H183        6.6588  -10.9149  -42.6997 H         1 UNK         0.0600 
    184 H184        4.6742  -11.0098  -44.6034 H         1 UNK         0.3000 
    185 H185        3.1014   -8.7138  -46.7250 H         1 UNK         0.0600 
    186 H186        5.3116   -7.5648  -46.8007 H         1 UNK         0.0600 
    187 H187        6.1416   -9.1158  -46.7648 H         1 UNK         0.0600 
    188 H188        5.1394   -8.6768  -48.1489 H         1 UNK         0.0600 
    189 H189        4.7395  -11.0921  -47.1089 H         1 UNK         0.3000 
    190 H190       -2.0487  -21.7022  -47.6032 H         1 UNK         0.3000 
    191 H191       -3.0981  -23.5721  -49.4463 H         1 UNK         0.0600 
    192 H192       -4.2414  -21.4641  -48.8913 H         1 UNK         0.0600 
    193 H193       -5.3060  -22.8214  -48.5448 H         1 UNK         0.0600 
    194 H194       -4.4894  -21.9890  -47.2275 H         1 UNK         0.0600 
    195 H195       -2.8621  -23.7470  -45.8601 H         1 UNK         0.3000 
    196 H196       -4.2374  -26.2114  -45.5522 H         1 UNK         0.0600 
    197 H197       -3.1067  -26.2773  -43.3317 H         1 UNK         0.0600 
    198 H198       -3.7737  -24.6854  -43.6606 H         1 UNK         0.0600 
    199 H199       -2.0415  -24.9650  -43.8168 H         1 UNK         0.0600 
    200 H200       -0.7477  -25.5224  -46.0657 H         1 UNK         0.3000 
    201 H201        0.1419  -28.2297  -46.0242 H         1 UNK         0.0600 
    202 H202        1.6607  -26.3009  -45.6954 H         1 UNK         0.0600 
    203 H203        1.3729  -25.7525  -47.3444 H         1 UNK         0.0600 
    204 H204        2.2064  -27.2745  -47.0532 H         1 UNK         0.0600 
    205 H205       -0.9361  -26.1195  -48.7084 H         1 UNK         0.3000 
    206 H206       -0.4656  -28.0106  -50.8118 H         1 UNK         0.0600 
    207 H207       -0.5792  -25.5488  -51.1695 H         1 UNK         0.0600 
    208 H208       -1.7816  -26.3674  -52.1562 H         1 UNK         0.0600 
    209 H209       -2.2754  -25.5424  -50.6859 H         1 UNK         0.0600 
    210 H210       -2.9690  -27.8008  -48.4791 H         1 UNK         0.3000 
    211 H211       -4.8755  -28.8184  -48.0408 H         1 UNK         0.0600 
    212 H212       -4.3192  -30.7775  -50.3324 H         1 UNK         0.0600 
    213 H213       -5.4910  -30.9782  -49.0406 H         1 UNK         0.0600 
    214 H214       -3.7744  -30.9703  -48.6668 H         1 UNK         0.0600 
    215 H215       -5.1120  -26.5451  -49.0731 H         1 UNK         0.3000 
    216 H216       -6.4862  -25.0524  -49.8857 H         1 UNK         0.0600 
    217 H217       -8.7121  -25.5127  -50.7441 H         1 UNK         0.0600 
    218 H218       -8.4222  -26.6413  -49.4374 H         1 UNK         0.0600 
    219 H219       -8.3113  -27.1865  -51.1088 H         1 UNK         0.0600 
    220 H220       -7.8108  -25.0276  -52.4496 H         1 UNK         0.3000 
    221 H221       -7.5663  -24.4800  -54.5445 H         1 UNK         0.0600 
    222 H222       -5.1710  -26.3831  -54.6687 H         1 UNK         0.0600 
    223 H223       -6.8590  -26.8317  -54.9081 H         1 UNK         0.0600 
    224 H224       -6.0656  -25.7474  -56.0400 H         1 UNK         0.0600 
    225 H225       -4.4394  -24.3045  -52.8847 H         1 UNK         0.3000 
    226 H226       -3.3066  -22.2503  -54.5785 H         1 UNK         0.0600 
    227 H227       -1.9183  -23.8873  -53.3141 H         1 UNK         0.0600 
    228 H228       -1.5110  -22.2443  -52.8452 H         1 UNK         0.0600 
    229 H229       -2.5056  -23.2338  -51.7857 H         1 UNK         0.0600 
    230 H230       -5.6239  -22.0890  -52.0514 H         1 UNK         0.3000 
    231 H231       -4.9570  -19.7200  -50.6945 H         1 UNK         0.0600 
    232 H232       -7.3624  -19.7588  -50.0045 H         1 UNK         0.0600 
    233 H233       -6.6555  -21.3614  -49.8976 H         1 UNK         0.0600 
    234 H234       -7.7124  -20.9540  -51.2466 H         1 UNK         0.0600 
    235 H235       -5.3464  -17.6004  -50.9908 H         1 UNK         0.3000 
    236 H236       -5.6983  -15.6259  -51.9086 H         1 UNK         0.0600 
    237 H237       -8.0749  -16.2350  -51.4594 H         1 UNK         0.0600 
    238 H238       -7.9348  -15.1600  -52.8400 H         1 UNK         0.0600 
    239 H239       -8.2314  -16.8741  -53.0947 H         1 UNK         0.0600 
    240 H240       -3.7755  -16.9406  -53.2606 H         1 UNK         0.3000 
    241 H241       -4.0989  -16.9265  -56.0873 H         1 UNK         0.0600 
    242 H242       -2.8733  -13.8055  -57.3425 H         1 UNK         0.3800 
    243 H243       -2.9803  -15.5019  -57.7126 H         1 UNK         0.3800 
    244 H244       -2.3858  -18.3096  -55.0668 H         1 UNK         0.0800 
    245 H245       -1.6721  -17.2286  -56.2130 H         1 UNK         0.0800 
    246 H246       -1.1439  -18.9190  -53.1839 H         1 UNK         0.0800 
    247 H247       -2.1050  -17.8276  -52.2095 H         1 UNK         0.0800 
@<TRIPOS>BOND
     1    1    2 1    
     2    1  127 1    
     3    1  128 1    
     4    1  129 1    
     5    2    3 2    
     6    2    4 am   BACKBONE|DICT|INTERRES
     7    4    5 1    
     8    4  130 1    
     9    5    6 1    
    10    5   65 1    
    11    5  131 1    
    12    6    7 1    
    13    6  132 1    
    14    6  133 1    
    15    7    8 1    
    16    8    9 1    
    17    8  134 1    
    18    8  135 1    
    19    9   10 ar   
    20    9   14 ar   
    21   10   11 ar   
    22   10  136 1    
    23   11   12 ar   
    24   11  126 1    
    25   12   13 ar   
    26   12  137 1    
    27   13   14 ar   
    28   13   15 1    
    29   14  138 1    
    30   15   16 1    
    31   15  139 1    
    32   15  140 1    
    33   16   17 1    
    34   17   18 1    
    35   17  141 1    
    36   17  142 1    
    37   18   19 1    
    38   18   67 1    
    39   18  143 1    
    40   19   20 am   BACKBONE|DICT|INTERRES
    41   19  144 1    
    42   20   21 2    
    43   20   22 1    
    44   22   23 1    
    45   22   24 1    
    46   22  145 1    
    47   23  146 1    
    48   23  147 1    
    49   23  148 1    
    50   24   25 am   BACKBONE|DICT|INTERRES
    51   24  149 1    
    52   25   26 2    
    53   25   27 1    
    54   27   28 1    
    55   27   29 1    
    56   27  150 1    
    57   28  151 1    
    58   28  152 1    
    59   28  153 1    
    60   29   30 am   BACKBONE|DICT|INTERRES
    61   29  154 1    
    62   30   31 2    
    63   30   32 1    
    64   32   33 1    
    65   32   34 1    
    66   32  155 1    
    67   33  156 1    
    68   33  157 1    
    69   33  158 1    
    70   34   35 am   BACKBONE|DICT|INTERRES
    71   34  159 1    
    72   35   36 2    
    73   35   37 1    
    74   37   38 1    
    75   37   39 1    
    76   37  160 1    
    77   38  161 1    
    78   38  162 1    
    79   38  163 1    
    80   39   40 am   BACKBONE|DICT|INTERRES
    81   39  164 1    
    82   40   41 2    
    83   40   42 1    
    84   42   43 1    
    85   42   44 1    
    86   42  165 1    
    87   43  166 1    
    88   43  167 1    
    89   43  168 1    
    90   44   45 am   BACKBONE|DICT|INTERRES
    91   44  169 1    
    92   45   46 2    
    93   45   47 1    
    94   47   48 1    
    95   47   49 1    
    96   47  170 1    
    97   48  171 1    
    98   48  172 1    
    99   48  173 1    
   100   49   50 am   BACKBONE|DICT|INTERRES
   101   49  174 1    
   102   50   51 2    
   103   50   52 1    
   104   52   53 1    
   105   52   54 1    
   106   52  175 1    
   107   53  176 1    
   108   53  177 1    
   109   53  178 1    
   110   54   55 am   BACKBONE|DICT|INTERRES
   111   54  179 1    
   112   55   56 2    
   113   55   57 1    
   114   57   58 1    
   115   57   59 1    
   116   57  180 1    
   117   58  181 1    
   118   58  182 1    
   119   58  183 1    
   120   59   60 am   BACKBONE|DICT|INTERRES
   121   59  184 1    
   122   60   61 2    
   123   60   62 1    
   124   62   63 1    
   125   62   64 1    
   126   62  185 1    
   127   63  186 1    
   128   63  187 1    
   129   63  188 1    
   130   64   65 am   BACKBONE|DICT|INTERRES
   131   64  189 1    
   132   65   66 2    
   133   67   68 2    
   134   67   69 am   BACKBONE|DICT|INTERRES
   135   69   70 1    
   136   69  190 1    
   137   70   71 1    
   138   70   72 1    
   139   70  191 1    
   140   71  192 1    
   141   71  193 1    
   142   71  194 1    
   143   72   73 2    
   144   72   74 am   BACKBONE|DICT|INTERRES
   145   74   75 1    
   146   74  195 1    
   147   75   76 1    
   148   75   77 1    
   149   75  196 1    
   150   76  197 1    
   151   76  198 1    
   152   76  199 1    
   153   77   78 2    
   154   77   79 am   BACKBONE|DICT|INTERRES
   155   79   80 1    
   156   79  200 1    
   157   80   81 1    
   158   80   82 1    
   159   80  201 1    
   160   81  202 1    
   161   81  203 1    
   162   81  204 1    
   163   82   83 2    
   164   82   84 am   BACKBONE|DICT|INTERRES
   165   84   85 1    
   166   84  205 1    
   167   85   86 1    
   168   85   87 1    
   169   85  206 1    
   170   86  207 1    
   171   86  208 1    
   172   86  209 1    
   173   87   88 2    
   174   87   89 am   BACKBONE|DICT|INTERRES
   175   89   90 1    
   176   89  210 1    
   177   90   91 1    
   178   90   92 1    
   179   90  211 1    
   180   91  212 1    
   181   91  213 1    
   182   91  214 1    
   183   92   93 2    
   184   92   94 am   BACKBONE|DICT|INTERRES
   185   94   95 1    
   186   94  215 1    
   187   95   96 1    
   188   95   97 1    
   189   95  216 1    
   190   96  217 1    
   191   96  218 1    
   192   96  219 1    
   193   97   98 2    
   194   97   99 am   BACKBONE|DICT|INTERRES
   195   99  100 1    
   196   99  220 1    
   197  100  101 1    
   198  100  102 1    
   199  100  221 1    
   200  101  222 1    
   201  101  223 1    
   202  101  224 1    
   203  102  103 2    
   204  102  104 am   BACKBONE|DICT|INTERRES
   205  104  105 1    
   206  104  225 1    
   207  105  106 1    
   208  105  107 1    
   209  105  226 1    
   210  106  227 1    
   211  106  228 1    
   212  106  229 1    
   213  107  108 2    
   214  107  109 am   BACKBONE|DICT|INTERRES
   215  109  110 1    
   216  109  230 1    
   217  110  111 1    
   218  110  112 1    
   219  110  231 1    
   220  111  232 1    
   221  111  233 1    
   222  111  234 1    
   223  112  113 2    
   224  112  114 am   BACKBONE|DICT|INTERRES
   225  114  115 1    
   226  114  235 1    
   227  115  116 1    
   228  115  117 1    
   229  115  236 1    
   230  116  237 1    
   231  116  238 1    
   232  116  239 1    
   233  117  118 2    
   234  117  119 am   BACKBONE|DICT|INTERRES
   235  119  120 1    
   236  119  240 1    
   237  120  121 1    
   238  120  124 1    
   239  120  241 1    
   240  121  122 am   BACKBONE|DICT|INTERRES
   241  121  123 2    
   242  122  242 1    
   243  122  243 1    
   244  124  125 1    
   245  124  244 1    
   246  124  245 1    
   247  125  126 1    
   248  126  246 1    
   249  126  247 1    
@<TRIPOS>SUBSTRUCTURE
     1 UNK         1 GROUP             0       ****    0 ROOT    
