@<TRIPOS>MOLECULE
3R540
247   249    1
SMALL
USER_CHARGES


@<TRIPOS>ATOM
      1 CA         -0.7617  -12.3751  -46.9440 C.3       0 UNK        -0.1800 
      2 C           0.5301  -12.6712  -47.6916 C.2       0 UNK         0.5000 
      3 O           0.9848  -11.8447  -48.4830 O.2       0 UNK        -0.5000 
      4 N           1.1332  -13.8375  -47.4347 N.am      1 UNK        -0.5000 
      5 CA          2.3963  -14.2745  -48.0291 C.3       1 UNK         0.1400 
      6 C6          2.5720  -15.8074  -47.9200 C.3       23 UNK        -0.0398 
      7 S7          3.7837  -16.4807  -49.1065 S.3       23 UNK        -0.2404 
      8 C8          2.8927  -16.3837  -50.6960 C.3       23 UNK        -0.0205 
      9 C9          1.5656  -17.1266  -50.6740 C.ar      23 UNK        -0.0193 
     10 C10         0.3638  -16.4207  -50.5765 C.ar      23 UNK        -0.1150 
     11 C11        -0.8578  -17.0984  -50.5746 C.ar      23 UNK        -0.0193 
     12 C12        -0.8715  -18.4947  -50.6428 C.ar      23 UNK        -0.1150 
     13 C13         0.3238  -19.2145  -50.7390 C.ar      23 UNK        -0.0193 
     14 C14         1.5383  -18.5195  -50.7679 C.ar      23 UNK        -0.1150 
     15 C15         0.2898  -20.7372  -50.8386 C.3       23 UNK        -0.0205 
     16 S16         1.5396  -21.5598  -49.7940 S.3       23 UNK        -0.2404 
     17 C17         0.9854  -21.0710  -48.1253 C.3       23 UNK        -0.0398 
     18 CA          0.5337  -22.2710  -47.2631 C.3       11 UNK         0.1400 
     19 N           0.4327  -21.9127  -45.8484 N.am      11 UNK        -0.5000 
     20 C           0.2271  -22.7825  -44.8498 C.2       10 UNK         0.5000 
     21 O           0.1620  -24.0023  -45.0049 O.2       10 UNK        -0.5000 
     22 CA          0.0003  -22.1812  -43.4512 C.3       10 UNK         0.1400 
     23 CB          1.3358  -21.8026  -42.7944 C.3       10 UNK        -0.1800 
     24 N          -0.8841  -21.0146  -43.4863 N.am      10 UNK        -0.5000 
     25 C          -2.1696  -21.0547  -43.8654 C.2       9 UNK         0.5000 
     26 O          -2.7594  -22.0950  -44.1583 O.2       9 UNK        -0.5000 
     27 CA         -2.9078  -19.7078  -43.9819 C.3       9 UNK         0.1400 
     28 CB         -3.3907  -19.2274  -42.6056 C.3       9 UNK        -0.1800 
     29 N          -2.0963  -18.6653  -44.6142 N.am      9 UNK        -0.5000 
     30 C          -1.6581  -18.7064  -45.8807 C.2       8 UNK         0.5000 
     31 O          -1.9223  -19.6157  -46.6640 O.2       8 UNK        -0.5000 
     32 CA         -0.7239  -17.5723  -46.3394 C.3       8 UNK         0.1400 
     33 CB         -1.5267  -16.3270  -46.7416 C.3       8 UNK        -0.1800 
     34 N           0.2798  -17.2332  -45.3271 N.am      8 UNK        -0.5000 
     35 C           1.2336  -18.0828  -44.9143 C.2       7 UNK         0.5000 
     36 O           1.4147  -19.1962  -45.4060 O.2       7 UNK        -0.5000 
     37 CA          2.0860  -17.6457  -43.7116 C.3       7 UNK         0.1400 
     38 CB          3.2542  -16.7543  -44.1510 C.3       7 UNK        -0.1800 
     39 N           1.2866  -16.9541  -42.7014 N.am      7 UNK        -0.5000 
     40 C           0.3926  -17.5642  -41.9100 C.2       6 UNK         0.5000 
     41 O           0.1761  -18.7751  -41.9340 O.2       6 UNK        -0.5000 
     42 CA         -0.4247  -16.6673  -40.9624 C.3       6 UNK         0.1400 
     43 CB          0.3379  -16.4332  -39.6501 C.3       6 UNK        -0.1800 
     44 N          -0.7683  -15.3763  -41.5595 N.am      6 UNK        -0.5000 
     45 C          -1.5671  -15.2176  -42.6245 C.2       5 UNK         0.5000 
     46 O          -2.1300  -16.1476  -43.2000 O.2       5 UNK        -0.5000 
     47 CA         -1.7145  -13.7854  -43.1704 C.3       5 UNK         0.1400 
     48 CB         -2.8781  -13.0595  -42.4803 C.3       5 UNK        -0.1800 
     49 N          -0.4904  -12.9923  -43.0248 N.am      5 UNK        -0.5000 
     50 C           0.6686  -13.2677  -43.6358 C.2       4 UNK         0.5000 
     51 O           0.8144  -14.2019  -44.4299 O.2       4 UNK        -0.5000 
     52 CA          1.8555  -12.3591  -43.2819 C.3       4 UNK         0.1400 
     53 CB          3.0675  -13.1747  -42.8063 C.3       4 UNK        -0.1800 
     54 N           2.2262  -11.5561  -44.4437 N.am      4 UNK        -0.5000 
     55 C           1.7720  -10.3154  -44.6750 C.2       3 UNK         0.5000 
     56 O           1.0151   -9.7275  -43.9007 O.2       3 UNK        -0.5000 
     57 CA          2.1777   -9.6088  -45.9882 C.3       3 UNK         0.1400 
     58 CB          2.6566   -8.1615  -45.7504 C.3       3 UNK        -0.1800 
     59 N           3.1198  -10.3590  -46.8251 N.am      3 UNK        -0.5000 
     60 C           4.4220  -10.6078  -46.6105 C.2       2 UNK         0.5000 
     61 O           5.0616  -10.1658  -45.6554 O.2       2 UNK        -0.5000 
     62 CA          5.0978  -11.5512  -47.6351 C.3       2 UNK         0.1400 
     63 CB          6.4098  -12.1737  -47.1128 C.3       2 UNK        -0.1800 
     64 N           4.1782  -12.5913  -48.1207 N.am      2 UNK        -0.5000 
     65 C           3.5378  -13.4914  -47.3596 C.2       1 UNK         0.5000 
     66 O           3.7424  -13.6405  -46.1550 O.2       1 UNK        -0.5000 
     67 C          -0.7714  -22.9083  -47.7833 C.2       11 UNK         0.5000 
     68 O          -0.7109  -23.9565  -48.4213 O.2       11 UNK        -0.5000 
     69 N          -1.9252  -22.3066  -47.4596 N.am      12 UNK        -0.5000 
     70 CA         -3.2572  -22.8158  -47.7906 C.3       12 UNK         0.1400 
     71 CB         -4.3271  -21.8215  -47.3140 C.3       12 UNK        -0.1800 
     72 C          -3.5298  -24.2120  -47.2069 C.2       12 UNK         0.5000 
     73 O          -4.0643  -25.0671  -47.9129 O.2       12 UNK        -0.5000 
     74 N          -3.1297  -24.4275  -45.9465 N.am      13 UNK        -0.5000 
     75 CA         -3.2097  -25.7185  -45.2656 C.3       13 UNK         0.1400 
     76 CB         -2.8692  -25.5417  -43.7781 C.3       13 UNK        -0.1800 
     77 C          -2.3104  -26.7830  -45.9206 C.2       13 UNK         0.5000 
     78 O          -2.7776  -27.8931  -46.1772 O.2       13 UNK        -0.5000 
     79 N          -1.0550  -26.4158  -46.2158 N.am      14 UNK        -0.5000 
     80 CA         -0.0691  -27.2728  -46.8797 C.3       14 UNK         0.1400 
     81 CB          1.3054  -26.5873  -46.8474 C.3       14 UNK        -0.1800 
     82 C          -0.4583  -27.6427  -48.3241 C.2       14 UNK         0.5000 
     83 O          -0.2636  -28.7875  -48.7340 O.2       14 UNK        -0.5000 
     84 N          -1.0219  -26.6757  -49.0586 N.am      15 UNK        -0.5000 
     85 CA         -1.4978  -26.8240  -50.4345 C.3       15 UNK         0.1400 
     86 CB         -1.5591  -25.4335  -51.0863 C.3       15 UNK        -0.1800 
     87 C          -2.8646  -27.5283  -50.5478 C.2       15 UNK         0.5000 
     88 O          -3.3040  -27.7892  -51.6673 O.2       15 UNK        -0.5000 
     89 N          -3.5230  -27.8019  -49.4113 N.am      16 UNK        -0.5000 
     90 CA         -4.8520  -28.4081  -49.2826 C.3       16 UNK         0.1400 
     91 CB         -4.8399  -29.8739  -49.7646 C.3       16 UNK        -0.1800 
     92 C          -5.9450  -27.5502  -49.9536 C.2       16 UNK         0.5000 
     93 O          -6.7060  -28.0411  -50.7887 O.2       16 UNK        -0.5000 
     94 N          -5.9685  -26.2658  -49.5740 N.am      17 UNK        -0.5000 
     95 CA         -6.8770  -25.1942  -49.9952 C.3       17 UNK         0.1400 
     96 CB         -8.3594  -25.5875  -49.8299 C.3       17 UNK        -0.1800 
     97 C          -6.5813  -24.6016  -51.3869 C.2       17 UNK         0.5000 
     98 O          -7.2318  -23.6254  -51.7641 O.2       17 UNK        -0.5000 
     99 N          -5.5762  -25.1203  -52.1076 N.am      18 UNK        -0.5000 
    100 CA        -5.0727  -24.5604  -53.3677 C.3       18 UNK         0.1400 
    101 CB        -4.4242  -25.6813  -54.1980 C.3       18 UNK        -0.1800 
    102 C         -4.1137  -23.3792  -53.1000 C.2       18 UNK         0.5000 
    103 O         -2.9500  -23.4058  -53.5043 O.2       18 UNK        -0.5000 
    104 N         -4.6167  -22.3722  -52.3781 N.am      19 UNK        -0.5000 
    105 CA        -3.8875  -21.2312  -51.8270 C.3       19 UNK         0.1400 
    106 CB        -4.7201  -20.6633  -50.6659 C.3       19 UNK        -0.1800 
    107 C         -3.5443  -20.1565  -52.8789 C.2       19 UNK         0.5000 
    108 O         -3.8964  -18.9902  -52.6999 O.2       19 UNK        -0.5000 
    109 N         -2.8629  -20.5672  -53.9570 N.am      20 UNK        -0.5000 
    110 CA        -2.4329  -19.7519  -55.0968 C.3       20 UNK         0.1400 
    111 CB        -1.2998  -18.7894  -54.6723 C.3       20 UNK        -0.1800 
    112 C         -3.6322  -19.0534  -55.7734 C.2       20 UNK         0.5000 
    113 O         -4.3705  -19.7079  -56.5117 O.2       20 UNK        -0.5000 
    114 N         -3.8220  -17.7618  -55.4857 N.am      21 UNK        -0.5000 
    115 CA        -4.9719  -16.9566  -55.8919 C.3       21 UNK         0.1400 
    116 CB        -4.6558  -16.2345  -57.2154 C.3       21 UNK        -0.1800 
    117 C         -5.3613  -15.9958  -54.7515 C.2       21 UNK         0.5000 
    118 O         -5.7294  -14.8474  -55.0064 O.2       21 UNK        -0.5000 
    119 N         -5.2383  -16.4692  -53.5074 N.am      22 UNK        -0.5000 
    120 CA        -5.3918  -15.6895  -52.2727 C.3       22 UNK         0.1400 
    121 C         -5.9123  -16.5676  -51.0971 C.2       22 UNK         0.5000 
    122 N         -5.8006  -16.1203  -49.8525 N.am      22 UNK        -0.7600 
    123 O         -6.4855  -17.6352  -51.2997 O.2       22 UNK        -0.5000 
    124 C124       -4.1295  -14.8272  -51.9578 C.3       23 UNK        -0.0398 
    125 S125       -2.5329  -15.6815  -52.2061 S.3       23 UNK        -0.2404 
    126 C126       -2.1589  -16.3142  -50.5447 C.3       23 UNK        -0.0205 
    127 H127       -1.1116  -13.2436  -46.3877 H         1 UNK         0.0600 
    128 H128       -0.6138  -11.5562  -46.2409 H         1 UNK         0.0600 
    129 H129       -1.5439  -12.0873  -47.6461 H         1 UNK         0.0600 
    130 H130        0.8013  -14.3928  -46.6564 H         1 UNK         0.3000 
    131 H131        2.3609  -14.0103  -49.0874 H         1 UNK         0.0600 
    132 H132        2.8785  -16.0980  -46.9163 H         1 UNK         0.0800 
    133 H133        1.6198  -16.3122  -48.0798 H         1 UNK         0.0800 
    134 H134        3.5268  -16.8078  -51.4759 H         1 UNK         0.0800 
    135 H135        2.7436  -15.3391  -50.9715 H         1 UNK         0.0800 
    136 H136        0.3746  -15.3410  -50.5233 H         1 UNK         0.1150 
    137 H137       -1.8173  -19.0168  -50.6423 H         1 UNK         0.1150 
    138 H138        2.4690  -19.0623  -50.8539 H         1 UNK         0.1150 
    139 H139       -0.6941  -21.1203  -50.5648 H         1 UNK         0.0800 
    140 H140        0.4555  -21.0216  -51.8784 H         1 UNK         0.0800 
    141 H141        0.2004  -20.3164  -48.1845 H         1 UNK         0.0800 
    142 H142        1.8341  -20.5768  -47.6511 H         1 UNK         0.0800 
    143 H143        1.3116  -23.0349  -47.3291 H         1 UNK         0.0600 
    144 H144        0.5223  -20.9257  -45.6259 H         1 UNK         0.3000 
    145 H145       -0.4773  -22.9452  -42.8343 H         1 UNK         0.0600 
    146 H146        1.1857  -21.4445  -41.7758 H         1 UNK         0.0600 
    147 H147        2.0030  -22.6638  -42.7420 H         1 UNK         0.0600 
    148 H148        1.8520  -21.0200  -43.3508 H         1 UNK         0.0600 
    149 H149       -0.4840  -20.1284  -43.1931 H         1 UNK         0.3000 
    150 H150       -3.7869  -19.8665  -44.6096 H         1 UNK         0.0600 
    151 H151       -4.0300  -19.9747  -42.1341 H         1 UNK         0.0600 
    152 H152       -3.9714  -18.3087  -42.6904 H         1 UNK         0.0600 
    153 H153       -2.5576  -19.0351  -41.9300 H         1 UNK         0.0600 
    154 H154       -1.8906  -17.8446  -44.0513 H         1 UNK         0.3000 
    155 H155       -0.1978  -17.9278  -47.2284 H         1 UNK         0.0600 
    156 H156       -2.3431  -16.5910  -47.4152 H         1 UNK         0.0600 
    157 H157       -0.9010  -15.6118  -47.2706 H         1 UNK         0.0600 
    158 H158       -1.9644  -15.8263  -45.8786 H         1 UNK         0.0600 
    159 H159        0.1943  -16.3373  -44.8641 H         1 UNK         0.3000 
    160 H160        2.5062  -18.5458  -43.2577 H         1 UNK         0.0600 
    161 H161        2.9037  -15.8316  -44.6107 H         1 UNK         0.0600 
    162 H162        3.8837  -17.2663  -44.8797 H         1 UNK         0.0600 
    163 H163        3.8876  -16.4870  -43.3051 H         1 UNK         0.0600 
    164 H164        1.3740  -15.9498  -42.6597 H         1 UNK         0.3000 
    165 H165       -1.3548  -17.1896  -40.7291 H         1 UNK         0.0600 
    166 H166       -0.2632  -15.8641  -38.9408 H         1 UNK         0.0600 
    167 H167        0.5915  -17.3806  -39.1724 H         1 UNK         0.0600 
    168 H168        1.2687  -15.8891  -39.8151 H         1 UNK         0.0600 
    169 H169       -0.3501  -14.5563  -41.1459 H         1 UNK         0.3000 
    170 H170       -1.9453  -13.8618  -44.2341 H         1 UNK         0.0600 
    171 H171       -3.8075  -13.6201  -42.5902 H         1 UNK         0.0600 
    172 H172       -2.6971  -12.9296  -41.4126 H         1 UNK         0.0600 
    173 H173       -3.0415  -12.0737  -42.9162 H         1 UNK         0.0600 
    174 H174       -0.5418  -12.1934  -42.4087 H         1 UNK         0.3000 
    175 H175        1.5671  -11.7098  -42.4525 H         1 UNK         0.0600 
    176 H176        3.4597  -13.8207  -43.5894 H         1 UNK         0.0600 
    177 H177        3.8771  -12.5187  -42.4863 H         1 UNK         0.0600 
    178 H178        2.8067  -13.8079  -41.9575 H         1 UNK         0.0600 
    179 H179        2.8117  -12.0181  -45.1302 H         1 UNK         0.3000 
    180 H180        1.2616   -9.5477  -46.5773 H         1 UNK         0.0600 
    181 H181        3.5174   -8.1206  -45.0829 H         1 UNK         0.0600 
    182 H182        1.8685   -7.5598  -45.2962 H         1 UNK         0.0600 
    183 H183        2.9323   -7.6769  -46.6870 H         1 UNK         0.0600 
    184 H184        2.6903  -10.8052  -47.6281 H         1 UNK         0.3000 
    185 H185        5.3476  -10.9324  -48.4981 H         1 UNK         0.0600 
    186 H186        7.1454  -11.4008  -46.8876 H         1 UNK         0.0600 
    187 H187        6.2531  -12.7493  -46.2001 H         1 UNK         0.0600 
    188 H188        6.8540  -12.8368  -47.8551 H         1 UNK         0.0600 
    189 H189        3.9233  -12.5205  -49.0964 H         1 UNK         0.3000 
    190 H190       -1.8932  -21.4123  -46.9741 H         1 UNK         0.3000 
    191 H191       -3.3153  -22.8938  -48.8779 H         1 UNK         0.0600 
    192 H192       -4.3361  -21.7240  -46.2293 H         1 UNK         0.0600 
    193 H193       -5.3233  -22.1453  -47.6178 H         1 UNK         0.0600 
    194 H194       -4.1627  -20.8287  -47.7320 H         1 UNK         0.0600 
    195 H195       -2.7465  -23.6507  -45.4162 H         1 UNK         0.3000 
    196 H196       -4.2420  -26.0677  -45.3353 H         1 UNK         0.0600 
    197 H197       -2.9482  -26.4894  -43.2442 H         1 UNK         0.0600 
    198 H198       -3.5525  -24.8399  -43.2995 H         1 UNK         0.0600 
    199 H199       -1.8554  -25.1676  -43.6354 H         1 UNK         0.0600 
    200 H200       -0.7413  -25.4868  -45.9489 H         1 UNK         0.3000 
    201 H201        0.0019  -28.2009  -46.3089 H         1 UNK         0.0600 
    202 H202        1.6253  -26.3941  -45.8233 H         1 UNK         0.0600 
    203 H203        1.2922  -25.6346  -47.3779 H         1 UNK         0.0600 
    204 H204        2.0666  -27.2137  -47.3140 H         1 UNK         0.0600 
    205 H205       -1.0773  -25.7370  -48.6671 H         1 UNK         0.3000 
    206 H206       -0.7746  -27.4261  -50.9881 H         1 UNK         0.0600 
    207 H207       -0.5977  -24.9232  -51.0247 H         1 UNK         0.0600 
    208 H208       -1.8125  -25.5085  -52.1435 H         1 UNK         0.0600 
    209 H209       -2.3074  -24.7979  -50.6106 H         1 UNK         0.0600 
    210 H210       -3.0880  -27.5205  -48.5424 H         1 UNK         0.3000 
    211 H211       -5.0804  -28.4171  -48.2157 H         1 UNK         0.0600 
    212 H212       -4.6545  -29.9511  -50.8362 H         1 UNK         0.0600 
    213 H213       -5.7970  -30.3565  -49.5642 H         1 UNK         0.0600 
    214 H214       -4.0715  -30.4503  -49.2493 H         1 UNK         0.0600 
    215 H215       -5.2486  -25.9597  -48.9185 H         1 UNK         0.3000 
    216 H216       -6.6869  -24.3806  -49.2936 H         1 UNK         0.0600 
    217 H217       -9.0079  -24.7207  -49.9616 H         1 UNK         0.0600 
    218 H218       -8.5541  -25.9882  -48.8351 H         1 UNK         0.0600 
    219 H219       -8.6690  -26.3334  -50.5619 H         1 UNK         0.0600 
    220 H220       -5.0761  -25.9157  -51.7349 H         1 UNK         0.3000 
    221 H221       -5.9122  -24.1711  -53.9474 H         1 UNK         0.0600 
    222 H222       -3.5465  -26.0969  -53.7044 H         1 UNK         0.0600 
    223 H223       -5.1252  -26.4971  -54.3753 H         1 UNK         0.0600 
    224 H224       -4.1051  -25.3093  -55.1723 H         1 UNK         0.0600 
    225 H225       -5.5964  -22.4377  -52.1241 H         1 UNK         0.3000 
    226 H226       -2.9446  -21.5963  -51.4158 H         1 UNK         0.0600 
    227 H227       -4.9924  -21.4447  -49.9598 H         1 UNK         0.0600 
    228 H228       -4.1689  -19.8960  -50.1207 H         1 UNK         0.0600 
    229 H229       -5.6474  -20.2134  -51.0221 H         1 UNK         0.0600 
    230 H230       -2.6676  -21.5625  -54.0213 H         1 UNK         0.3000 
    231 H231       -2.0198  -20.4403  -55.8355 H         1 UNK         0.0600 
    232 H232       -0.4313  -19.3461  -54.3200 H         1 UNK         0.0600 
    233 H233       -1.5997  -18.1180  -53.8674 H         1 UNK         0.0600 
    234 H234       -0.9699  -18.1760  -55.5115 H         1 UNK         0.0600 
    235 H235       -3.1975  -17.3243  -54.8207 H         1 UNK         0.3000 
    236 H236       -5.8359  -17.6055  -56.0499 H         1 UNK         0.0600 
    237 H237       -5.5130  -15.6571  -57.5634 H         1 UNK         0.0600 
    238 H238       -3.8160  -15.5475  -57.1047 H         1 UNK         0.0600 
    239 H239       -4.4053  -16.9459  -58.0026 H         1 UNK         0.0600 
    240 H240       -4.9370  -17.4291  -53.3548 H         1 UNK         0.3000 
    241 H241       -6.2170  -14.9946  -52.4382 H         1 UNK         0.0600 
    242 H242       -6.1690  -16.6867  -49.1048 H         1 UNK         0.3800 
    243 H243       -5.3925  -15.2255  -49.6377 H         1 UNK         0.3800 
    244 H244       -4.1630  -14.3834  -50.9630 H         1 UNK         0.0800 
    245 H245       -4.1241  -13.9750  -52.6385 H         1 UNK         0.0800 
    246 H246       -2.9774  -16.9484  -50.2009 H         1 UNK         0.0800 
    247 H247       -2.0800  -15.4845  -49.8409 H         1 UNK         0.0800 
@<TRIPOS>BOND
     1    1    2 1    
     2    1  127 1    
     3    1  128 1    
     4    1  129 1    
     5    2    3 2    
     6    2    4 am   BACKBONE|DICT|INTERRES
     7    4    5 1    
     8    4  130 1    
     9    5    6 1    
    10    5   65 1    
    11    5  131 1    
    12    6    7 1    
    13    6  132 1    
    14    6  133 1    
    15    7    8 1    
    16    8    9 1    
    17    8  134 1    
    18    8  135 1    
    19    9   10 ar   
    20    9   14 ar   
    21   10   11 ar   
    22   10  136 1    
    23   11   12 ar   
    24   11  126 1    
    25   12   13 ar   
    26   12  137 1    
    27   13   14 ar   
    28   13   15 1    
    29   14  138 1    
    30   15   16 1    
    31   15  139 1    
    32   15  140 1    
    33   16   17 1    
    34   17   18 1    
    35   17  141 1    
    36   17  142 1    
    37   18   19 1    
    38   18   67 1    
    39   18  143 1    
    40   19   20 am   BACKBONE|DICT|INTERRES
    41   19  144 1    
    42   20   21 2    
    43   20   22 1    
    44   22   23 1    
    45   22   24 1    
    46   22  145 1    
    47   23  146 1    
    48   23  147 1    
    49   23  148 1    
    50   24   25 am   BACKBONE|DICT|INTERRES
    51   24  149 1    
    52   25   26 2    
    53   25   27 1    
    54   27   28 1    
    55   27   29 1    
    56   27  150 1    
    57   28  151 1    
    58   28  152 1    
    59   28  153 1    
    60   29   30 am   BACKBONE|DICT|INTERRES
    61   29  154 1    
    62   30   31 2    
    63   30   32 1    
    64   32   33 1    
    65   32   34 1    
    66   32  155 1    
    67   33  156 1    
    68   33  157 1    
    69   33  158 1    
    70   34   35 am   BACKBONE|DICT|INTERRES
    71   34  159 1    
    72   35   36 2    
    73   35   37 1    
    74   37   38 1    
    75   37   39 1    
    76   37  160 1    
    77   38  161 1    
    78   38  162 1    
    79   38  163 1    
    80   39   40 am   BACKBONE|DICT|INTERRES
    81   39  164 1    
    82   40   41 2    
    83   40   42 1    
    84   42   43 1    
    85   42   44 1    
    86   42  165 1    
    87   43  166 1    
    88   43  167 1    
    89   43  168 1    
    90   44   45 am   BACKBONE|DICT|INTERRES
    91   44  169 1    
    92   45   46 2    
    93   45   47 1    
    94   47   48 1    
    95   47   49 1    
    96   47  170 1    
    97   48  171 1    
    98   48  172 1    
    99   48  173 1    
   100   49   50 am   BACKBONE|DICT|INTERRES
   101   49  174 1    
   102   50   51 2    
   103   50   52 1    
   104   52   53 1    
   105   52   54 1    
   106   52  175 1    
   107   53  176 1    
   108   53  177 1    
   109   53  178 1    
   110   54   55 am   BACKBONE|DICT|INTERRES
   111   54  179 1    
   112   55   56 2    
   113   55   57 1    
   114   57   58 1    
   115   57   59 1    
   116   57  180 1    
   117   58  181 1    
   118   58  182 1    
   119   58  183 1    
   120   59   60 am   BACKBONE|DICT|INTERRES
   121   59  184 1    
   122   60   61 2    
   123   60   62 1    
   124   62   63 1    
   125   62   64 1    
   126   62  185 1    
   127   63  186 1    
   128   63  187 1    
   129   63  188 1    
   130   64   65 am   BACKBONE|DICT|INTERRES
   131   64  189 1    
   132   65   66 2    
   133   67   68 2    
   134   67   69 am   BACKBONE|DICT|INTERRES
   135   69   70 1    
   136   69  190 1    
   137   70   71 1    
   138   70   72 1    
   139   70  191 1    
   140   71  192 1    
   141   71  193 1    
   142   71  194 1    
   143   72   73 2    
   144   72   74 am   BACKBONE|DICT|INTERRES
   145   74   75 1    
   146   74  195 1    
   147   75   76 1    
   148   75   77 1    
   149   75  196 1    
   150   76  197 1    
   151   76  198 1    
   152   76  199 1    
   153   77   78 2    
   154   77   79 am   BACKBONE|DICT|INTERRES
   155   79   80 1    
   156   79  200 1    
   157   80   81 1    
   158   80   82 1    
   159   80  201 1    
   160   81  202 1    
   161   81  203 1    
   162   81  204 1    
   163   82   83 2    
   164   82   84 am   BACKBONE|DICT|INTERRES
   165   84   85 1    
   166   84  205 1    
   167   85   86 1    
   168   85   87 1    
   169   85  206 1    
   170   86  207 1    
   171   86  208 1    
   172   86  209 1    
   173   87   88 2    
   174   87   89 am   BACKBONE|DICT|INTERRES
   175   89   90 1    
   176   89  210 1    
   177   90   91 1    
   178   90   92 1    
   179   90  211 1    
   180   91  212 1    
   181   91  213 1    
   182   91  214 1    
   183   92   93 2    
   184   92   94 am   BACKBONE|DICT|INTERRES
   185   94   95 1    
   186   94  215 1    
   187   95   96 1    
   188   95   97 1    
   189   95  216 1    
   190   96  217 1    
   191   96  218 1    
   192   96  219 1    
   193   97   98 2    
   194   97   99 am   BACKBONE|DICT|INTERRES
   195   99  100 1    
   196   99  220 1    
   197  100  101 1    
   198  100  102 1    
   199  100  221 1    
   200  101  222 1    
   201  101  223 1    
   202  101  224 1    
   203  102  103 2    
   204  102  104 am   BACKBONE|DICT|INTERRES
   205  104  105 1    
   206  104  225 1    
   207  105  106 1    
   208  105  107 1    
   209  105  226 1    
   210  106  227 1    
   211  106  228 1    
   212  106  229 1    
   213  107  108 2    
   214  107  109 am   BACKBONE|DICT|INTERRES
   215  109  110 1    
   216  109  230 1    
   217  110  111 1    
   218  110  112 1    
   219  110  231 1    
   220  111  232 1    
   221  111  233 1    
   222  111  234 1    
   223  112  113 2    
   224  112  114 am   BACKBONE|DICT|INTERRES
   225  114  115 1    
   226  114  235 1    
   227  115  116 1    
   228  115  117 1    
   229  115  236 1    
   230  116  237 1    
   231  116  238 1    
   232  116  239 1    
   233  117  118 2    
   234  117  119 am   BACKBONE|DICT|INTERRES
   235  119  120 1    
   236  119  240 1    
   237  120  121 1    
   238  120  124 1    
   239  120  241 1    
   240  121  122 am   BACKBONE|DICT|INTERRES
   241  121  123 2    
   242  122  242 1    
   243  122  243 1    
   244  124  125 1    
   245  124  244 1    
   246  124  245 1    
   247  125  126 1    
   248  126  246 1    
   249  126  247 1    
@<TRIPOS>SUBSTRUCTURE
     1 UNK         1 GROUP             0       ****    0 ROOT    
