@<TRIPOS>MOLECULE
3R540
247   249    1
SMALL
USER_CHARGES


@<TRIPOS>ATOM
      1 CA          1.0911  -13.7480  -46.8125 C.3       0 UNK        -0.1800 
      2 C           2.2879  -12.8443  -47.0613 C.2       0 UNK         0.5000 
      3 O           2.4880  -11.8810  -46.3229 O.2       0 UNK        -0.5000 
      4 N           3.0738  -13.1374  -48.1051 N.am      1 UNK        -0.5000 
      5 CA          4.2231  -12.3232  -48.5129 C.3       1 UNK         0.1400 
      6 C6          4.5669  -12.4981  -50.0126 C.3       23 UNK        -0.0398 
      7 S7          5.0445  -14.1952  -50.5063 S.3       23 UNK        -0.2404 
      8 C8          3.8375  -14.5855  -51.8111 C.3       23 UNK        -0.0205 
      9 C9          2.6822  -15.4223  -51.2850 C.ar      23 UNK        -0.0193 
     10 C10         1.5141  -14.8163  -50.8156 C.ar      23 UNK        -0.1150 
     11 C11         0.4365  -15.5957  -50.3823 C.ar      23 UNK        -0.0193 
     12 C12         0.5317  -16.9906  -50.4261 C.ar      23 UNK        -0.1150 
     13 C13         1.7014  -17.6087  -50.8810 C.ar      23 UNK        -0.0193 
     14 C14         2.7727  -16.8164  -51.3030 C.ar      23 UNK        -0.1150 
     15 C15         1.8094  -19.1266  -50.9590 C.3       23 UNK        -0.0205 
     16 S16         1.8190  -19.9152  -49.3161 S.3       23 UNK        -0.2404 
     17 C17         0.0563  -20.3358  -49.0952 C.3       23 UNK        -0.0398 
     18 CA         -0.1331  -21.6029  -48.2306 C.3       11 UNK         0.1400 
     19 N           0.1560  -21.3646  -46.8140 N.am      11 UNK        -0.5000 
     20 C           0.2299  -22.3216  -45.8788 C.2       10 UNK         0.5000 
     21 O           0.1088  -23.5225  -46.1203 O.2       10 UNK        -0.5000 
     22 CA          0.4173  -21.8604  -44.4217 C.3       10 UNK         0.1400 
     23 CB          1.8801  -21.4828  -44.1460 C.3       10 UNK        -0.1800 
     24 N          -0.4629  -20.7449  -44.0680 N.am      10 UNK        -0.5000 
     25 C          -1.8023  -20.8168  -44.0533 C.2       9 UNK         0.5000 
     26 O          -2.4332  -21.8465  -44.2894 O.2       9 UNK        -0.5000 
     27 CA         -2.5712  -19.5124  -43.7774 C.3       9 UNK         0.1400 
     28 CB         -2.6267  -19.2139  -42.2719 C.3       9 UNK        -0.1800 
     29 N          -2.0036  -18.3662  -44.4849 N.am      9 UNK        -0.5000 
     30 C          -1.9341  -18.2482  -45.8184 C.2       8 UNK         0.5000 
     31 O          -2.3933  -19.0722  -46.6076 O.2       8 UNK        -0.5000 
     32 CA         -1.1649  -17.0329  -46.3605 C.3       8 UNK         0.1400 
     33 CB         -2.0374  -15.7688  -46.3209 C.3       8 UNK        -0.1800 
     34 N           0.0861  -16.8139  -45.6320 N.am      8 UNK        -0.5000 
     35 C           1.1195  -17.6693  -45.6511 C.2       7 UNK         0.5000 
     36 O           1.1307  -18.7048  -46.3115 O.2       7 UNK        -0.5000 
     37 CA          2.3137  -17.3541  -44.7358 C.3       7 UNK         0.1400 
     38 CB          3.3605  -16.4977  -45.4596 C.3       7 UNK        -0.1800 
     39 N           1.8995  -16.7077  -43.4900 N.am      7 UNK        -0.5000 
     40 C           1.2529  -17.3591  -42.5118 C.2       6 UNK         0.5000 
     41 O           0.9660  -18.5557  -42.5662 O.2       6 UNK        -0.5000 
     42 CA          0.8127  -16.5342  -41.2909 C.3       6 UNK         0.1400 
     43 CB          1.9944  -16.2852  -40.3430 C.3       6 UNK        -0.1800 
     44 N           0.2018  -15.2548  -41.6460 N.am      6 UNK        -0.5000 
     45 C          -0.9131  -15.0928  -42.3669 C.2       5 UNK         0.5000 
     46 O          -1.5441  -16.0306  -42.8525 O.2       5 UNK        -0.5000 
     47 CA         -1.4025  -13.6510  -42.6157 C.3       5 UNK         0.1400 
     48 CB         -2.3066  -13.1668  -41.4670 C.3       5 UNK        -0.1800 
     49 N          -0.3361  -12.6835  -42.9109 N.am      5 UNK        -0.5000 
     50 C           0.6456  -12.2407  -42.1138 C.2       4 UNK         0.5000 
     51 O           0.7841  -12.5632  -40.9319 O.2       4 UNK        -0.5000 
     52 CA          1.6867  -11.3204  -42.7738 C.3       4 UNK         0.1400 
     53 CB          1.6580   -9.9211  -42.1412 C.3       4 UNK        -0.1800 
     54 N           3.0451  -11.8614  -42.6892 N.am      4 UNK        -0.5000 
     55 C           3.4313  -13.0655  -43.1296 C.2       3 UNK         0.5000 
     56 O           2.6726  -13.9085  -43.6151 O.2       3 UNK        -0.5000 
     57 CA          4.9253  -13.3848  -43.0418 C.3       3 UNK         0.1400 
     58 CB          5.1909  -14.5415  -42.0615 C.3       3 UNK        -0.1800 
     59 N           5.3566  -13.7393  -44.3864 N.am      3 UNK        -0.5000 
     60 C           6.6171  -13.7830  -44.8284 C.2       2 UNK         0.5000 
     61 O           7.5992  -13.5425  -44.1255 O.2       2 UNK        -0.5000 
     62 CA          6.8165  -14.1477  -46.3111 C.3       2 UNK         0.1400 
     63 CB          7.0852  -15.6517  -46.4720 C.3       2 UNK        -0.1800 
     64 N           5.6753  -13.7708  -47.1494 N.am      2 UNK        -0.5000 
     65 C           5.4525  -12.5281  -47.6015 C.2       1 UNK         0.5000 
     66 O           6.1695  -11.5645  -47.3275 O.2       1 UNK        -0.5000 
     67 C          -1.5361  -22.2083  -48.4386 C.2       11 UNK         0.5000 
     68 O          -1.6659  -23.1624  -49.2041 O.2       11 UNK        -0.5000 
     69 N          -2.5508  -21.6851  -47.7353 N.am      12 UNK        -0.5000 
     70 CA         -3.9185  -22.2076  -47.7506 C.3       12 UNK         0.1400 
     71 CB         -4.8509  -21.2629  -46.9797 C.3       12 UNK        -0.1800 
     72 C          -4.0146  -23.6419  -47.2028 C.2       12 UNK         0.5000 
     73 O          -4.7124  -24.4651  -47.7946 O.2       12 UNK        -0.5000 
     74 N          -3.2865  -23.9292  -46.1148 N.am      13 UNK        -0.5000 
     75 CA         -3.1672  -25.2638  -45.5280 C.3       13 UNK         0.1400 
     76 CB         -2.4420  -25.1787  -44.1767 C.3       13 UNK        -0.1800 
     77 C          -2.4672  -26.2590  -46.4706 C.2       13 UNK         0.5000 
     78 O          -2.9616  -27.3730  -46.6436 O.2       13 UNK        -0.5000 
     79 N          -1.3653  -25.8281  -47.1024 N.am      14 UNK        -0.5000 
     80 CA         -0.6209  -26.5986  -48.1034 C.3       14 UNK         0.1400 
     81 CB          0.6782  -25.8599  -48.4586 C.3       14 UNK        -0.1800 
     82 C          -1.4452  -26.8944  -49.3717 C.2       14 UNK         0.5000 
     83 O          -1.3449  -27.9913  -49.9221 O.2       14 UNK        -0.5000 
     84 N          -2.2751  -25.9277  -49.7846 N.am      15 UNK        -0.5000 
     85 CA         -3.2356  -26.0469  -50.8824 C.3       15 UNK         0.1400 
     86 CB         -3.6350  -24.6349  -51.3430 C.3       15 UNK        -0.1800 
     87 C          -4.4929  -26.8652  -50.5207 C.2       15 UNK         0.5000 
     88 O          -5.3091  -27.1155  -51.4062 O.2       15 UNK        -0.5000 
     89 N          -4.6546  -27.2384  -49.2418 N.am      16 UNK        -0.5000 
     90 CA         -5.8045  -27.9403  -48.6597 C.3       16 UNK         0.1400 
     91 CB         -5.8958  -29.3832  -49.1977 C.3       16 UNK        -0.1800 
     92 C          -7.1219  -27.1485  -48.8097 C.2       16 UNK         0.5000 
     93 O          -8.1710  -27.7311  -49.0896 O.2       16 UNK        -0.5000 
     94 N          -7.0252  -25.8229  -48.6302 N.am      17 UNK        -0.5000 
     95 CA         -8.0863  -24.8166  -48.7336 C.3       17 UNK         0.1400 
     96 CB         -9.1672  -25.0416  -47.6556 C.3       17 UNK        -0.1800 
     97 C          -8.6772  -24.6543  -50.1519 C.2       17 UNK         0.5000 
     98 O          -9.7849  -24.1316  -50.2914 O.2       17 UNK        -0.5000 
     99 N          -7.9330  -25.0765  -51.1839 N.am      18 UNK        -0.5000 
    100 CA        -8.2751  -24.8669  -52.5911 C.3       18 UNK         0.1400 
    101 CB        -7.3978  -25.7779  -53.4629 C.3       18 UNK        -0.1800 
    102 C         -8.1074  -23.3946  -53.0154 C.2       18 UNK         0.5000 
    103 O         -7.3880  -22.6326  -52.3630 O.2       18 UNK        -0.5000 
    104 N         -8.7640  -23.0306  -54.1232 N.am      19 UNK        -0.5000 
    105 CA        -8.6678  -21.7155  -54.7564 C.3       19 UNK         0.1400 
    106 CB        -9.7445  -21.6142  -55.8485 C.3       19 UNK        -0.1800 
    107 C         -7.2704  -21.4505  -55.3515 C.2       19 UNK         0.5000 
    108 O         -6.5649  -22.3945  -55.7160 O.2       19 UNK        -0.5000 
    109 N         -6.9212  -20.1607  -55.4609 N.am      20 UNK        -0.5000 
    110 CA        -5.6620  -19.6279  -55.9994 C.3       20 UNK         0.1400 
    111 CB        -5.5068  -19.9703  -57.4967 C.3       20 UNK        -0.1800 
    112 C         -4.4190  -20.0016  -55.1610 C.2       20 UNK         0.5000 
    113 O         -3.3168  -20.1038  -55.7022 O.2       20 UNK        -0.5000 
    114 N         -4.6092  -20.1639  -53.8429 N.am      21 UNK        -0.5000 
    115 CA        -3.5432  -20.4197  -52.8674 C.3       21 UNK         0.1400 
    116 CB        -4.1696  -20.9530  -51.5695 C.3       21 UNK        -0.1800 
    117 C         -2.6710  -19.1801  -52.5733 C.2       21 UNK         0.5000 
    118 O         -1.5933  -19.3229  -52.0001 O.2       21 UNK        -0.5000 
    119 N         -3.1477  -17.9942  -52.9612 N.am      22 UNK        -0.5000 
    120 CA        -2.4674  -16.7028  -52.8506 C.3       22 UNK         0.1400 
    121 C         -2.8096  -15.8589  -54.1079 C.2       22 UNK         0.5000 
    122 N         -1.8543  -15.1165  -54.6508 N.am      22 UNK        -0.7600 
    123 O         -3.9417  -15.8655  -54.5907 O.2       22 UNK        -0.5000 
    124 C124       -2.8577  -15.9985  -51.5259 C.3       23 UNK        -0.0398 
    125 S125       -1.9514  -14.4449  -51.2010 S.3       23 UNK        -0.2404 
    126 C126       -0.8221  -14.9226  -49.8591 C.3       23 UNK        -0.0205 
    127 H127        1.1453  -14.6642  -47.4011 H         1 UNK         0.0600 
    128 H128        1.0353  -14.0192  -45.7590 H         1 UNK         0.0600 
    129 H129        0.1742  -13.2212  -47.0740 H         1 UNK         0.0600 
    130 H130        2.8741  -13.9404  -48.6851 H         1 UNK         0.3000 
    131 H131        3.9344  -11.2762  -48.3928 H         1 UNK         0.0600 
    132 H132        3.7141  -12.1697  -50.6070 H         1 UNK         0.0800 
    133 H133        5.3819  -11.8269  -50.2891 H         1 UNK         0.0800 
    134 H134        3.4674  -13.6769  -52.2876 H         1 UNK         0.0800 
    135 H135        4.3536  -15.1369  -52.5985 H         1 UNK         0.0800 
    136 H136        1.4369  -13.7380  -50.8002 H         1 UNK         0.1150 
    137 H137       -0.3048  -17.5970  -50.1110 H         1 UNK         0.1150 
    138 H138        3.6768  -17.2848  -51.6662 H         1 UNK         0.1150 
    139 H139        1.0040  -19.5202  -51.5785 H         1 UNK         0.0800 
    140 H140        2.7321  -19.4103  -51.4672 H         1 UNK         0.0800 
    141 H141       -0.3785  -20.4951  -50.0816 H         1 UNK         0.0800 
    142 H142       -0.4677  -19.4844  -48.6592 H         1 UNK         0.0800 
    143 H143        0.5780  -22.3549  -48.5794 H         1 UNK         0.0600 
    144 H144        0.3324  -20.3985  -46.5487 H         1 UNK         0.3000 
    145 H145        0.1600  -22.7005  -43.7734 H         1 UNK         0.0600 
    146 H146        2.0245  -21.1957  -43.1044 H         1 UNK         0.0600 
    147 H147        2.5429  -22.3252  -44.3472 H         1 UNK         0.0600 
    148 H148        2.2083  -20.6530  -44.7711 H         1 UNK         0.0600 
    149 H149       -0.0160  -19.8705  -43.8138 H         1 UNK         0.3000 
    150 H150       -3.5942  -19.6482  -44.1338 H         1 UNK         0.0600 
    151 H151       -3.0680  -20.0475  -41.7244 H         1 UNK         0.0600 
    152 H152       -3.2340  -18.3318  -42.0683 H         1 UNK         0.0600 
    153 H153       -1.6337  -19.0368  -41.8581 H         1 UNK         0.0600 
    154 H154       -1.6423  -17.6109  -43.9081 H         1 UNK         0.3000 
    155 H155       -0.9114  -17.2383  -47.4025 H         1 UNK         0.0600 
    156 H156       -1.5156  -14.9091  -46.7367 H         1 UNK         0.0600 
    157 H157       -2.3449  -15.5153  -45.3072 H         1 UNK         0.0600 
    158 H158       -2.9453  -15.9090  -46.9088 H         1 UNK         0.0600 
    159 H159        0.1276  -16.0209  -45.0107 H         1 UNK         0.3000 
    160 H160        2.7910  -18.3028  -44.4820 H         1 UNK         0.0600 
    161 H161        2.9687  -15.5209  -45.7329 H         1 UNK         0.0600 
    162 H162        3.6975  -16.9850  -46.3755 H         1 UNK         0.0600 
    163 H163        4.2349  -16.3457  -44.8280 H         1 UNK         0.0600 
    164 H164        2.0936  -15.7133  -43.3973 H         1 UNK         0.3000 
    165 H165        0.0633  -17.1189  -40.7536 H         1 UNK         0.0600 
    166 H166        2.7449  -15.6414  -40.8007 H         1 UNK         0.0600 
    167 H167        1.6641  -15.8080  -39.4203 H         1 UNK         0.0600 
    168 H168        2.4831  -17.2211  -40.0692 H         1 UNK         0.0600 
    169 H169        0.6436  -14.4143  -41.2850 H         1 UNK         0.3000 
    170 H170       -2.0176  -13.6876  -43.5158 H         1 UNK         0.0600 
    171 H171       -3.1589  -13.8348  -41.3381 H         1 UNK         0.0600 
    172 H172       -1.7770  -13.1315  -40.5149 H         1 UNK         0.0600 
    173 H173       -2.7017  -12.1713  -41.6687 H         1 UNK         0.0600 
    174 H174       -0.3160  -12.3724  -43.8717 H         1 UNK         0.3000 
    175 H175        1.4451  -11.2173  -43.8331 H         1 UNK         0.0600 
    176 H176        2.3385   -9.2418  -42.6545 H         1 UNK         0.0600 
    177 H177        0.6597   -9.4862  -42.2009 H         1 UNK         0.0600 
    178 H178        1.9409   -9.9494  -41.0885 H         1 UNK         0.0600 
    179 H179        3.7380  -11.2477  -42.2881 H         1 UNK         0.3000 
    180 H180        5.4700  -12.4976  -42.7133 H         1 UNK         0.0600 
    181 H181        4.6930  -15.4587  -42.3772 H         1 UNK         0.0600 
    182 H182        4.8298  -14.2948  -41.0626 H         1 UNK         0.0600 
    183 H183        6.2560  -14.7541  -41.9756 H         1 UNK         0.0600 
    184 H184        4.6019  -13.9139  -45.0354 H         1 UNK         0.3000 
    185 H185        7.7013  -13.6129  -46.6636 H         1 UNK         0.0600 
    186 H186        7.3006  -15.9034  -47.5106 H         1 UNK         0.0600 
    187 H187        7.9473  -15.9593  -45.8789 H         1 UNK         0.0600 
    188 H188        6.2360  -16.2540  -46.1512 H         1 UNK         0.0600 
    189 H189        5.0531  -14.5098  -47.4407 H         1 UNK         0.3000 
    190 H190       -2.3851  -20.8616  -47.1613 H         1 UNK         0.3000 
    191 H191       -4.2530  -22.2329  -48.7891 H         1 UNK         0.0600 
    192 H192       -4.8508  -20.2655  -47.4194 H         1 UNK         0.0600 
    193 H193       -5.8788  -21.6272  -46.9988 H         1 UNK         0.0600 
    194 H194       -4.5545  -21.1679  -45.9350 H         1 UNK         0.0600 
    195 H195       -2.7833  -23.1797  -45.6481 H         1 UNK         0.3000 
    196 H196       -4.1770  -25.6366  -45.3445 H         1 UNK         0.0600 
    197 H197       -2.3584  -26.1634  -43.7155 H         1 UNK         0.0600 
    198 H198       -2.9832  -24.5380  -43.4803 H         1 UNK         0.0600 
    199 H199       -1.4338  -24.7784  -44.2824 H         1 UNK         0.0600 
    200 H200       -0.9965  -24.9092  -46.8707 H         1 UNK         0.3000 
    201 H201       -0.3539  -27.5565  -47.6524 H         1 UNK         0.0600 
    202 H202        1.3006  -25.7107  -47.5761 H         1 UNK         0.0600 
    203 H203        0.4781  -24.8814  -48.8954 H         1 UNK         0.0600 
    204 H204        1.2665  -26.4282  -49.1800 H         1 UNK         0.0600 
    205 H205       -2.2339  -25.0240  -49.3216 H         1 UNK         0.3000 
    206 H206       -2.7472  -26.5527  -51.7176 H         1 UNK         0.0600 
    207 H207       -4.1418  -24.0844  -50.5501 H         1 UNK         0.0600 
    208 H208       -4.3102  -24.6721  -52.1984 H         1 UNK         0.0600 
    209 H209       -2.7625  -24.0560  -51.6466 H         1 UNK         0.0600 
    210 H210       -3.9362  -26.9724  -48.5800 H         1 UNK         0.3000 
    211 H211       -5.6104  -28.0016  -47.5882 H         1 UNK         0.0600 
    212 H212       -6.1473  -29.4068  -50.2582 H         1 UNK         0.0600 
    213 H213       -6.6625  -29.9495  -48.6678 H         1 UNK         0.0600 
    214 H214       -4.9524  -29.9125  -49.0646 H         1 UNK         0.0600 
    215 H215       -6.1079  -25.4438  -48.3962 H         1 UNK         0.3000 
    216 H216       -7.6030  -23.8642  -48.5110 H         1 UNK         0.0600 
    217 H217       -8.7223  -25.1352  -46.6651 H         1 UNK         0.0600 
    218 H218       -9.7516  -25.9413  -47.8485 H         1 UNK         0.0600 
    219 H219       -9.8634  -24.2033  -47.6175 H         1 UNK         0.0600 
    220 H220       -7.0383  -25.5073  -50.9961 H         1 UNK         0.3000 
    221 H221       -9.3194  -25.1515  -52.7352 H         1 UNK         0.0600 
    222 H222       -6.3432  -25.5120  -53.3859 H         1 UNK         0.0600 
    223 H223       -7.5031  -26.8237  -53.1733 H         1 UNK         0.0600 
    224 H224       -7.6756  -25.7036  -54.5147 H         1 UNK         0.0600 
    225 H225       -9.3025  -23.7246  -54.6204 H         1 UNK         0.3000 
    226 H226       -8.8702  -20.9593  -53.9948 H         1 UNK         0.0600 
    227 H227      -10.7427  -21.7573  -55.4341 H         1 UNK         0.0600 
    228 H228       -9.7306  -20.6329  -56.3246 H         1 UNK         0.0600 
    229 H229       -9.5949  -22.3596  -56.6308 H         1 UNK         0.0600 
    230 H230       -7.5787  -19.4625  -55.1414 H         1 UNK         0.3000 
    231 H231       -5.7446  -18.5424  -55.9275 H         1 UNK         0.0600 
    232 H232       -6.3961  -19.6882  -58.0603 H         1 UNK         0.0600 
    233 H233       -5.3320  -21.0346  -57.6553 H         1 UNK         0.0600 
    234 H234       -4.6642  -19.4342  -57.9348 H         1 UNK         0.0600 
    235 H235       -5.5478  -20.0896  -53.4782 H         1 UNK         0.3000 
    236 H236       -2.8862  -21.1937  -53.2696 H         1 UNK         0.0600 
    237 H237       -3.3967  -21.2083  -50.8435 H         1 UNK         0.0600 
    238 H238       -4.8282  -20.2178  -51.1056 H         1 UNK         0.0600 
    239 H239       -4.7515  -21.8561  -51.7540 H         1 UNK         0.0600 
    240 H240       -4.0247  -17.9629  -53.4624 H         1 UNK         0.3000 
    241 H241       -1.3891  -16.8756  -52.8479 H         1 UNK         0.0600 
    242 H242       -0.9284  -15.0766  -54.2526 H         1 UNK         0.3800 
    243 H243       -2.0678  -14.5603  -55.4641 H         1 UNK         0.3800 
    244 H244       -3.9253  -15.7728  -51.5213 H         1 UNK         0.0800 
    245 H245       -2.7000  -16.6814  -50.6905 H         1 UNK         0.0800 
    246 H246       -0.5480  -14.0225  -49.3084 H         1 UNK         0.0800 
    247 H247       -1.3384  -15.5661  -49.1475 H         1 UNK         0.0800 
@<TRIPOS>BOND
     1    1    2 1    
     2    1  127 1    
     3    1  128 1    
     4    1  129 1    
     5    2    3 2    
     6    2    4 am   BACKBONE|DICT|INTERRES
     7    4    5 1    
     8    4  130 1    
     9    5    6 1    
    10    5   65 1    
    11    5  131 1    
    12    6    7 1    
    13    6  132 1    
    14    6  133 1    
    15    7    8 1    
    16    8    9 1    
    17    8  134 1    
    18    8  135 1    
    19    9   10 ar   
    20    9   14 ar   
    21   10   11 ar   
    22   10  136 1    
    23   11   12 ar   
    24   11  126 1    
    25   12   13 ar   
    26   12  137 1    
    27   13   14 ar   
    28   13   15 1    
    29   14  138 1    
    30   15   16 1    
    31   15  139 1    
    32   15  140 1    
    33   16   17 1    
    34   17   18 1    
    35   17  141 1    
    36   17  142 1    
    37   18   19 1    
    38   18   67 1    
    39   18  143 1    
    40   19   20 am   BACKBONE|DICT|INTERRES
    41   19  144 1    
    42   20   21 2    
    43   20   22 1    
    44   22   23 1    
    45   22   24 1    
    46   22  145 1    
    47   23  146 1    
    48   23  147 1    
    49   23  148 1    
    50   24   25 am   BACKBONE|DICT|INTERRES
    51   24  149 1    
    52   25   26 2    
    53   25   27 1    
    54   27   28 1    
    55   27   29 1    
    56   27  150 1    
    57   28  151 1    
    58   28  152 1    
    59   28  153 1    
    60   29   30 am   BACKBONE|DICT|INTERRES
    61   29  154 1    
    62   30   31 2    
    63   30   32 1    
    64   32   33 1    
    65   32   34 1    
    66   32  155 1    
    67   33  156 1    
    68   33  157 1    
    69   33  158 1    
    70   34   35 am   BACKBONE|DICT|INTERRES
    71   34  159 1    
    72   35   36 2    
    73   35   37 1    
    74   37   38 1    
    75   37   39 1    
    76   37  160 1    
    77   38  161 1    
    78   38  162 1    
    79   38  163 1    
    80   39   40 am   BACKBONE|DICT|INTERRES
    81   39  164 1    
    82   40   41 2    
    83   40   42 1    
    84   42   43 1    
    85   42   44 1    
    86   42  165 1    
    87   43  166 1    
    88   43  167 1    
    89   43  168 1    
    90   44   45 am   BACKBONE|DICT|INTERRES
    91   44  169 1    
    92   45   46 2    
    93   45   47 1    
    94   47   48 1    
    95   47   49 1    
    96   47  170 1    
    97   48  171 1    
    98   48  172 1    
    99   48  173 1    
   100   49   50 am   BACKBONE|DICT|INTERRES
   101   49  174 1    
   102   50   51 2    
   103   50   52 1    
   104   52   53 1    
   105   52   54 1    
   106   52  175 1    
   107   53  176 1    
   108   53  177 1    
   109   53  178 1    
   110   54   55 am   BACKBONE|DICT|INTERRES
   111   54  179 1    
   112   55   56 2    
   113   55   57 1    
   114   57   58 1    
   115   57   59 1    
   116   57  180 1    
   117   58  181 1    
   118   58  182 1    
   119   58  183 1    
   120   59   60 am   BACKBONE|DICT|INTERRES
   121   59  184 1    
   122   60   61 2    
   123   60   62 1    
   124   62   63 1    
   125   62   64 1    
   126   62  185 1    
   127   63  186 1    
   128   63  187 1    
   129   63  188 1    
   130   64   65 am   BACKBONE|DICT|INTERRES
   131   64  189 1    
   132   65   66 2    
   133   67   68 2    
   134   67   69 am   BACKBONE|DICT|INTERRES
   135   69   70 1    
   136   69  190 1    
   137   70   71 1    
   138   70   72 1    
   139   70  191 1    
   140   71  192 1    
   141   71  193 1    
   142   71  194 1    
   143   72   73 2    
   144   72   74 am   BACKBONE|DICT|INTERRES
   145   74   75 1    
   146   74  195 1    
   147   75   76 1    
   148   75   77 1    
   149   75  196 1    
   150   76  197 1    
   151   76  198 1    
   152   76  199 1    
   153   77   78 2    
   154   77   79 am   BACKBONE|DICT|INTERRES
   155   79   80 1    
   156   79  200 1    
   157   80   81 1    
   158   80   82 1    
   159   80  201 1    
   160   81  202 1    
   161   81  203 1    
   162   81  204 1    
   163   82   83 2    
   164   82   84 am   BACKBONE|DICT|INTERRES
   165   84   85 1    
   166   84  205 1    
   167   85   86 1    
   168   85   87 1    
   169   85  206 1    
   170   86  207 1    
   171   86  208 1    
   172   86  209 1    
   173   87   88 2    
   174   87   89 am   BACKBONE|DICT|INTERRES
   175   89   90 1    
   176   89  210 1    
   177   90   91 1    
   178   90   92 1    
   179   90  211 1    
   180   91  212 1    
   181   91  213 1    
   182   91  214 1    
   183   92   93 2    
   184   92   94 am   BACKBONE|DICT|INTERRES
   185   94   95 1    
   186   94  215 1    
   187   95   96 1    
   188   95   97 1    
   189   95  216 1    
   190   96  217 1    
   191   96  218 1    
   192   96  219 1    
   193   97   98 2    
   194   97   99 am   BACKBONE|DICT|INTERRES
   195   99  100 1    
   196   99  220 1    
   197  100  101 1    
   198  100  102 1    
   199  100  221 1    
   200  101  222 1    
   201  101  223 1    
   202  101  224 1    
   203  102  103 2    
   204  102  104 am   BACKBONE|DICT|INTERRES
   205  104  105 1    
   206  104  225 1    
   207  105  106 1    
   208  105  107 1    
   209  105  226 1    
   210  106  227 1    
   211  106  228 1    
   212  106  229 1    
   213  107  108 2    
   214  107  109 am   BACKBONE|DICT|INTERRES
   215  109  110 1    
   216  109  230 1    
   217  110  111 1    
   218  110  112 1    
   219  110  231 1    
   220  111  232 1    
   221  111  233 1    
   222  111  234 1    
   223  112  113 2    
   224  112  114 am   BACKBONE|DICT|INTERRES
   225  114  115 1    
   226  114  235 1    
   227  115  116 1    
   228  115  117 1    
   229  115  236 1    
   230  116  237 1    
   231  116  238 1    
   232  116  239 1    
   233  117  118 2    
   234  117  119 am   BACKBONE|DICT|INTERRES
   235  119  120 1    
   236  119  240 1    
   237  120  121 1    
   238  120  124 1    
   239  120  241 1    
   240  121  122 am   BACKBONE|DICT|INTERRES
   241  121  123 2    
   242  122  242 1    
   243  122  243 1    
   244  124  125 1    
   245  124  244 1    
   246  124  245 1    
   247  125  126 1    
   248  126  246 1    
   249  126  247 1    
@<TRIPOS>SUBSTRUCTURE
     1 UNK         1 GROUP             0       ****    0 ROOT    
