@<TRIPOS>MOLECULE
3R540
247   249    1
SMALL
USER_CHARGES


@<TRIPOS>ATOM
      1 CA         -0.5566  -13.2821  -50.0247 C.3       0 UNK        -0.1800 
      2 C           0.8415  -13.2169  -49.4300 C.2       0 UNK         0.5000 
      3 O           1.0246  -13.5704  -48.2672 O.2       0 UNK        -0.5000 
      4 N           1.8259  -12.7599  -50.2132 N.am      1 UNK        -0.5000 
      5 CA          3.2508  -12.5962  -49.8764 C.3       1 UNK         0.1400 
      6 C6          4.0074  -13.9024  -49.4855 C.3       23 UNK        -0.0398 
      7 S7          3.5456  -15.3923  -50.4417 S.3       23 UNK        -0.2404 
      8 C8          2.9100  -16.4340  -49.0874 C.3       23 UNK        -0.0205 
      9 C9          2.0176  -17.5604  -49.5767 C.ar      23 UNK        -0.0193 
     10 C10         0.7174  -17.2818  -50.0041 C.ar      23 UNK        -0.1150 
     11 C11        -0.1427  -18.3168  -50.3772 C.ar      23 UNK        -0.0193 
     12 C12         0.3000  -19.6400  -50.3087 C.ar      23 UNK        -0.1150 
     13 C13         1.5987  -19.9322  -49.8821 C.ar      23 UNK        -0.0193 
     14 C14         2.4599  -18.8852  -49.5358 C.ar      23 UNK        -0.1150 
     15 C15         2.0468  -21.3836  -49.7581 C.3       23 UNK        -0.0205 
     16 S16         2.7074  -21.7962  -48.1057 S.3       23 UNK        -0.2404 
     17 C17         1.4025  -21.1863  -46.9817 C.3       23 UNK        -0.0398 
     18 CA          0.4800  -22.3036  -46.4483 C.3       11 UNK         0.1400 
     19 N          -0.1624  -21.9025  -45.1973 N.am      11 UNK        -0.5000 
     20 C          -0.8844  -22.7066  -44.4075 C.2       10 UNK         0.5000 
     21 O          -1.0428  -23.9086  -44.6142 O.2       10 UNK        -0.5000 
     22 CA         -1.5884  -22.0394  -43.2147 C.3       10 UNK         0.1400 
     23 CB         -0.6366  -21.9126  -42.0162 C.3       10 UNK        -0.1800 
     24 N          -2.1168  -20.7212  -43.5691 N.am      10 UNK        -0.5000 
     25 C          -3.1620  -20.5260  -44.3854 C.2       9 UNK         0.5000 
     26 O          -3.8152  -21.4405  -44.8881 O.2       9 UNK        -0.5000 
     27 CA         -3.5085  -19.0650  -44.7270 C.3       9 UNK         0.1400 
     28 CB         -4.3442  -18.4282  -43.6068 C.3       9 UNK        -0.1800 
     29 N          -2.3215  -18.2441  -44.9750 N.am      9 UNK        -0.5000 
     30 C          -1.4956  -18.4084  -46.0179 C.2       8 UNK         0.5000 
     31 O          -1.6533  -19.2652  -46.8848 O.2       8 UNK        -0.5000 
     32 CA         -0.2614  -17.4923  -46.0813 C.3       8 UNK         0.1400 
     33 CB         -0.6170  -16.1641  -46.7594 C.3       8 UNK        -0.1800 
     34 N           0.3518  -17.2134  -44.7803 N.am      8 UNK        -0.5000 
     35 C           0.8140  -18.1356  -43.9221 C.2       7 UNK         0.5000 
     36 O           0.6688  -19.3490  -44.0815 O.2       7 UNK        -0.5000 
     37 CA          1.5743  -17.5943  -42.6931 C.3       7 UNK         0.1400 
     38 CB          2.3256  -18.6896  -41.9091 C.3       7 UNK        -0.1800 
     39 N           2.4704  -16.4911  -43.0521 N.am      7 UNK        -0.5000 
     40 C           3.5016  -16.5204  -43.9115 C.2       6 UNK         0.5000 
     41 O           3.9331  -17.5471  -44.4364 O.2       6 UNK        -0.5000 
     42 CA          4.1419  -15.1682  -44.2799 C.3       6 UNK         0.1400 
     43 CB          3.8084  -14.8086  -45.7353 C.3       6 UNK        -0.1800 
     44 N           3.6890  -14.0791  -43.4128 N.am      6 UNK        -0.5000 
     45 C           4.3002  -13.7023  -42.2812 C.2       5 UNK         0.5000 
     46 O           5.3649  -14.1790  -41.8873 O.2       5 UNK        -0.5000 
     47 CA          3.5927  -12.6295  -41.4301 C.3       5 UNK         0.1400 
     48 CB          4.1694  -11.2359  -41.7182 C.3       5 UNK        -0.1800 
     49 N           2.1413  -12.6098  -41.6327 N.am      5 UNK        -0.5000 
     50 C           1.3069  -13.5470  -41.1581 C.2       4 UNK         0.5000 
     51 O           1.6767  -14.5087  -40.4852 O.2       4 UNK        -0.5000 
     52 CA         -0.1828  -13.4242  -41.5296 C.3       4 UNK         0.1400 
     53 CB         -0.9471  -12.6554  -40.4417 C.3       4 UNK        -0.1800 
     54 N          -0.4172  -12.7829  -42.8238 N.am      4 UNK        -0.5000 
     55 C          -0.0116  -13.2578  -44.0085 C.2       3 UNK         0.5000 
     56 O           0.6251  -14.3061  -44.1390 O.2       3 UNK        -0.5000 
     57 CA         -0.3557  -12.4245  -45.2585 C.3       3 UNK         0.1400 
     58 CB         -1.3076  -11.2361  -44.9948 C.3       3 UNK        -0.1800 
     59 N           0.8477  -11.9705  -45.9569 N.am      3 UNK        -0.5000 
     60 C           1.8372  -11.1994  -45.4761 C.2       2 UNK         0.5000 
     61 O           1.8635  -10.7806  -44.3177 O.2       2 UNK        -0.5000 
     62 CA          2.9897  -10.8424  -46.4416 C.3       2 UNK         0.1400 
     63 CB          4.3609  -10.8133  -45.7394 C.3       2 UNK        -0.1800 
     64 N           3.0224  -11.7526  -47.5861 N.am      2 UNK        -0.5000 
     65 C           3.4636  -11.4844  -48.8208 C.2       1 UNK         0.5000 
     66 O           3.9861  -10.4181  -49.1481 O.2       1 UNK        -0.5000 
     67 C          -0.5554  -22.7590  -47.4999 C.2       11 UNK         0.5000 
     68 O          -0.3768  -23.8152  -48.1040 O.2       11 UNK        -0.5000 
     69 N          -1.6448  -21.9928  -47.6595 N.am      12 UNK        -0.5000 
     70 CA         -2.7808  -22.3253  -48.5210 C.3       12 UNK         0.1400 
     71 CB         -3.7572  -21.1406  -48.5667 C.3       12 UNK        -0.1800 
     72 C          -3.5060  -23.6115  -48.0855 C.2       12 UNK         0.5000 
     73 O          -3.8487  -24.4298  -48.9382 O.2       12 UNK        -0.5000 
     74 N          -3.6899  -23.7868  -46.7677 N.am      13 UNK        -0.5000 
     75 CA         -4.2436  -24.9992  -46.1628 C.3       13 UNK         0.1400 
     76 CB         -4.4775  -24.7813  -44.6605 C.3       13 UNK        -0.1800 
     77 C          -3.3633  -26.2367  -46.4175 C.2       13 UNK         0.5000 
     78 O          -3.8840  -27.2744  -46.8286 O.2       13 UNK        -0.5000 
     79 N          -2.0458  -26.0897  -46.2136 N.am      14 UNK        -0.5000 
     80 CA         -1.0352  -27.1155  -46.4806 C.3       14 UNK         0.1400 
     81 CB          0.3292  -26.6447  -45.9552 C.3       14 UNK        -0.1800 
     82 C          -0.9447  -27.5003  -47.9690 C.2       14 UNK         0.5000 
     83 O          -0.7827  -28.6809  -48.2816 O.2       14 UNK        -0.5000 
     84 N          -1.1071  -26.5159  -48.8630 N.am      15 UNK        -0.5000 
     85 CA         -1.1831  -26.6688  -50.3175 C.3       15 UNK         0.1400 
     86 CB         -0.8618  -25.3142  -50.9763 C.3       15 UNK        -0.1800 
     87 C          -2.5406  -27.2441  -50.7827 C.2       15 UNK         0.5000 
     88 O          -3.1997  -26.6579  -51.6423 O.2       15 UNK        -0.5000 
     89 N          -2.9402  -28.3810  -50.1936 N.am      16 UNK        -0.5000 
     90 CA         -4.1402  -29.1781  -50.4813 C.3       16 UNK         0.1400 
     91 CB         -3.9922  -29.8704  -51.8522 C.3       16 UNK        -0.1800 
     92 C          -5.4701  -28.4004  -50.3568 C.2       16 UNK         0.5000 
     93 O          -6.4421  -28.7397  -51.0344 O.2       16 UNK        -0.5000 
     94 N          -5.4827  -27.3630  -49.5064 N.am      17 UNK        -0.5000 
     95 CA         -6.5658  -26.3943  -49.3040 C.3       17 UNK         0.1400 
     96 CB         -7.7870  -27.0673  -48.6437 C.3       17 UNK        -0.1800 
     97 C          -6.9285  -25.5850  -50.5707 C.2       17 UNK         0.5000 
     98 O          -8.0631  -25.1171  -50.6892 O.2       17 UNK        -0.5000 
     99 N          -5.9667  -25.4324  -51.4910 N.am      18 UNK        -0.5000 
    100 CA        -6.0886  -24.6518  -52.7178 C.3       18 UNK         0.1400 
    101 CB        -5.4646  -25.4507  -53.8806 C.3       18 UNK        -0.1800 
    102 C         -5.4710  -23.2544  -52.5051 C.2       18 UNK         0.5000 
    103 O         -5.7742  -22.6065  -51.5015 O.2       18 UNK        -0.5000 
    104 N         -4.6410  -22.8031  -53.4593 N.am      19 UNK        -0.5000 
    105 CA        -3.9598  -21.5020  -53.5011 C.3       19 UNK         0.1400 
    106 CB        -2.9174  -21.3948  -52.3703 C.3       19 UNK        -0.1800 
    107 C         -4.9445  -20.3121  -53.5335 C.2       19 UNK         0.5000 
    108 O         -4.7028  -19.2775  -52.9094 O.2       19 UNK        -0.5000 
    109 N         -6.0447  -20.4757  -54.2830 N.am      20 UNK        -0.5000 
    110 CA        -7.1553  -19.5221  -54.3987 C.3       20 UNK         0.1400 
    111 CB        -8.2768  -20.1713  -55.2244 C.3       20 UNK        -0.1800 
    112 C         -6.7740  -18.1480  -54.9897 C.2       20 UNK         0.5000 
    113 O         -7.5132  -17.1815  -54.8005 O.2       20 UNK        -0.5000 
    114 N         -5.6255  -18.0792  -55.6759 N.am      21 UNK        -0.5000 
    115 CA        -5.0268  -16.8527  -56.2023 C.3       21 UNK         0.1400 
    116 CB        -3.9214  -17.2363  -57.1986 C.3       21 UNK        -0.1800 
    117 C         -4.4639  -15.9157  -55.1118 C.2       21 UNK         0.5000 
    118 O         -4.2530  -14.7355  -55.3962 O.2       21 UNK        -0.5000 
    119 N         -4.2208  -16.4404  -53.9038 N.am      22 UNK        -0.5000 
    120 CA        -3.6534  -15.7044  -52.7627 C.3       22 UNK         0.1400 
    121 C         -4.3782  -15.9674  -51.4136 C.2       22 UNK         0.5000 
    122 N         -5.0676  -17.0854  -51.2246 N.am      22 UNK        -0.7600 
    123 O         -4.3268  -15.1263  -50.5208 O.2       22 UNK        -0.5000 
    124 C124       -2.1175  -15.8975  -52.6466 C.3       23 UNK        -0.0398 
    125 S125       -1.5894  -17.6472  -52.6234 S.3       23 UNK        -0.2404 
    126 C126       -1.5542  -18.0081  -50.8398 C.3       23 UNK        -0.0205 
    127 H127       -0.5360  -13.2125  -51.1124 H         1 UNK         0.0600 
    128 H128       -1.1649  -12.4649  -49.6379 H         1 UNK         0.0600 
    129 H129       -1.0373  -14.2209  -49.7498 H         1 UNK         0.0600 
    130 H130        1.5895  -12.4704  -51.1517 H         1 UNK         0.3000 
    131 H131        3.7101  -12.2369  -50.7987 H         1 UNK         0.0600 
    132 H132        5.0804  -13.7493  -49.6105 H         1 UNK         0.0800 
    133 H133        3.8761  -14.1245  -48.4287 H         1 UNK         0.0800 
    134 H134        3.7539  -16.8311  -48.5215 H         1 UNK         0.0800 
    135 H135        2.3323  -15.8301  -48.3877 H         1 UNK         0.0800 
    136 H136        0.3735  -16.2582  -50.0367 H         1 UNK         0.1150 
    137 H137       -0.3730  -20.4419  -50.5783 H         1 UNK         0.1150 
    138 H138        3.4606  -19.1078  -49.1930 H         1 UNK         0.1150 
    139 H139        1.2225  -22.0633  -49.9804 H         1 UNK         0.0800 
    140 H140        2.8165  -21.5801  -50.5053 H         1 UNK         0.0800 
    141 H141        0.8226  -20.3825  -47.4341 H         1 UNK         0.0800 
    142 H142        1.9283  -20.7202  -46.1470 H         1 UNK         0.0800 
    143 H143        1.1014  -23.1692  -46.2084 H         1 UNK         0.0600 
    144 H144       -0.0412  -20.9344  -44.9127 H         1 UNK         0.3000 
    145 H145       -2.4246  -22.6758  -42.9176 H         1 UNK         0.0600 
    146 H146       -1.1375  -21.4625  -41.1591 H         1 UNK         0.0600 
    147 H147       -0.2746  -22.8929  -41.7037 H         1 UNK         0.0600 
    148 H148        0.2356  -21.3040  -42.2545 H         1 UNK         0.0600 
    149 H149       -1.5920  -19.9204  -43.2494 H         1 UNK         0.3000 
    150 H150       -4.1104  -19.0722  -45.6383 H         1 UNK         0.0600 
    151 H151       -5.2446  -19.0125  -43.4121 H         1 UNK         0.0600 
    152 H152       -4.6638  -17.4217  -43.8773 H         1 UNK         0.0600 
    153 H153       -3.7860  -18.3638  -42.6719 H         1 UNK         0.0600 
    154 H154       -2.1122  -17.5204  -44.3037 H         1 UNK         0.3000 
    155 H155        0.4906  -17.9946  -46.6933 H         1 UNK         0.0600 
    156 H156        0.2669  -15.5367  -46.8567 H         1 UNK         0.0600 
    157 H157       -1.3619  -15.6067  -46.1908 H         1 UNK         0.0600 
    158 H158       -1.0174  -16.3258  -47.7609 H         1 UNK         0.0600 
    159 H159        0.5137  -16.2338  -44.5639 H         1 UNK         0.3000 
    160 H160        0.8204  -17.1709  -42.0281 H         1 UNK         0.0600 
    161 H161        3.0417  -19.2214  -42.5361 H         1 UNK         0.0600 
    162 H162        1.6303  -19.4282  -41.5099 H         1 UNK         0.0600 
    163 H163        2.8682  -18.2664  -41.0638 H         1 UNK         0.0600 
    164 H164        2.2016  -15.5863  -42.6927 H         1 UNK         0.3000 
    165 H165        5.2247  -15.2845  -44.1993 H         1 UNK         0.0600 
    166 H166        2.7391  -14.6511  -45.8829 H         1 UNK         0.0600 
    167 H167        4.3325  -13.9062  -46.0446 H         1 UNK         0.0600 
    168 H168        4.1200  -15.6051  -46.4111 H         1 UNK         0.0600 
    169 H169        2.7998  -13.6588  -43.6477 H         1 UNK         0.3000 
    170 H170        3.7890  -12.8620  -40.3812 H         1 UNK         0.0600 
    171 H171        5.2429  -11.2108  -41.5269 H         1 UNK         0.0600 
    172 H172        4.0159  -10.9428  -42.7557 H         1 UNK         0.0600 
    173 H173        3.7083  -10.4787  -41.0840 H         1 UNK         0.0600 
    174 H174        1.7715  -11.8677  -42.2142 H         1 UNK         0.3000 
    175 H175       -0.5902  -14.4360  -41.5832 H         1 UNK         0.0600 
    176 H176       -0.6027  -11.6236  -40.3608 H         1 UNK         0.0600 
    177 H177       -2.0173  -12.6378  -40.6485 H         1 UNK         0.0600 
    178 H178       -0.8141  -13.1236  -39.4654 H         1 UNK         0.0600 
    179 H179       -0.9139  -11.9041  -42.8072 H         1 UNK         0.3000 
    180 H180       -0.8643  -13.1060  -45.9416 H         1 UNK         0.0600 
    181 H181       -0.8666  -10.4891  -44.3339 H         1 UNK         0.0600 
    182 H182       -2.2439  -11.5712  -44.5465 H         1 UNK         0.0600 
    183 H183       -1.5651  -10.7346  -45.9278 H         1 UNK         0.0600 
    184 H184        0.9264  -12.3336  -46.9020 H         1 UNK         0.3000 
    185 H185        2.7737   -9.8380  -46.8108 H         1 UNK         0.0600 
    186 H186        5.1666  -10.6083  -46.4441 H         1 UNK         0.0600 
    187 H187        4.3917  -10.0286  -44.9831 H         1 UNK         0.0600 
    188 H188        4.5818  -11.7563  -45.2407 H         1 UNK         0.0600 
    189 H189        2.5410  -12.6369  -47.4605 H         1 UNK         0.3000 
    190 H190       -1.6963  -21.0994  -47.1752 H         1 UNK         0.3000 
    191 H191       -2.3936  -22.4889  -49.5282 H         1 UNK         0.0600 
    192 H192       -3.2743  -20.2466  -48.9601 H         1 UNK         0.0600 
    193 H193       -4.6093  -21.3609  -49.2111 H         1 UNK         0.0600 
    194 H194       -4.1472  -20.9006  -47.5775 H         1 UNK         0.0600 
    195 H195       -3.4296  -23.0387  -46.1339 H         1 UNK         0.3000 
    196 H196       -5.2167  -25.1819  -46.6187 H         1 UNK         0.0600 
    197 H197       -4.9336  -25.6620  -44.2069 H         1 UNK         0.0600 
    198 H198       -5.1487  -23.9405  -44.4843 H         1 UNK         0.0600 
    199 H199       -3.5485  -24.5841  -44.1273 H         1 UNK         0.0600 
    200 H200       -1.7062  -25.2106  -45.8312 H         1 UNK         0.3000 
    201 H201       -1.3209  -28.0115  -45.9260 H         1 UNK         0.0600 
    202 H202        0.2916  -26.4459  -44.8840 H         1 UNK         0.0600 
    203 H203        0.6598  -25.7326  -46.4525 H         1 UNK         0.0600 
    204 H204        1.0946  -27.4044  -46.1187 H         1 UNK         0.0600 
    205 H205       -1.1834  -25.5646  -48.5151 H         1 UNK         0.3000 
    206 H206       -0.4138  -27.3777  -50.6294 H         1 UNK         0.0600 
    207 H207        0.1170  -24.9468  -50.6675 H         1 UNK         0.0600 
    208 H208       -0.8481  -25.3981  -52.0636 H         1 UNK         0.0600 
    209 H209       -1.6010  -24.5566  -50.7139 H         1 UNK         0.0600 
    210 H210       -2.3257  -28.7558  -49.4767 H         1 UNK         0.3000 
    211 H211       -4.1763  -29.9570  -49.7186 H         1 UNK         0.0600 
    212 H212       -4.0066  -29.1490  -52.6701 H         1 UNK         0.0600 
    213 H213       -4.8023  -30.5795  -52.0258 H         1 UNK         0.0600 
    214 H214       -3.0580  -30.4285  -51.9136 H         1 UNK         0.0600 
    215 H215       -4.6363  -27.1773  -48.9820 H         1 UNK         0.3000 
    216 H216       -6.1844  -25.6600  -48.5975 H         1 UNK         0.0600 
    217 H217       -7.4976  -27.6115  -47.7446 H         1 UNK         0.0600 
    218 H218       -8.2780  -27.7688  -49.3185 H         1 UNK         0.0600 
    219 H219       -8.5299  -26.3263  -48.3465 H         1 UNK         0.0600 
    220 H220       -5.0477  -25.8231  -51.3060 H         1 UNK         0.3000 
    221 H221       -7.1420  -24.4962  -52.9584 H         1 UNK         0.0600 
    222 H222       -4.3877  -25.5741  -53.7616 H         1 UNK         0.0600 
    223 H223       -5.9021  -26.4474  -53.9449 H         1 UNK         0.0600 
    224 H224       -5.6447  -24.9638  -54.8397 H         1 UNK         0.0600 
    225 H225       -4.4563  -23.4143  -54.2424 H         1 UNK         0.3000 
    226 H226       -3.4175  -21.4725  -54.4471 H         1 UNK         0.0600 
    227 H227       -2.2872  -22.2829  -52.3217 H         1 UNK         0.0600 
    228 H228       -2.2605  -20.5406  -52.5293 H         1 UNK         0.0600 
    229 H229       -3.3933  -21.2651  -51.3996 H         1 UNK         0.0600 
    230 H230       -6.1596  -21.3533  -54.7681 H         1 UNK         0.3000 
    231 H231       -7.5350  -19.3402  -53.3912 H         1 UNK         0.0600 
    232 H232       -9.1387  -19.5075  -55.3056 H         1 UNK         0.0600 
    233 H233       -8.6243  -21.0952  -54.7616 H         1 UNK         0.0600 
    234 H234       -7.9460  -20.4049  -56.2371 H         1 UNK         0.0600 
    235 H235       -5.0896  -18.9269  -55.7858 H         1 UNK         0.3000 
    236 H236       -5.7984  -16.3001  -56.7423 H         1 UNK         0.0600 
    237 H237       -4.3167  -17.8426  -58.0139 H         1 UNK         0.0600 
    238 H238       -3.4713  -16.3486  -57.6450 H         1 UNK         0.0600 
    239 H239       -3.1229  -17.8006  -56.7148 H         1 UNK         0.0600 
    240 H240       -4.4119  -17.4219  -53.7409 H         1 UNK         0.3000 
    241 H241       -3.8168  -14.6390  -52.9361 H         1 UNK         0.0600 
    242 H242       -5.0237  -17.8541  -51.8905 H         1 UNK         0.3800 
    243 H243       -5.5411  -17.2219  -50.3469 H         1 UNK         0.3800 
    244 H244       -1.7174  -15.3767  -51.7768 H         1 UNK         0.0800 
    245 H245       -1.6379  -15.4296  -53.5071 H         1 UNK         0.0800 
    246 H246       -1.9577  -17.1778  -50.2594 H         1 UNK         0.0800 
    247 H247       -2.2114  -18.8555  -50.6423 H         1 UNK         0.0800 
@<TRIPOS>BOND
     1    1    2 1    
     2    1  127 1    
     3    1  128 1    
     4    1  129 1    
     5    2    3 2    
     6    2    4 am   BACKBONE|DICT|INTERRES
     7    4    5 1    
     8    4  130 1    
     9    5    6 1    
    10    5   65 1    
    11    5  131 1    
    12    6    7 1    
    13    6  132 1    
    14    6  133 1    
    15    7    8 1    
    16    8    9 1    
    17    8  134 1    
    18    8  135 1    
    19    9   10 ar   
    20    9   14 ar   
    21   10   11 ar   
    22   10  136 1    
    23   11   12 ar   
    24   11  126 1    
    25   12   13 ar   
    26   12  137 1    
    27   13   14 ar   
    28   13   15 1    
    29   14  138 1    
    30   15   16 1    
    31   15  139 1    
    32   15  140 1    
    33   16   17 1    
    34   17   18 1    
    35   17  141 1    
    36   17  142 1    
    37   18   19 1    
    38   18   67 1    
    39   18  143 1    
    40   19   20 am   BACKBONE|DICT|INTERRES
    41   19  144 1    
    42   20   21 2    
    43   20   22 1    
    44   22   23 1    
    45   22   24 1    
    46   22  145 1    
    47   23  146 1    
    48   23  147 1    
    49   23  148 1    
    50   24   25 am   BACKBONE|DICT|INTERRES
    51   24  149 1    
    52   25   26 2    
    53   25   27 1    
    54   27   28 1    
    55   27   29 1    
    56   27  150 1    
    57   28  151 1    
    58   28  152 1    
    59   28  153 1    
    60   29   30 am   BACKBONE|DICT|INTERRES
    61   29  154 1    
    62   30   31 2    
    63   30   32 1    
    64   32   33 1    
    65   32   34 1    
    66   32  155 1    
    67   33  156 1    
    68   33  157 1    
    69   33  158 1    
    70   34   35 am   BACKBONE|DICT|INTERRES
    71   34  159 1    
    72   35   36 2    
    73   35   37 1    
    74   37   38 1    
    75   37   39 1    
    76   37  160 1    
    77   38  161 1    
    78   38  162 1    
    79   38  163 1    
    80   39   40 am   BACKBONE|DICT|INTERRES
    81   39  164 1    
    82   40   41 2    
    83   40   42 1    
    84   42   43 1    
    85   42   44 1    
    86   42  165 1    
    87   43  166 1    
    88   43  167 1    
    89   43  168 1    
    90   44   45 am   BACKBONE|DICT|INTERRES
    91   44  169 1    
    92   45   46 2    
    93   45   47 1    
    94   47   48 1    
    95   47   49 1    
    96   47  170 1    
    97   48  171 1    
    98   48  172 1    
    99   48  173 1    
   100   49   50 am   BACKBONE|DICT|INTERRES
   101   49  174 1    
   102   50   51 2    
   103   50   52 1    
   104   52   53 1    
   105   52   54 1    
   106   52  175 1    
   107   53  176 1    
   108   53  177 1    
   109   53  178 1    
   110   54   55 am   BACKBONE|DICT|INTERRES
   111   54  179 1    
   112   55   56 2    
   113   55   57 1    
   114   57   58 1    
   115   57   59 1    
   116   57  180 1    
   117   58  181 1    
   118   58  182 1    
   119   58  183 1    
   120   59   60 am   BACKBONE|DICT|INTERRES
   121   59  184 1    
   122   60   61 2    
   123   60   62 1    
   124   62   63 1    
   125   62   64 1    
   126   62  185 1    
   127   63  186 1    
   128   63  187 1    
   129   63  188 1    
   130   64   65 am   BACKBONE|DICT|INTERRES
   131   64  189 1    
   132   65   66 2    
   133   67   68 2    
   134   67   69 am   BACKBONE|DICT|INTERRES
   135   69   70 1    
   136   69  190 1    
   137   70   71 1    
   138   70   72 1    
   139   70  191 1    
   140   71  192 1    
   141   71  193 1    
   142   71  194 1    
   143   72   73 2    
   144   72   74 am   BACKBONE|DICT|INTERRES
   145   74   75 1    
   146   74  195 1    
   147   75   76 1    
   148   75   77 1    
   149   75  196 1    
   150   76  197 1    
   151   76  198 1    
   152   76  199 1    
   153   77   78 2    
   154   77   79 am   BACKBONE|DICT|INTERRES
   155   79   80 1    
   156   79  200 1    
   157   80   81 1    
   158   80   82 1    
   159   80  201 1    
   160   81  202 1    
   161   81  203 1    
   162   81  204 1    
   163   82   83 2    
   164   82   84 am   BACKBONE|DICT|INTERRES
   165   84   85 1    
   166   84  205 1    
   167   85   86 1    
   168   85   87 1    
   169   85  206 1    
   170   86  207 1    
   171   86  208 1    
   172   86  209 1    
   173   87   88 2    
   174   87   89 am   BACKBONE|DICT|INTERRES
   175   89   90 1    
   176   89  210 1    
   177   90   91 1    
   178   90   92 1    
   179   90  211 1    
   180   91  212 1    
   181   91  213 1    
   182   91  214 1    
   183   92   93 2    
   184   92   94 am   BACKBONE|DICT|INTERRES
   185   94   95 1    
   186   94  215 1    
   187   95   96 1    
   188   95   97 1    
   189   95  216 1    
   190   96  217 1    
   191   96  218 1    
   192   96  219 1    
   193   97   98 2    
   194   97   99 am   BACKBONE|DICT|INTERRES
   195   99  100 1    
   196   99  220 1    
   197  100  101 1    
   198  100  102 1    
   199  100  221 1    
   200  101  222 1    
   201  101  223 1    
   202  101  224 1    
   203  102  103 2    
   204  102  104 am   BACKBONE|DICT|INTERRES
   205  104  105 1    
   206  104  225 1    
   207  105  106 1    
   208  105  107 1    
   209  105  226 1    
   210  106  227 1    
   211  106  228 1    
   212  106  229 1    
   213  107  108 2    
   214  107  109 am   BACKBONE|DICT|INTERRES
   215  109  110 1    
   216  109  230 1    
   217  110  111 1    
   218  110  112 1    
   219  110  231 1    
   220  111  232 1    
   221  111  233 1    
   222  111  234 1    
   223  112  113 2    
   224  112  114 am   BACKBONE|DICT|INTERRES
   225  114  115 1    
   226  114  235 1    
   227  115  116 1    
   228  115  117 1    
   229  115  236 1    
   230  116  237 1    
   231  116  238 1    
   232  116  239 1    
   233  117  118 2    
   234  117  119 am   BACKBONE|DICT|INTERRES
   235  119  120 1    
   236  119  240 1    
   237  120  121 1    
   238  120  124 1    
   239  120  241 1    
   240  121  122 am   BACKBONE|DICT|INTERRES
   241  121  123 2    
   242  122  242 1    
   243  122  243 1    
   244  124  125 1    
   245  124  244 1    
   246  124  245 1    
   247  125  126 1    
   248  126  246 1    
   249  126  247 1    
@<TRIPOS>SUBSTRUCTURE
     1 UNK         1 GROUP             0       ****    0 ROOT    
