@<TRIPOS>MOLECULE
3R540
247   249    1
SMALL
USER_CHARGES


@<TRIPOS>ATOM
      1 CA         -2.1486   -8.1268  -46.5916 C.3       0 UNK        -0.1800 
      2 C          -1.8020   -9.6061  -46.4964 C.2       0 UNK         0.5000 
      3 O          -1.8116  -10.1641  -45.3991 O.2       0 UNK        -0.5000 
      4 N          -1.5023  -10.2364  -47.6414 N.am      1 UNK        -0.5000 
      5 CA         -1.0857  -11.6381  -47.7838 C.3       1 UNK         0.1400 
      6 C6         -2.1859  -12.6335  -47.3015 C.3       23 UNK        -0.0398 
      7 S7         -2.1373  -14.3653  -47.9039 S.3       23 UNK        -0.2404 
      8 C8         -1.3072  -14.3157  -49.5263 C.3       23 UNK        -0.0205 
      9 C9         -1.1749  -15.7217  -50.0866 C.ar      23 UNK        -0.0193 
     10 C10        -2.0734  -16.1956  -51.0480 C.ar      23 UNK        -0.1150 
     11 C11        -1.9787  -17.5087  -51.5207 C.ar      23 UNK        -0.0193 
     12 C12        -0.9758  -18.3436  -51.0203 C.ar      23 UNK        -0.1150 
     13 C13        -0.0678  -17.8813  -50.0648 C.ar      23 UNK        -0.0193 
     14 C14        -0.1658  -16.5642  -49.6119 C.ar      23 UNK        -0.1150 
     15 C15         0.9983  -18.8163  -49.5057 C.3       23 UNK        -0.0205 
     16 S16         0.8346  -19.0799  -47.7075 S.3       23 UNK        -0.2404 
     17 C17        -0.8783  -19.6914  -47.5503 C.3       23 UNK        -0.0398 
     18 CA         -0.9772  -21.1263  -46.9842 C.3       11 UNK         0.1400 
     19 N          -0.3306  -21.2837  -45.6725 N.am      11 UNK        -0.5000 
     20 C          -0.2553  -22.4324  -44.9795 C.2       10 UNK         0.5000 
     21 O          -0.7001  -23.5062  -45.3868 O.2       10 UNK        -0.5000 
     22 CA          0.3542  -22.3601  -43.5711 C.3       10 UNK         0.1400 
     23 CB          1.8888  -22.4007  -43.6281 C.3       10 UNK        -0.1800 
     24 N          -0.0988  -21.1557  -42.8757 N.am      10 UNK        -0.5000 
     25 C          -1.2937  -21.0467  -42.2751 C.2       9 UNK         0.5000 
     26 O          -2.0758  -21.9884  -42.1445 O.2       9 UNK        -0.5000 
     27 CA         -1.7047  -19.6556  -41.7522 C.3       9 UNK         0.1400 
     28 CB         -1.3651  -19.5196  -40.2608 C.3       9 UNK        -0.1800 
     29 N          -1.0884  -18.5556  -42.4968 N.am      9 UNK        -0.5000 
     30 C          -1.3871  -18.2463  -43.7684 C.2       8 UNK         0.5000 
     31 O          -2.2559  -18.8292  -44.4169 O.2       8 UNK        -0.5000 
     32 CA         -0.5487  -17.1452  -44.4543 C.3       8 UNK         0.1400 
     33 CB         -1.2584  -15.7874  -44.3484 C.3       8 UNK        -0.1800 
     34 N           0.8151  -17.0181  -43.9357 N.am      8 UNK        -0.5000 
     35 C           1.7175  -18.0049  -43.8503 C.2       7 UNK         0.5000 
     36 O           1.5201  -19.1404  -44.2825 O.2       7 UNK        -0.5000 
     37 CA          3.0182  -17.7077  -43.0768 C.3       7 UNK         0.1400 
     38 CB          4.1670  -17.3608  -44.0330 C.3       7 UNK        -0.1800 
     39 N           2.9011  -16.6553  -42.0611 N.am      7 UNK        -0.5000 
     40 C           2.0490  -16.6621  -41.0233 C.2       6 UNK         0.5000 
     41 O           1.2182  -17.5532  -40.8389 O.2       6 UNK        -0.5000 
     42 CA          2.1283  -15.4720  -40.0405 C.3       6 UNK         0.1400 
     43 CB          1.5125  -15.7902  -38.6624 C.3       6 UNK        -0.1800 
     44 N           3.4820  -14.9287  -39.8910 N.am      6 UNK        -0.5000 
     45 C           4.5871  -15.5828  -39.4953 C.2       5 UNK         0.5000 
     46 O           4.5821  -16.7453  -39.0872 O.2       5 UNK        -0.5000 
     47 CA          5.9271  -14.8131  -39.5807 C.3       5 UNK         0.1400 
     48 CB          7.1068  -15.7355  -39.9538 C.3       5 UNK        -0.1800 
     49 N           5.8930  -13.6417  -40.4685 N.am      5 UNK        -0.5000 
     50 C           5.6166  -13.6266  -41.7806 C.2       4 UNK         0.5000 
     51 O           5.3655  -14.6306  -42.4503 O.2       4 UNK        -0.5000 
     52 CA          5.5315  -12.2364  -42.4357 C.3       4 UNK         0.1400 
     53 CB          6.5132  -12.1206  -43.6121 C.3       4 UNK        -0.1800 
     54 N           4.1776  -11.9534  -42.9124 N.am      4 UNK        -0.5000 
     55 C           3.0624  -11.9499  -42.1663 C.2       3 UNK         0.5000 
     56 O           3.0515  -12.1340  -40.9480 O.2       3 UNK        -0.5000 
     57 CA          1.7309  -11.7199  -42.9074 C.3       3 UNK         0.1400 
     58 CB          1.3162  -10.2431  -42.8311 C.3       3 UNK        -0.1800 
     59 N           1.7737  -12.1293  -44.3122 N.am      3 UNK        -0.5000 
     60 C           1.8657  -13.3944  -44.7384 C.2       2 UNK         0.5000 
     61 O           1.8927  -14.3642  -43.9797 O.2       2 UNK        -0.5000 
     62 CA          1.8951  -13.5884  -46.2675 C.3       2 UNK         0.1400 
     63 CB          2.1618  -15.0420  -46.6928 C.3       2 UNK        -0.1800 
     64 N           0.6406  -13.1472  -46.8736 N.am      2 UNK        -0.5000 
     65 C           0.3112  -11.8815  -47.1547 C.2       1 UNK         0.5000 
     66 O           1.0777  -10.9343  -46.9539 O.2       1 UNK        -0.5000 
     67 C          -2.4559  -21.5658  -46.9582 C.2       11 UNK         0.5000 
     68 O          -2.9036  -22.2403  -47.8849 O.2       11 UNK        -0.5000 
     69 N          -3.1594  -21.2432  -45.8639 N.am      12 UNK        -0.5000 
     70 CA         -4.5429  -21.6349  -45.5825 C.3       12 UNK         0.1400 
     71 CB         -4.9880  -20.9631  -44.2741 C.3       12 UNK        -0.1800 
     72 C          -4.7975  -23.1584  -45.5248 C.2       12 UNK         0.5000 
     73 O          -5.9595  -23.5642  -45.5643 O.2       12 UNK        -0.5000 
     74 N          -3.7338  -23.9688  -45.4480 N.am      13 UNK        -0.5000 
     75 CA         -3.7807  -25.4218  -45.5735 C.3       13 UNK         0.1400 
     76 CB         -3.1088  -26.0583  -44.3455 C.3       13 UNK        -0.1800 
     77 C          -3.0937  -25.8751  -46.8731 C.2       13 UNK         0.5000 
     78 O          -3.6974  -26.6126  -47.6525 O.2       13 UNK        -0.5000 
     79 N          -1.8396  -25.4472  -47.0750 N.am      14 UNK        -0.5000 
     80 CA         -0.9551  -25.9427  -48.1295 C.3       14 UNK         0.1400 
     81 CB          0.4970  -25.5828  -47.7769 C.3       14 UNK        -0.1800 
     82 C          -1.3108  -25.4288  -49.5339 C.2       14 UNK         0.5000 
     83 O          -1.3596  -26.2207  -50.4755 O.2       14 UNK        -0.5000 
     84 N          -1.5399  -24.1158  -49.6550 N.am      15 UNK        -0.5000 
     85 CA         -1.8502  -23.4538  -50.9237 C.3       15 UNK         0.1400 
     86 CB         -1.3859  -21.9934  -50.8691 C.3       15 UNK        -0.1800 
     87 C          -3.3471  -23.5296  -51.2549 C.2       15 UNK         0.5000 
     88 O          -3.7072  -23.5587  -52.4304 O.2       15 UNK        -0.5000 
     89 N          -4.1905  -23.5992  -50.2151 N.am      16 UNK        -0.5000 
     90 CA         -5.6490  -23.7108  -50.2942 C.3       16 UNK         0.1400 
     91 CB         -6.2256  -23.6707  -48.8743 C.3       16 UNK        -0.1800 
     92 C          -6.1603  -24.9546  -51.0505 C.2       16 UNK         0.5000 
     93 O          -7.2930  -24.9438  -51.5327 O.2       16 UNK        -0.5000 
     94 N          -5.3105  -25.9832  -51.1806 N.am      17 UNK        -0.5000 
     95 CA         -5.5378  -27.1765  -51.9983 C.3       17 UNK         0.1400 
     96 CB         -4.3993  -28.1739  -51.7354 C.3       17 UNK        -0.1800 
     97 C          -5.6608  -26.8835  -53.5106 C.2       17 UNK         0.5000 
     98 O          -6.2656  -27.6801  -54.2294 O.2       17 UNK        -0.5000 
     99 N          -5.1083  -25.7510  -53.9635 N.am      18 UNK        -0.5000 
    100 CA        -5.2038  -25.2428  -55.3281 C.3       18 UNK         0.1400 
    101 CB        -4.0153  -25.7562  -56.1621 C.3       18 UNK        -0.1800 
    102 C         -5.2865  -23.7106  -55.2593 C.2       18 UNK         0.5000 
    103 O         -4.4615  -23.0166  -55.8582 O.2       18 UNK        -0.5000 
    104 N         -6.2606  -23.2166  -54.4789 N.am      19 UNK        -0.5000 
    105 CA        -6.4208  -21.8196  -54.0571 C.3       19 UNK         0.1400 
    106 CB        -7.7021  -21.6937  -53.2179 C.3       19 UNK        -0.1800 
    107 C         -6.4484  -20.7835  -55.1952 C.2       19 UNK         0.5000 
    108 O         -5.9629  -19.6690  -55.0059 O.2       19 UNK        -0.5000 
    109 N         -6.9901  -21.1733  -56.3570 N.am      20 UNK        -0.5000 
    110 CA        -7.0735  -20.3440  -57.5619 C.3       20 UNK         0.1400 
    111 CB        -7.9750  -21.0473  -58.5881 C.3       20 UNK        -0.1800 
    112 C         -5.7019  -20.0162  -58.1864 C.2       20 UNK         0.5000 
    113 O         -5.5709  -18.9810  -58.8408 O.2       20 UNK        -0.5000 
    114 N         -4.7142  -20.8948  -57.9731 N.am      21 UNK        -0.5000 
    115 CA        -3.3362  -20.7459  -58.4438 C.3       21 UNK         0.1400 
    116 CB        -2.9420  -22.0400  -59.1757 C.3       21 UNK        -0.1800 
    117 C         -2.3538  -20.4669  -57.2893 C.2       21 UNK         0.5000 
    118 O         -1.1733  -20.2339  -57.5531 O.2       21 UNK        -0.5000 
    119 N         -2.8406  -20.5291  -56.0419 N.am      22 UNK        -0.5000 
    120 CA        -2.0517  -20.5684  -54.7995 C.3       22 UNK         0.1400 
    121 C         -1.1379  -21.8290  -54.7060 C.2       22 UNK         0.5000 
    122 N         -1.5963  -22.9807  -55.1803 N.am      22 UNK        -0.7600 
    123 O         -0.0221  -21.7765  -54.1958 O.2       22 UNK        -0.5000 
    124 C124       -1.3131  -19.2357  -54.4845 C.3       23 UNK        -0.0398 
    125 S125       -2.4554  -17.8284  -54.2572 S.3       23 UNK        -0.2404 
    126 C126       -2.9919  -18.0402  -52.5268 C.3       23 UNK        -0.0205 
    127 H127       -2.1090   -7.7654  -47.6195 H         1 UNK         0.0600 
    128 H128       -1.4484   -7.5395  -45.9976 H         1 UNK         0.0600 
    129 H129       -3.1536   -7.9515  -46.2080 H         1 UNK         0.0600 
    130 H130       -1.4883   -9.6998  -48.4976 H         1 UNK         0.3000 
    131 H131       -0.9556  -11.7577  -48.8581 H         1 UNK         0.0600 
    132 H132       -3.1614  -12.2479  -47.6010 H         1 UNK         0.0800 
    133 H133       -2.2169  -12.6645  -46.2111 H         1 UNK         0.0800 
    134 H134       -0.3108  -13.8822  -49.4408 H         1 UNK         0.0800 
    135 H135       -1.8743  -13.6814  -50.2095 H         1 UNK         0.0800 
    136 H136       -2.8595  -15.5497  -51.4135 H         1 UNK         0.1150 
    137 H137       -0.9082  -19.3625  -51.3641 H         1 UNK         0.1150 
    138 H138        0.5225  -16.2076  -48.8605 H         1 UNK         0.1150 
    139 H139        0.9695  -19.7847  -50.0070 H         1 UNK         0.0800 
    140 H140        1.9826  -18.3938  -49.7112 H         1 UNK         0.0800 
    141 H141       -1.3653  -19.6508  -48.5245 H         1 UNK         0.0800 
    142 H142       -1.4290  -18.9896  -46.9247 H         1 UNK         0.0800 
    143 H143       -0.4556  -21.7934  -47.6734 H         1 UNK         0.0600 
    144 H144        0.1041  -20.4555  -45.2822 H         1 UNK         0.3000 
    145 H145        0.0209  -23.2386  -43.0143 H         1 UNK         0.0600 
    146 H146        2.3231  -22.3206  -42.6315 H         1 UNK         0.0600 
    147 H147        2.3003  -21.5981  -44.2395 H         1 UNK         0.0600 
    148 H148        2.2325  -23.3422  -44.0581 H         1 UNK         0.0600 
    149 H149        0.4686  -20.3252  -43.0012 H         1 UNK         0.3000 
    150 H150       -2.7880  -19.5695  -41.8615 H         1 UNK         0.0600 
    151 H151       -1.8859  -20.2761  -39.6725 H         1 UNK         0.0600 
    152 H152       -1.6615  -18.5445  -39.8738 H         1 UNK         0.0600 
    153 H153       -0.2969  -19.6427  -40.0787 H         1 UNK         0.0600 
    154 H154       -0.3339  -18.0616  -42.0295 H         1 UNK         0.3000 
    155 H155       -0.4681  -17.4016  -45.5106 H         1 UNK         0.0600 
    156 H156       -2.2792  -15.8481  -44.7284 H         1 UNK         0.0600 
    157 H157       -0.7444  -15.0258  -44.9332 H         1 UNK         0.0600 
    158 H158       -1.3093  -15.4405  -43.3157 H         1 UNK         0.0600 
    159 H159        1.1032  -16.0933  -43.6282 H         1 UNK         0.3000 
    160 H160        3.2846  -18.6288  -42.5550 H         1 UNK         0.0600 
    161 H161        4.0468  -16.3633  -44.4532 H         1 UNK         0.0600 
    162 H162        4.2256  -18.0692  -44.8605 H         1 UNK         0.0600 
    163 H163        5.1257  -17.3840  -43.5145 H         1 UNK         0.0600 
    164 H164        3.5432  -15.8766  -42.1554 H         1 UNK         0.3000 
    165 H165        1.5334  -14.6761  -40.4906 H         1 UNK         0.0600 
    166 H166        1.5676  -14.9283  -37.9976 H         1 UNK         0.0600 
    167 H167        0.4596  -16.0587  -38.7564 H         1 UNK         0.0600 
    168 H168        2.0192  -16.6237  -38.1752 H         1 UNK         0.0600 
    169 H169        3.5887  -13.9675  -40.1994 H         1 UNK         0.3000 
    170 H170        6.1142  -14.4280  -38.5774 H         1 UNK         0.0600 
    171 H171        6.9517  -16.2205  -40.9181 H         1 UNK         0.0600 
    172 H172        8.0424  -15.1787  -40.0047 H         1 UNK         0.0600 
    173 H173        7.2408  -16.5225  -39.2109 H         1 UNK         0.0600 
    174 H174        6.0389  -12.7542  -40.0069 H         1 UNK         0.3000 
    175 H175        5.7915  -11.4748  -41.6977 H         1 UNK         0.0600 
    176 H176        6.2773  -12.8310  -44.4057 H         1 UNK         0.0600 
    177 H177        6.4983  -11.1191  -44.0425 H         1 UNK         0.0600 
    178 H178        7.5354  -12.3193  -43.2873 H         1 UNK         0.0600 
    179 H179        4.0743  -11.8165  -43.9063 H         1 UNK         0.3000 
    180 H180        0.9675  -12.3164  -42.4034 H         1 UNK         0.0600 
    181 H181        0.3408  -10.0839  -43.2920 H         1 UNK         0.0600 
    182 H182        2.0351   -9.5965  -43.3359 H         1 UNK         0.0600 
    183 H183        1.2441   -9.9100  -41.7949 H         1 UNK         0.0600 
    184 H184        1.6963  -11.3980  -45.0107 H         1 UNK         0.3000 
    185 H185        2.7153  -12.9803  -46.6548 H         1 UNK         0.0600 
    186 H186        1.3595  -15.7132  -46.3869 H         1 UNK         0.0600 
    187 H187        2.2675  -15.1164  -47.7746 H         1 UNK         0.0600 
    188 H188        3.0901  -15.4117  -46.2608 H         1 UNK         0.0600 
    189 H189       -0.0515  -13.8661  -47.0394 H         1 UNK         0.3000 
    190 H190       -2.7228  -20.6338  -45.1794 H         1 UNK         0.3000 
    191 H191       -5.1599  -21.2419  -46.3928 H         1 UNK         0.0600 
    192 H192       -4.3934  -21.3047  -43.4268 H         1 UNK         0.0600 
    193 H193       -6.0326  -21.1859  -44.0530 H         1 UNK         0.0600 
    194 H194       -4.8946  -19.8786  -44.3343 H         1 UNK         0.0600 
    195 H195       -2.8114  -23.5521  -45.4227 H         1 UNK         0.3000 
    196 H196       -4.8130  -25.7757  -45.6096 H         1 UNK         0.0600 
    197 H197       -3.6427  -25.7996  -43.4310 H         1 UNK         0.0600 
    198 H198       -2.0750  -25.7304  -44.2296 H         1 UNK         0.0600 
    199 H199       -3.1034  -27.1462  -44.4226 H         1 UNK         0.0600 
    200 H200       -1.4153  -24.8172  -46.3972 H         1 UNK         0.3000 
    201 H201       -1.0320  -27.0320  -48.1492 H         1 UNK         0.0600 
    202 H202        0.7885  -26.0158  -46.8198 H         1 UNK         0.0600 
    203 H203        0.6419  -24.5036  -47.7117 H         1 UNK         0.0600 
    204 H204        1.1887  -25.9627  -48.5299 H         1 UNK         0.0600 
    205 H205       -1.5878  -23.5448  -48.8212 H         1 UNK         0.3000 
    206 H206       -1.3047  -23.9464  -51.7319 H         1 UNK         0.0600 
    207 H207       -0.3222  -21.9229  -50.6423 H         1 UNK         0.0600 
    208 H208       -1.5476  -21.5100  -51.8310 H         1 UNK         0.0600 
    209 H209       -1.9328  -21.4151  -50.1263 H         1 UNK         0.0600 
    210 H210       -3.7959  -23.4963  -49.2872 H         1 UNK         0.3000 
    211 H211       -6.0073  -22.8325  -50.8323 H         1 UNK         0.0600 
    212 H212       -5.8592  -24.5020  -48.2705 H         1 UNK         0.0600 
    213 H213       -7.3147  -23.7286  -48.8883 H         1 UNK         0.0600 
    214 H214       -5.9578  -22.7426  -48.3697 H         1 UNK         0.0600 
    215 H215       -4.4050  -25.9061  -50.7400 H         1 UNK         0.3000 
    216 H216       -6.4765  -27.6305  -51.6745 H         1 UNK         0.0600 
    217 H217       -4.5465  -29.0949  -52.3009 H         1 UNK         0.0600 
    218 H218       -4.3474  -28.4449  -50.6806 H         1 UNK         0.0600 
    219 H219       -3.4310  -27.7618  -52.0231 H         1 UNK         0.0600 
    220 H220       -4.6422  -25.1298  -53.3075 H         1 UNK         0.3000 
    221 H221       -6.1300  -25.5871  -55.7926 H         1 UNK         0.0600 
    222 H222       -3.0613  -25.4635  -55.7232 H         1 UNK         0.0600 
    223 H223       -4.0281  -26.8437  -56.2351 H         1 UNK         0.0600 
    224 H224       -4.0485  -25.3620  -57.1785 H         1 UNK         0.0600 
    225 H225       -6.8738  -23.8800  -54.0261 H         1 UNK         0.3000 
    226 H226       -5.5670  -21.5802  -53.4198 H         1 UNK         0.0600 
    227 H227       -7.6914  -22.3638  -52.3603 H         1 UNK         0.0600 
    228 H228       -7.8198  -20.6797  -52.8333 H         1 UNK         0.0600 
    229 H229       -8.5904  -21.9261  -53.8068 H         1 UNK         0.0600 
    230 H230       -7.3594  -22.1106  -56.4219 H         1 UNK         0.3000 
    231 H231       -7.5426  -19.3971  -57.2865 H         1 UNK         0.0600 
    232 H232       -8.0836  -20.4446  -59.4909 H         1 UNK         0.0600 
    233 H233       -8.9754  -21.2126  -58.1876 H         1 UNK         0.0600 
    234 H234       -7.5670  -22.0140  -58.8860 H         1 UNK         0.0600 
    235 H235       -4.8994  -21.7117  -57.4011 H         1 UNK         0.3000 
    236 H236       -3.2536  -19.9151  -59.1473 H         1 UNK         0.0600 
    237 H237       -2.9783  -22.9038  -58.5100 H         1 UNK         0.0600 
    238 H238       -3.6084  -22.2359  -60.0158 H         1 UNK         0.0600 
    239 H239       -1.9289  -21.9742  -59.5744 H         1 UNK         0.0600 
    240 H240       -3.8243  -20.7283  -55.9346 H         1 UNK         0.3000 
    241 H241       -2.7815  -20.7225  -54.0046 H         1 UNK         0.0600 
    242 H242       -1.0207  -23.8048  -55.1296 H         1 UNK         0.3800 
    243 H243       -2.5413  -23.0373  -55.5466 H         1 UNK         0.3800 
    244 H244       -0.6966  -19.3310  -53.5927 H         1 UNK         0.0800 
    245 H245       -0.6190  -18.9869  -55.2876 H         1 UNK         0.0800 
    246 H246       -3.2063  -19.0907  -52.3270 H         1 UNK         0.0800 
    247 H247       -3.9404  -17.5169  -52.3973 H         1 UNK         0.0800 
@<TRIPOS>BOND
     1    1    2 1    
     2    1  127 1    
     3    1  128 1    
     4    1  129 1    
     5    2    3 2    
     6    2    4 am   BACKBONE|DICT|INTERRES
     7    4    5 1    
     8    4  130 1    
     9    5    6 1    
    10    5   65 1    
    11    5  131 1    
    12    6    7 1    
    13    6  132 1    
    14    6  133 1    
    15    7    8 1    
    16    8    9 1    
    17    8  134 1    
    18    8  135 1    
    19    9   10 ar   
    20    9   14 ar   
    21   10   11 ar   
    22   10  136 1    
    23   11   12 ar   
    24   11  126 1    
    25   12   13 ar   
    26   12  137 1    
    27   13   14 ar   
    28   13   15 1    
    29   14  138 1    
    30   15   16 1    
    31   15  139 1    
    32   15  140 1    
    33   16   17 1    
    34   17   18 1    
    35   17  141 1    
    36   17  142 1    
    37   18   19 1    
    38   18   67 1    
    39   18  143 1    
    40   19   20 am   BACKBONE|DICT|INTERRES
    41   19  144 1    
    42   20   21 2    
    43   20   22 1    
    44   22   23 1    
    45   22   24 1    
    46   22  145 1    
    47   23  146 1    
    48   23  147 1    
    49   23  148 1    
    50   24   25 am   BACKBONE|DICT|INTERRES
    51   24  149 1    
    52   25   26 2    
    53   25   27 1    
    54   27   28 1    
    55   27   29 1    
    56   27  150 1    
    57   28  151 1    
    58   28  152 1    
    59   28  153 1    
    60   29   30 am   BACKBONE|DICT|INTERRES
    61   29  154 1    
    62   30   31 2    
    63   30   32 1    
    64   32   33 1    
    65   32   34 1    
    66   32  155 1    
    67   33  156 1    
    68   33  157 1    
    69   33  158 1    
    70   34   35 am   BACKBONE|DICT|INTERRES
    71   34  159 1    
    72   35   36 2    
    73   35   37 1    
    74   37   38 1    
    75   37   39 1    
    76   37  160 1    
    77   38  161 1    
    78   38  162 1    
    79   38  163 1    
    80   39   40 am   BACKBONE|DICT|INTERRES
    81   39  164 1    
    82   40   41 2    
    83   40   42 1    
    84   42   43 1    
    85   42   44 1    
    86   42  165 1    
    87   43  166 1    
    88   43  167 1    
    89   43  168 1    
    90   44   45 am   BACKBONE|DICT|INTERRES
    91   44  169 1    
    92   45   46 2    
    93   45   47 1    
    94   47   48 1    
    95   47   49 1    
    96   47  170 1    
    97   48  171 1    
    98   48  172 1    
    99   48  173 1    
   100   49   50 am   BACKBONE|DICT|INTERRES
   101   49  174 1    
   102   50   51 2    
   103   50   52 1    
   104   52   53 1    
   105   52   54 1    
   106   52  175 1    
   107   53  176 1    
   108   53  177 1    
   109   53  178 1    
   110   54   55 am   BACKBONE|DICT|INTERRES
   111   54  179 1    
   112   55   56 2    
   113   55   57 1    
   114   57   58 1    
   115   57   59 1    
   116   57  180 1    
   117   58  181 1    
   118   58  182 1    
   119   58  183 1    
   120   59   60 am   BACKBONE|DICT|INTERRES
   121   59  184 1    
   122   60   61 2    
   123   60   62 1    
   124   62   63 1    
   125   62   64 1    
   126   62  185 1    
   127   63  186 1    
   128   63  187 1    
   129   63  188 1    
   130   64   65 am   BACKBONE|DICT|INTERRES
   131   64  189 1    
   132   65   66 2    
   133   67   68 2    
   134   67   69 am   BACKBONE|DICT|INTERRES
   135   69   70 1    
   136   69  190 1    
   137   70   71 1    
   138   70   72 1    
   139   70  191 1    
   140   71  192 1    
   141   71  193 1    
   142   71  194 1    
   143   72   73 2    
   144   72   74 am   BACKBONE|DICT|INTERRES
   145   74   75 1    
   146   74  195 1    
   147   75   76 1    
   148   75   77 1    
   149   75  196 1    
   150   76  197 1    
   151   76  198 1    
   152   76  199 1    
   153   77   78 2    
   154   77   79 am   BACKBONE|DICT|INTERRES
   155   79   80 1    
   156   79  200 1    
   157   80   81 1    
   158   80   82 1    
   159   80  201 1    
   160   81  202 1    
   161   81  203 1    
   162   81  204 1    
   163   82   83 2    
   164   82   84 am   BACKBONE|DICT|INTERRES
   165   84   85 1    
   166   84  205 1    
   167   85   86 1    
   168   85   87 1    
   169   85  206 1    
   170   86  207 1    
   171   86  208 1    
   172   86  209 1    
   173   87   88 2    
   174   87   89 am   BACKBONE|DICT|INTERRES
   175   89   90 1    
   176   89  210 1    
   177   90   91 1    
   178   90   92 1    
   179   90  211 1    
   180   91  212 1    
   181   91  213 1    
   182   91  214 1    
   183   92   93 2    
   184   92   94 am   BACKBONE|DICT|INTERRES
   185   94   95 1    
   186   94  215 1    
   187   95   96 1    
   188   95   97 1    
   189   95  216 1    
   190   96  217 1    
   191   96  218 1    
   192   96  219 1    
   193   97   98 2    
   194   97   99 am   BACKBONE|DICT|INTERRES
   195   99  100 1    
   196   99  220 1    
   197  100  101 1    
   198  100  102 1    
   199  100  221 1    
   200  101  222 1    
   201  101  223 1    
   202  101  224 1    
   203  102  103 2    
   204  102  104 am   BACKBONE|DICT|INTERRES
   205  104  105 1    
   206  104  225 1    
   207  105  106 1    
   208  105  107 1    
   209  105  226 1    
   210  106  227 1    
   211  106  228 1    
   212  106  229 1    
   213  107  108 2    
   214  107  109 am   BACKBONE|DICT|INTERRES
   215  109  110 1    
   216  109  230 1    
   217  110  111 1    
   218  110  112 1    
   219  110  231 1    
   220  111  232 1    
   221  111  233 1    
   222  111  234 1    
   223  112  113 2    
   224  112  114 am   BACKBONE|DICT|INTERRES
   225  114  115 1    
   226  114  235 1    
   227  115  116 1    
   228  115  117 1    
   229  115  236 1    
   230  116  237 1    
   231  116  238 1    
   232  116  239 1    
   233  117  118 2    
   234  117  119 am   BACKBONE|DICT|INTERRES
   235  119  120 1    
   236  119  240 1    
   237  120  121 1    
   238  120  124 1    
   239  120  241 1    
   240  121  122 am   BACKBONE|DICT|INTERRES
   241  121  123 2    
   242  122  242 1    
   243  122  243 1    
   244  124  125 1    
   245  124  244 1    
   246  124  245 1    
   247  125  126 1    
   248  126  246 1    
   249  126  247 1    
@<TRIPOS>SUBSTRUCTURE
     1 UNK         1 GROUP             0       ****    0 ROOT    
