@<TRIPOS>MOLECULE
3R540
247   249    1
SMALL
USER_CHARGES


@<TRIPOS>ATOM
      1 CA         -5.5846  -10.7656  -46.0300 C.3       0 UNK        -0.1800 
      2 C          -4.0677  -10.8706  -45.9864 C.2       0 UNK         0.5000 
      3 O          -3.4464  -10.4091  -45.0293 O.2       0 UNK        -0.5000 
      4 N          -3.4612  -11.4922  -47.0060 N.am      1 UNK        -0.5000 
      5 CA         -2.0084  -11.6712  -47.1221 C.3       1 UNK         0.1400 
      6 C6         -1.5873  -12.0964  -48.5499 C.3       23 UNK        -0.0398 
      7 S7         -2.2080  -13.7319  -49.0797 S.3       23 UNK        -0.2404 
      8 C8         -0.6924  -14.7219  -48.9082 C.3       23 UNK        -0.0205 
      9 C9         -0.9180  -16.1643  -49.3257 C.ar      23 UNK        -0.0193 
     10 C10        -0.6423  -16.5709  -50.6340 C.ar      23 UNK        -0.1150 
     11 C11        -0.7955  -17.9089  -51.0097 C.ar      23 UNK        -0.0193 
     12 C12        -1.2311  -18.8415  -50.0649 C.ar      23 UNK        -0.1150 
     13 C13        -1.5173  -18.4439  -48.7563 C.ar      23 UNK        -0.0193 
     14 C14        -1.3680  -17.1026  -48.3939 C.ar      23 UNK        -0.1150 
     15 C15        -1.9345  -19.4700  -47.7196 C.3       23 UNK        -0.0205 
     16 S16        -0.4595  -20.3036  -47.0675 S.3       23 UNK        -0.2404 
     17 C17        -1.0942  -21.0901  -45.5493 C.3       23 UNK        -0.0398 
     18 CA         -1.2854  -22.6103  -45.7382 C.3       11 UNK         0.1400 
     19 N          -0.0427  -23.2956  -46.1237 N.am      11 UNK        -0.5000 
     20 C           0.0372  -24.5191  -46.6693 C.2       10 UNK         0.5000 
     21 O          -0.9347  -25.2646  -46.7911 O.2       10 UNK        -0.5000 
     22 CA          1.4168  -25.0047  -47.1549 C.3       10 UNK         0.1400 
     23 CB          1.4977  -24.8953  -48.6858 C.3       10 UNK        -0.1800 
     24 N           2.5430  -24.2737  -46.5736 N.am      10 UNK        -0.5000 
     25 C           2.9201  -24.3099  -45.2873 C.2       9 UNK         0.5000 
     26 O           2.3797  -25.0188  -44.4378 O.2       9 UNK        -0.5000 
     27 CA          4.0759  -23.3696  -44.8793 C.3       9 UNK         0.1400 
     28 CB          5.4040  -24.1400  -44.8311 C.3       9 UNK        -0.1800 
     29 N           4.2271  -22.2082  -45.7664 N.am      9 UNK        -0.5000 
     30 C           3.3076  -21.2450  -45.9137 C.2       8 UNK         0.5000 
     31 O           2.2533  -21.2188  -45.2749 O.2       8 UNK        -0.5000 
     32 CA          3.5853  -20.1961  -47.0062 C.3       8 UNK         0.1400 
     33 CB          3.4192  -20.8265  -48.3998 C.3       8 UNK        -0.1800 
     34 N           2.6485  -19.0819  -46.9071 N.am      8 UNK        -0.5000 
     35 C           2.8173  -17.9855  -46.1637 C.2       7 UNK         0.5000 
     36 O           3.8348  -17.7389  -45.5111 O.2       7 UNK        -0.5000 
     37 CA          1.6127  -17.0253  -46.1250 C.3       7 UNK         0.1400 
     38 CB          0.6551  -17.4102  -44.9848 C.3       7 UNK        -0.1800 
     39 N           1.9933  -15.6213  -45.9710 N.am      7 UNK        -0.5000 
     40 C           2.7139  -14.9054  -46.8463 C.2       6 UNK         0.5000 
     41 O           3.0893  -15.3430  -47.9345 O.2       6 UNK        -0.5000 
     42 CA          3.0588  -13.4505  -46.4597 C.3       6 UNK         0.1400 
     43 CB          2.5369  -12.4624  -47.5142 C.3       6 UNK        -0.1800 
     44 N           2.5186  -13.0713  -45.1504 N.am      6 UNK        -0.5000 
     45 C           3.1742  -13.2057  -43.9891 C.2       5 UNK         0.5000 
     46 O           4.3300  -13.6252  -43.9110 O.2       5 UNK        -0.5000 
     47 CA          2.3988  -12.8541  -42.7021 C.3       5 UNK         0.1400 
     48 CB          3.3198  -12.4974  -41.5160 C.3       5 UNK        -0.1800 
     49 N           1.3619  -11.8355  -42.8928 N.am      5 UNK        -0.5000 
     50 C           1.5220  -10.5368  -43.1940 C.2       4 UNK         0.5000 
     51 O           2.6193  -10.0098  -43.3804 O.2       4 UNK        -0.5000 
     52 CA          0.2457   -9.6704  -43.3084 C.3       4 UNK         0.1400 
     53 CB          0.1301   -9.0448  -44.7083 C.3       4 UNK        -0.1800 
     54 N          -0.9855  -10.4099  -43.0175 N.am      4 UNK        -0.5000 
     55 C          -1.4295  -10.7282  -41.7932 C.2       3 UNK         0.5000 
     56 O          -0.9046  -10.3347  -40.7515 O.2       3 UNK        -0.5000 
     57 CA         -2.6238  -11.7002  -41.7247 C.3       3 UNK         0.1400 
     58 CB         -3.9530  -10.9361  -41.6266 C.3       3 UNK        -0.1800 
     59 N          -2.6614  -12.6142  -42.8713 N.am      3 UNK        -0.5000 
     60 C          -1.8004  -13.6261  -43.0585 C.2       2 UNK         0.5000 
     61 O          -0.9159  -13.9231  -42.2564 O.2       2 UNK        -0.5000 
     62 CA         -1.8953  -14.3930  -44.3900 C.3       2 UNK         0.1400 
     63 CB         -2.9101  -15.5413  -44.2980 C.3       2 UNK        -0.1800 
     64 N          -2.2406  -13.5240  -45.5134 N.am      2 UNK        -0.5000 
     65 C          -1.4238  -12.5928  -46.0261 C.2       1 UNK         0.5000 
     66 O          -0.2678  -12.4235  -45.6371 O.2       1 UNK        -0.5000 
     67 C          -2.0429  -23.2503  -44.5549 C.2       11 UNK         0.5000 
     68 O          -3.1469  -22.8042  -44.2435 O.2       11 UNK        -0.5000 
     69 N          -1.5143  -24.3418  -43.9842 N.am      12 UNK        -0.5000 
     70 CA         -2.2623  -25.2927  -43.1569 C.3       12 UNK         0.1400 
     71 CB         -1.2932  -26.3588  -42.6249 C.3       12 UNK        -0.1800 
     72 C          -3.4362  -25.9558  -43.9166 C.2       12 UNK         0.5000 
     73 O          -4.4267  -26.3304  -43.2890 O.2       12 UNK        -0.5000 
     74 N          -3.3263  -26.0468  -45.2523 N.am      13 UNK        -0.5000 
     75 CA         -4.3891  -26.4805  -46.1632 C.3       13 UNK         0.1400 
     76 CB         -3.7422  -27.0229  -47.4474 C.3       13 UNK        -0.1800 
     77 C          -5.4104  -25.3659  -46.4903 C.2       13 UNK         0.5000 
     78 O          -6.3849  -25.6365  -47.1940 O.2       13 UNK        -0.5000 
     79 N          -5.1808  -24.1438  -45.9831 N.am      14 UNK        -0.5000 
     80 CA         -6.0309  -22.9553  -46.0804 C.3       14 UNK         0.1400 
     81 CB         -7.2860  -23.1316  -45.1963 C.3       14 UNK        -0.1800 
     82 C          -6.3332  -22.5610  -47.5405 C.2       14 UNK         0.5000 
     83 O          -5.4040  -22.2372  -48.2837 O.2       14 UNK        -0.5000 
     84 N          -7.6146  -22.6001  -47.9310 N.am      15 UNK        -0.5000 
     85 CA         -8.1213  -22.2219  -49.2514 C.3       15 UNK         0.1400 
     86 CB         -9.6497  -22.3703  -49.2657 C.3       15 UNK        -0.1800 
     87 C          -7.4949  -23.0077  -50.4175 C.2       15 UNK         0.5000 
     88 O          -7.3278  -22.4454  -51.4989 O.2       15 UNK        -0.5000 
     89 N          -7.1196  -24.2714  -50.1743 N.am      16 UNK        -0.5000 
     90 CA         -6.4439  -25.1239  -51.1529 C.3       16 UNK         0.1400 
     91 CB         -6.4359  -26.5732  -50.6486 C.3       16 UNK        -0.1800 
     92 C          -5.0152  -24.6486  -51.4780 C.2       16 UNK         0.5000 
     93 O          -4.5709  -24.8191  -52.6124 O.2       16 UNK        -0.5000 
     94 N          -4.3344  -24.0371  -50.4978 N.am      17 UNK        -0.5000 
     95 CA         -3.0210  -23.4213  -50.6821 C.3       17 UNK         0.1400 
     96 CB         -2.2993  -23.3208  -49.3348 C.3       17 UNK        -0.1800 
     97 C          -3.1386  -22.0343  -51.3284 C.2       17 UNK         0.5000 
     98 O          -2.3146  -21.6955  -52.1743 O.2       17 UNK        -0.5000 
     99 N          -4.1692  -21.2680  -50.9429 N.am      18 UNK        -0.5000 
    100 CA        -4.4727  -19.9485  -51.5043 C.3       18 UNK         0.1400 
    101 CB        -5.5711  -19.2789  -50.6670 C.3       18 UNK        -0.1800 
    102 C         -4.8665  -20.0004  -52.9937 C.2       18 UNK         0.5000 
    103 O         -4.5298  -19.0839  -53.7433 O.2       18 UNK        -0.5000 
    104 N         -5.5529  -21.0782  -53.3969 N.am      19 UNK        -0.5000 
    105 CA        -5.9077  -21.3735  -54.7854 C.3       19 UNK         0.1400 
    106 CB        -7.0453  -22.4066  -54.7942 C.3       19 UNK        -0.1800 
    107 C         -4.7191  -21.8827  -55.6270 C.2       19 UNK         0.5000 
    108 O         -4.7796  -21.8096  -56.8556 O.2       19 UNK        -0.5000 
    109 N         -3.6767  -22.4039  -54.9678 N.am      20 UNK        -0.5000 
    110 CA        -2.4531  -22.9026  -55.5914 C.3       20 UNK         0.1400 
    111 CB        -1.8757  -24.0281  -54.7136 C.3       20 UNK        -0.1800 
    112 C         -1.4236  -21.7754  -55.8023 C.2       20 UNK         0.5000 
    113 O         -1.6473  -20.6293  -55.4063 O.2       20 UNK        -0.5000 
    114 N         -0.2915  -22.1339  -56.4219 N.am      21 UNK        -0.5000 
    115 CA         0.8386  -21.2380  -56.6837 C.3       21 UNK         0.1400 
    116 CB         1.7477  -21.8891  -57.7385 C.3       21 UNK        -0.1800 
    117 C          1.6529  -20.8694  -55.4250 C.2       21 UNK         0.5000 
    118 O          2.4310  -19.9177  -55.4875 O.2       21 UNK        -0.5000 
    119 N          1.4815  -21.6420  -54.3405 N.am      22 UNK        -0.5000 
    120 CA         2.0490  -21.5318  -52.9769 C.3       22 UNK         0.1400 
    121 C          3.5956  -21.3972  -52.8103 C.2       22 UNK         0.5000 
    122 N          4.3648  -21.0890  -53.8429 N.am      22 UNK        -0.7600 
    123 O          4.1137  -21.6256  -51.7210 O.2       22 UNK        -0.5000 
    124 C124        1.2654  -20.5543  -52.0542 C.3       23 UNK        -0.0398 
    125 S125        1.2894  -18.8033  -52.5784 S.3       23 UNK        -0.2404 
    126 C126       -0.4654  -18.3424  -52.4293 C.3       23 UNK        -0.0205 
    127 H127       -6.0188  -11.2500  -45.1554 H         1 UNK         0.0600 
    128 H128       -5.9980  -11.2370  -46.9219 H         1 UNK         0.0600 
    129 H129       -5.8870   -9.7185  -46.0263 H         1 UNK         0.0600 
    130 H130       -4.0123  -11.8678  -47.7654 H         1 UNK         0.3000 
    131 H131       -1.5648  -10.6883  -46.9515 H         1 UNK         0.0600 
    132 H132       -1.9584  -11.3604  -49.2644 H         1 UNK         0.0800 
    133 H133       -0.5033  -12.0605  -48.6528 H         1 UNK         0.0800 
    134 H134        0.1036  -14.2817  -49.5113 H         1 UNK         0.0800 
    135 H135       -0.3468  -14.6892  -47.8740 H         1 UNK         0.0800 
    136 H136       -0.2899  -15.8485  -51.3569 H         1 UNK         0.1150 
    137 H137       -1.3283  -19.8812  -50.3411 H         1 UNK         0.1150 
    138 H138       -1.5747  -16.7919  -47.3796 H         1 UNK         0.1150 
    139 H139       -2.4795  -18.9825  -46.9099 H         1 UNK         0.0800 
    140 H140       -2.6120  -20.2033  -48.1601 H         1 UNK         0.0800 
    141 H141       -2.0298  -20.6071  -45.2626 H         1 UNK         0.0800 
    142 H142       -0.3919  -20.8947  -44.7377 H         1 UNK         0.0800 
    143 H143       -1.9695  -22.7298  -46.5773 H         1 UNK         0.0600 
    144 H144        0.8027  -22.7467  -46.0250 H         1 UNK         0.3000 
    145 H145        1.5113  -26.0562  -46.8763 H         1 UNK         0.0600 
    146 H146        2.4352  -25.3045  -49.0626 H         1 UNK         0.0600 
    147 H147        0.6880  -25.4508  -49.1615 H         1 UNK         0.0600 
    148 H148        1.4238  -23.8594  -49.0199 H         1 UNK         0.0600 
    149 H149        3.0544  -23.6681  -47.1974 H         1 UNK         0.3000 
    150 H150        3.8569  -23.0005  -43.8752 H         1 UNK         0.0600 
    151 H151        5.6864  -24.5178  -45.8146 H         1 UNK         0.0600 
    152 H152        5.3351  -24.9959  -44.1582 H         1 UNK         0.0600 
    153 H153        6.2143  -23.5078  -44.4676 H         1 UNK         0.0600 
    154 H154        5.0698  -22.1741  -46.3222 H         1 UNK         0.3000 
    155 H155        4.6090  -19.8323  -46.8960 H         1 UNK         0.0600 
    156 H156        2.4202  -21.2427  -48.5388 H         1 UNK         0.0600 
    157 H157        4.1366  -21.6315  -48.5628 H         1 UNK         0.0600 
    158 H158        3.5837  -20.0900  -49.1869 H         1 UNK         0.0600 
    159 H159        1.7409  -19.2435  -47.3229 H         1 UNK         0.3000 
    160 H160        1.0820  -17.1222  -47.0733 H         1 UNK         0.0600 
    161 H161        1.0387  -17.1020  -44.0116 H         1 UNK         0.0600 
    162 H162        0.5007  -18.4883  -44.9401 H         1 UNK         0.0600 
    163 H163       -0.3248  -16.9586  -45.1264 H         1 UNK         0.0600 
    164 H164        1.7567  -15.1826  -45.0954 H         1 UNK         0.3000 
    165 H165        4.1477  -13.3715  -46.4436 H         1 UNK         0.0600 
    166 H166        2.9976  -12.6447  -48.4858 H         1 UNK         0.0600 
    167 H167        1.4604  -12.5519  -47.6418 H         1 UNK         0.0600 
    168 H168        2.7590  -11.4318  -47.2365 H         1 UNK         0.0600 
    169 H169        1.5605  -12.7289  -45.1467 H         1 UNK         0.3000 
    170 H170        1.8658  -13.7652  -42.4275 H         1 UNK         0.0600 
    171 H171        3.9742  -13.3325  -41.2639 H         1 UNK         0.0600 
    172 H172        3.9570  -11.6412  -41.7386 H         1 UNK         0.0600 
    173 H173        2.7397  -12.2621  -40.6236 H         1 UNK         0.0600 
    174 H174        0.4150  -12.1707  -42.7759 H         1 UNK         0.3000 
    175 H175        0.3399   -8.8587  -42.5842 H         1 UNK         0.0600 
    176 H176       -0.7873   -8.4647  -44.8103 H         1 UNK         0.0600 
    177 H177        0.9643   -8.3697  -44.9025 H         1 UNK         0.0600 
    178 H178        0.1391   -9.8022  -45.4910 H         1 UNK         0.0600 
    179 H179       -1.5138  -10.7387  -43.8154 H         1 UNK         0.3000 
    180 H180       -2.5119  -12.2968  -40.8168 H         1 UNK         0.0600 
    181 H181       -4.1193  -10.2946  -42.4917 H         1 UNK         0.0600 
    182 H182       -3.9690  -10.2989  -40.7415 H         1 UNK         0.0600 
    183 H183       -4.7974  -11.6210  -41.5485 H         1 UNK         0.0600 
    184 H184       -3.3253  -12.3951  -43.6002 H         1 UNK         0.3000 
    185 H185       -0.9106  -14.8188  -44.5879 H         1 UNK         0.0600 
    186 H186       -2.6553  -16.2221  -43.4847 H         1 UNK         0.0600 
    187 H187       -3.9205  -15.1733  -44.1153 H         1 UNK         0.0600 
    188 H188       -2.9269  -16.1271  -45.2173 H         1 UNK         0.0600 
    189 H189       -3.1725  -13.6072  -45.8928 H         1 UNK         0.3000 
    190 H190       -0.6029  -24.6419  -44.3001 H         1 UNK         0.3000 
    191 H191       -2.6802  -24.7479  -42.3080 H         1 UNK         0.0600 
    192 H192       -0.4969  -25.9077  -42.0324 H         1 UNK         0.0600 
    193 H193       -1.8113  -27.0726  -41.9831 H         1 UNK         0.0600 
    194 H194       -0.8300  -26.9215  -43.4366 H         1 UNK         0.0600 
    195 H195       -2.4638  -25.7419  -45.6964 H         1 UNK         0.3000 
    196 H196       -4.9396  -27.2976  -45.6927 H         1 UNK         0.0600 
    197 H197       -4.4825  -27.5117  -48.0800 H         1 UNK         0.0600 
    198 H198       -2.9749  -27.7639  -47.2223 H         1 UNK         0.0600 
    199 H199       -3.2786  -26.2289  -48.0328 H         1 UNK         0.0600 
    200 H200       -4.3501  -24.0138  -45.4197 H         1 UNK         0.3000 
    201 H201       -5.4521  -22.1294  -45.6648 H         1 UNK         0.0600 
    202 H202       -7.8991  -22.2294  -45.1932 H         1 UNK         0.0600 
    203 H203       -7.9105  -23.9631  -45.5251 H         1 UNK         0.0600 
    204 H204       -7.0033  -23.3258  -44.1614 H         1 UNK         0.0600 
    205 H205       -8.3037  -22.9047  -47.2591 H         1 UNK         0.3000 
    206 H206       -7.8822  -21.1680  -49.4000 H         1 UNK         0.0600 
    207 H207      -10.1152  -21.7408  -48.5070 H         1 UNK         0.0600 
    208 H208      -10.0622  -22.0721  -50.2306 H         1 UNK         0.0600 
    209 H209       -9.9554  -23.4011  -49.0822 H         1 UNK         0.0600 
    210 H210       -7.2548  -24.6535  -49.2469 H         1 UNK         0.3000 
    211 H211       -7.0184  -25.0930  -52.0813 H         1 UNK         0.0600 
    212 H212       -5.8970  -26.6646  -49.7069 H         1 UNK         0.0600 
    213 H213       -5.9552  -27.2361  -51.3692 H         1 UNK         0.0600 
    214 H214       -7.4495  -26.9424  -50.4918 H         1 UNK         0.0600 
    215 H215       -4.7930  -23.8718  -49.6109 H         1 UNK         0.3000 
    216 H216       -2.4190  -24.0528  -51.3391 H         1 UNK         0.0600 
    217 H217       -1.3044  -22.8882  -49.4500 H         1 UNK         0.0600 
    218 H218       -2.1780  -24.3046  -48.8861 H         1 UNK         0.0600 
    219 H219       -2.8507  -22.6939  -48.6362 H         1 UNK         0.0600 
    220 H220       -4.7764  -21.6068  -50.2056 H         1 UNK         0.3000 
    221 H221       -3.5730  -19.3371  -51.4292 H         1 UNK         0.0600 
    222 H222       -6.5169  -19.8139  -50.7465 H         1 UNK         0.0600 
    223 H223       -5.2942  -19.2334  -49.6133 H         1 UNK         0.0600 
    224 H224       -5.7451  -18.2561  -51.0032 H         1 UNK         0.0600 
    225 H225       -5.8789  -21.7370  -52.6970 H         1 UNK         0.3000 
    226 H226       -6.2747  -20.4576  -55.2530 H         1 UNK         0.0600 
    227 H227       -7.3544  -22.6427  -55.8132 H         1 UNK         0.0600 
    228 H228       -6.7424  -23.3395  -54.3166 H         1 UNK         0.0600 
    229 H229       -7.9228  -22.0309  -54.2676 H         1 UNK         0.0600 
    230 H230       -3.6683  -22.3487  -53.9588 H         1 UNK         0.3000 
    231 H231       -2.6944  -23.3239  -56.5695 H         1 UNK         0.0600 
    232 H232       -1.5364  -23.6569  -53.7470 H         1 UNK         0.0600 
    233 H233       -1.0255  -24.5131  -55.1938 H         1 UNK         0.0600 
    234 H234       -2.6194  -24.8036  -54.5305 H         1 UNK         0.0600 
    235 H235       -0.1838  -23.0892  -56.7313 H         1 UNK         0.3000 
    236 H236        0.4479  -20.3069  -57.0999 H         1 UNK         0.0600 
    237 H237        2.5835  -21.2357  -57.9926 H         1 UNK         0.0600 
    238 H238        2.1651  -22.8321  -57.3833 H         1 UNK         0.0600 
    239 H239        1.2025  -22.0880  -58.6614 H         1 UNK         0.0600 
    240 H240        0.8369  -22.4093  -54.4544 H         1 UNK         0.3000 
    241 H241        1.8555  -22.5235  -52.5655 H         1 UNK         0.0600 
    242 H242        3.9178  -20.7672  -54.6954 H         1 UNK         0.3800 
    243 H243        5.3632  -21.0186  -53.7284 H         1 UNK         0.3800 
    244 H244        1.6401  -20.6061  -51.0307 H         1 UNK         0.0800 
    245 H245        0.2315  -20.8929  -51.9944 H         1 UNK         0.0800 
    246 H246       -0.6701  -17.5228  -53.1195 H         1 UNK         0.0800 
    247 H247       -1.1085  -19.1657  -52.7461 H         1 UNK         0.0800 
@<TRIPOS>BOND
     1    1    2 1    
     2    1  127 1    
     3    1  128 1    
     4    1  129 1    
     5    2    3 2    
     6    2    4 am   BACKBONE|DICT|INTERRES
     7    4    5 1    
     8    4  130 1    
     9    5    6 1    
    10    5   65 1    
    11    5  131 1    
    12    6    7 1    
    13    6  132 1    
    14    6  133 1    
    15    7    8 1    
    16    8    9 1    
    17    8  134 1    
    18    8  135 1    
    19    9   10 ar   
    20    9   14 ar   
    21   10   11 ar   
    22   10  136 1    
    23   11   12 ar   
    24   11  126 1    
    25   12   13 ar   
    26   12  137 1    
    27   13   14 ar   
    28   13   15 1    
    29   14  138 1    
    30   15   16 1    
    31   15  139 1    
    32   15  140 1    
    33   16   17 1    
    34   17   18 1    
    35   17  141 1    
    36   17  142 1    
    37   18   19 1    
    38   18   67 1    
    39   18  143 1    
    40   19   20 am   BACKBONE|DICT|INTERRES
    41   19  144 1    
    42   20   21 2    
    43   20   22 1    
    44   22   23 1    
    45   22   24 1    
    46   22  145 1    
    47   23  146 1    
    48   23  147 1    
    49   23  148 1    
    50   24   25 am   BACKBONE|DICT|INTERRES
    51   24  149 1    
    52   25   26 2    
    53   25   27 1    
    54   27   28 1    
    55   27   29 1    
    56   27  150 1    
    57   28  151 1    
    58   28  152 1    
    59   28  153 1    
    60   29   30 am   BACKBONE|DICT|INTERRES
    61   29  154 1    
    62   30   31 2    
    63   30   32 1    
    64   32   33 1    
    65   32   34 1    
    66   32  155 1    
    67   33  156 1    
    68   33  157 1    
    69   33  158 1    
    70   34   35 am   BACKBONE|DICT|INTERRES
    71   34  159 1    
    72   35   36 2    
    73   35   37 1    
    74   37   38 1    
    75   37   39 1    
    76   37  160 1    
    77   38  161 1    
    78   38  162 1    
    79   38  163 1    
    80   39   40 am   BACKBONE|DICT|INTERRES
    81   39  164 1    
    82   40   41 2    
    83   40   42 1    
    84   42   43 1    
    85   42   44 1    
    86   42  165 1    
    87   43  166 1    
    88   43  167 1    
    89   43  168 1    
    90   44   45 am   BACKBONE|DICT|INTERRES
    91   44  169 1    
    92   45   46 2    
    93   45   47 1    
    94   47   48 1    
    95   47   49 1    
    96   47  170 1    
    97   48  171 1    
    98   48  172 1    
    99   48  173 1    
   100   49   50 am   BACKBONE|DICT|INTERRES
   101   49  174 1    
   102   50   51 2    
   103   50   52 1    
   104   52   53 1    
   105   52   54 1    
   106   52  175 1    
   107   53  176 1    
   108   53  177 1    
   109   53  178 1    
   110   54   55 am   BACKBONE|DICT|INTERRES
   111   54  179 1    
   112   55   56 2    
   113   55   57 1    
   114   57   58 1    
   115   57   59 1    
   116   57  180 1    
   117   58  181 1    
   118   58  182 1    
   119   58  183 1    
   120   59   60 am   BACKBONE|DICT|INTERRES
   121   59  184 1    
   122   60   61 2    
   123   60   62 1    
   124   62   63 1    
   125   62   64 1    
   126   62  185 1    
   127   63  186 1    
   128   63  187 1    
   129   63  188 1    
   130   64   65 am   BACKBONE|DICT|INTERRES
   131   64  189 1    
   132   65   66 2    
   133   67   68 2    
   134   67   69 am   BACKBONE|DICT|INTERRES
   135   69   70 1    
   136   69  190 1    
   137   70   71 1    
   138   70   72 1    
   139   70  191 1    
   140   71  192 1    
   141   71  193 1    
   142   71  194 1    
   143   72   73 2    
   144   72   74 am   BACKBONE|DICT|INTERRES
   145   74   75 1    
   146   74  195 1    
   147   75   76 1    
   148   75   77 1    
   149   75  196 1    
   150   76  197 1    
   151   76  198 1    
   152   76  199 1    
   153   77   78 2    
   154   77   79 am   BACKBONE|DICT|INTERRES
   155   79   80 1    
   156   79  200 1    
   157   80   81 1    
   158   80   82 1    
   159   80  201 1    
   160   81  202 1    
   161   81  203 1    
   162   81  204 1    
   163   82   83 2    
   164   82   84 am   BACKBONE|DICT|INTERRES
   165   84   85 1    
   166   84  205 1    
   167   85   86 1    
   168   85   87 1    
   169   85  206 1    
   170   86  207 1    
   171   86  208 1    
   172   86  209 1    
   173   87   88 2    
   174   87   89 am   BACKBONE|DICT|INTERRES
   175   89   90 1    
   176   89  210 1    
   177   90   91 1    
   178   90   92 1    
   179   90  211 1    
   180   91  212 1    
   181   91  213 1    
   182   91  214 1    
   183   92   93 2    
   184   92   94 am   BACKBONE|DICT|INTERRES
   185   94   95 1    
   186   94  215 1    
   187   95   96 1    
   188   95   97 1    
   189   95  216 1    
   190   96  217 1    
   191   96  218 1    
   192   96  219 1    
   193   97   98 2    
   194   97   99 am   BACKBONE|DICT|INTERRES
   195   99  100 1    
   196   99  220 1    
   197  100  101 1    
   198  100  102 1    
   199  100  221 1    
   200  101  222 1    
   201  101  223 1    
   202  101  224 1    
   203  102  103 2    
   204  102  104 am   BACKBONE|DICT|INTERRES
   205  104  105 1    
   206  104  225 1    
   207  105  106 1    
   208  105  107 1    
   209  105  226 1    
   210  106  227 1    
   211  106  228 1    
   212  106  229 1    
   213  107  108 2    
   214  107  109 am   BACKBONE|DICT|INTERRES
   215  109  110 1    
   216  109  230 1    
   217  110  111 1    
   218  110  112 1    
   219  110  231 1    
   220  111  232 1    
   221  111  233 1    
   222  111  234 1    
   223  112  113 2    
   224  112  114 am   BACKBONE|DICT|INTERRES
   225  114  115 1    
   226  114  235 1    
   227  115  116 1    
   228  115  117 1    
   229  115  236 1    
   230  116  237 1    
   231  116  238 1    
   232  116  239 1    
   233  117  118 2    
   234  117  119 am   BACKBONE|DICT|INTERRES
   235  119  120 1    
   236  119  240 1    
   237  120  121 1    
   238  120  124 1    
   239  120  241 1    
   240  121  122 am   BACKBONE|DICT|INTERRES
   241  121  123 2    
   242  122  242 1    
   243  122  243 1    
   244  124  125 1    
   245  124  244 1    
   246  124  245 1    
   247  125  126 1    
   248  126  246 1    
   249  126  247 1    
@<TRIPOS>SUBSTRUCTURE
     1 UNK         1 GROUP             0       ****    0 ROOT    
