@<TRIPOS>MOLECULE
3R540
247   249    1
SMALL
USER_CHARGES


@<TRIPOS>ATOM
      1 CA          9.3898  -13.3016  -45.3253 C.3       0 UNK        -0.1800 
      2 C           7.8910  -13.5541  -45.4028 C.2       0 UNK         0.5000 
      3 O           7.2789  -13.9307  -44.4029 O.2       0 UNK        -0.5000 
      4 N           7.2911  -13.3344  -46.5796 N.am      1 UNK        -0.5000 
      5 CA          5.8621  -13.5165  -46.8685 C.3       1 UNK         0.1400 
      6 C6          5.6464  -13.8437  -48.3695 C.3       23 UNK        -0.0398 
      7 S7          4.1174  -14.7841  -48.6837 S.3       23 UNK        -0.2404 
      8 C8          4.2039  -14.9000  -50.4957 C.3       23 UNK        -0.0205 
      9 C9          3.0636  -15.7297  -51.0622 C.ar      23 UNK        -0.0193 
     10 C10         1.9365  -15.1090  -51.6092 C.ar      23 UNK        -0.1150 
     11 C11         0.9002  -15.8733  -52.1552 C.ar      23 UNK        -0.0193 
     12 C12         0.9976  -17.2672  -52.1514 C.ar      23 UNK        -0.1150 
     13 C13         2.1149  -17.8976  -51.5981 C.ar      23 UNK        -0.0193 
     14 C14         3.1460  -17.1245  -51.0582 C.ar      23 UNK        -0.1150 
     15 C15         2.2100  -19.4139  -51.5807 C.3       23 UNK        -0.0205 
     16 S16         1.7693  -20.0831  -49.9497 S.3       23 UNK        -0.2404 
     17 C17        -0.0080  -19.6832  -49.8565 C.3       23 UNK        -0.0398 
     18 CA         -0.7774  -20.7320  -49.0199 C.3       11 UNK         0.1400 
     19 N          -0.3177  -20.7532  -47.6246 N.am      11 UNK        -0.5000 
     20 C          -0.3625  -21.7925  -46.7797 C.2       10 UNK         0.5000 
     21 O          -0.9402  -22.8494  -47.0461 O.2       10 UNK        -0.5000 
     22 CA          0.2851  -21.6051  -45.3918 C.3       10 UNK         0.1400 
     23 CB          0.8734  -22.9106  -44.8248 C.3       10 UNK        -0.1800 
     24 N           1.2629  -20.5160  -45.3453 N.am      10 UNK        -0.5000 
     25 C           2.4476  -20.4191  -45.9692 C.2       9 UNK         0.5000 
     26 O           2.9432  -21.3158  -46.6512 O.2       9 UNK        -0.5000 
     27 CA          3.2057  -19.0857  -45.7975 C.3       9 UNK         0.1400 
     28 CB          3.3857  -18.3637  -47.1437 C.3       9 UNK        -0.1800 
     29 N           2.5016  -18.1908  -44.8742 N.am      9 UNK        -0.5000 
     30 C           2.8591  -17.9737  -43.6024 C.2       8 UNK         0.5000 
     31 O           3.8885  -18.4154  -43.0910 O.2       8 UNK        -0.5000 
     32 CA          1.8814  -17.1518  -42.7446 C.3       8 UNK         0.1400 
     33 CB          2.0922  -15.6487  -42.9707 C.3       8 UNK        -0.1800 
     34 N           0.4747  -17.4894  -42.9807 N.am      8 UNK        -0.5000 
     35 C          -0.0973  -18.6487  -42.6204 C.2       7 UNK         0.5000 
     36 O           0.5268  -19.5915  -42.1354 O.2       7 UNK        -0.5000 
     37 CA         -1.6105  -18.7963  -42.8437 C.3       7 UNK         0.1400 
     38 CB         -2.3879  -18.1470  -41.6886 C.3       7 UNK        -0.1800 
     39 N          -2.0280  -18.1825  -44.1004 N.am      7 UNK        -0.5000 
     40 C          -2.5610  -18.8394  -45.1386 C.2       6 UNK         0.5000 
     41 O          -2.7689  -20.0543  -45.1669 O.2       6 UNK        -0.5000 
     42 CA         -2.9272  -17.9885  -46.3682 C.3       6 UNK         0.1400 
     43 CB         -4.3226  -17.3761  -46.1574 C.3       6 UNK        -0.1800 
     44 N          -1.9886  -16.9101  -46.6808 N.am      6 UNK        -0.5000 
     45 C          -0.6498  -16.9706  -46.7169 C.2       5 UNK         0.5000 
     46 O           0.0002  -18.0104  -46.6088 O.2       5 UNK        -0.5000 
     47 CA          0.0942  -15.6225  -46.7868 C.3       5 UNK         0.1400 
     48 CB          0.4534  -15.2746  -48.2350 C.3       5 UNK        -0.1800 
     49 N          -0.6422  -14.5012  -46.1887 N.am      5 UNK        -0.5000 
     50 C          -1.1189  -14.4539  -44.9368 C.2       4 UNK         0.5000 
     51 O          -0.9866  -15.3662  -44.1160 O.2       4 UNK        -0.5000 
     52 CA         -1.8875  -13.1839  -44.5404 C.3       4 UNK         0.1400 
     53 CB         -3.1496  -13.5236  -43.7291 C.3       4 UNK        -0.1800 
     54 N          -1.0319  -12.3073  -43.7476 N.am      4 UNK        -0.5000 
     55 C          -0.0747  -11.5168  -44.2485 C.2       3 UNK         0.5000 
     56 O           0.1305  -11.3869  -45.4579 O.2       3 UNK        -0.5000 
     57 CA          0.7643  -10.6994  -43.2392 C.3       3 UNK         0.1400 
     58 CB          0.7457  -11.2686  -41.8011 C.3       3 UNK        -0.1800 
     59 N           2.1445  -10.4900  -43.6920 N.am      3 UNK        -0.5000 
     60 C           3.0605  -11.4370  -43.9372 C.2       2 UNK         0.5000 
     61 O           2.8658  -12.6448  -43.7854 O.2       2 UNK        -0.5000 
     62 CA          4.4463  -10.9343  -44.3792 C.3       2 UNK         0.1400 
     63 CB          5.2726  -10.4910  -43.1611 C.3       2 UNK        -0.1800 
     64 N           5.1854  -11.9799  -45.0812 N.am      2 UNK        -0.5000 
     65 C           5.0299  -12.3087  -46.3681 C.2       1 UNK         0.5000 
     66 O           4.3051  -11.6787  -47.1406 O.2       1 UNK        -0.5000 
     67 C          -2.3110  -20.5787  -49.1305 C.2       11 UNK         0.5000 
     68 O          -2.8111  -19.8022  -49.9455 O.2       11 UNK        -0.5000 
     69 N          -3.0162  -21.3391  -48.2933 N.am      12 UNK        -0.5000 
     70 CA         -4.4531  -21.5676  -48.2522 C.3       12 UNK         0.1400 
     71 CB         -5.2433  -20.3199  -47.8239 C.3       12 UNK        -0.1800 
     72 C          -4.6895  -22.7268  -47.2790 C.2       12 UNK         0.5000 
     73 O          -5.3757  -23.6810  -47.6373 O.2       12 UNK        -0.5000 
     74 N          -4.0720  -22.6413  -46.0891 N.am      13 UNK        -0.5000 
     75 CA         -4.1595  -23.6314  -45.0148 C.3       13 UNK         0.1400 
     76 CB         -3.4444  -23.0870  -43.7674 C.3       13 UNK        -0.1800 
     77 C          -3.6105  -25.0175  -45.4037 C.2       13 UNK         0.5000 
     78 O          -4.3325  -26.0089  -45.2930 O.2       13 UNK        -0.5000 
     79 N          -2.3554  -25.0626  -45.8718 N.am      14 UNK        -0.5000 
     80 CA         -1.6971  -26.2886  -46.3365 C.3       14 UNK         0.1400 
     81 CB         -0.1773  -26.1548  -46.1593 C.3       14 UNK        -0.1800 
     82 C          -2.0403  -26.5998  -47.8031 C.2       14 UNK         0.5000 
     83 O          -2.0047  -27.7616  -48.2083 O.2       14 UNK        -0.5000 
     84 N          -2.3876  -25.5540  -48.5636 N.am      15 UNK        -0.5000 
     85 CA         -2.8016  -25.6154  -49.9651 C.3       15 UNK         0.1400 
     86 CB         -2.6154  -24.2187  -50.5702 C.3       15 UNK        -0.1800 
     87 C          -4.2502  -26.1118  -50.1685 C.2       15 UNK         0.5000 
     88 O          -4.6805  -26.2501  -51.3168 O.2       15 UNK        -0.5000 
     89 N          -4.9820  -26.3297  -49.0632 N.am      16 UNK        -0.5000 
     90 CA         -6.3644  -26.8169  -48.9622 C.3       16 UNK         0.1400 
     91 CB         -6.4411  -28.2867  -49.4236 C.3       16 UNK        -0.1800 
     92 C          -7.3950  -25.9202  -49.6819 C.2       16 UNK         0.5000 
     93 O          -8.4359  -26.4110  -50.1219 O.2       16 UNK        -0.5000 
     94 N          -7.0583  -24.6292  -49.8247 N.am      17 UNK        -0.5000 
     95 CA         -7.7313  -23.6030  -50.6300 C.3       17 UNK         0.1400 
     96 CB         -9.0961  -23.2417  -50.0100 C.3       17 UNK        -0.1800 
     97 C          -7.8396  -23.9560  -52.1353 C.2       17 UNK         0.5000 
     98 O          -8.6708  -23.3730  -52.8339 O.2       17 UNK        -0.5000 
     99 N          -7.0244  -24.9116  -52.6052 N.am      18 UNK        -0.5000 
    100 CA        -7.1035  -25.5067  -53.9364 C.3       18 UNK         0.1400 
    101 CB        -7.3022  -27.0250  -53.7946 C.3       18 UNK        -0.1800 
    102 C         -5.8454  -25.1954  -54.7551 C.2       18 UNK         0.5000 
    103 O         -5.9637  -24.7109  -55.8813 O.2       18 UNK        -0.5000 
    104 N         -4.6630  -25.4631  -54.1814 N.am      19 UNK        -0.5000 
    105 CA        -3.3708  -25.1946  -54.8239 C.3       19 UNK         0.1400 
    106 CB        -2.2887  -26.0692  -54.1712 C.3       19 UNK        -0.1800 
    107 C         -2.9836  -23.7023  -54.7805 C.2       19 UNK         0.5000 
    108 O         -2.1983  -23.2479  -55.6130 O.2       19 UNK        -0.5000 
    109 N         -3.5585  -22.9748  -53.8200 N.am      20 UNK        -0.5000 
    110 CA        -3.4305  -21.5483  -53.5658 C.3       20 UNK         0.1400 
    111 CB        -2.0352  -21.2143  -53.0041 C.3       20 UNK        -0.1800 
    112 C         -4.5294  -21.1843  -52.5584 C.2       20 UNK         0.5000 
    113 O         -5.0160  -22.0670  -51.8461 O.2       20 UNK        -0.5000 
    114 N         -4.8949  -19.9020  -52.5093 N.am      21 UNK        -0.5000 
    115 CA        -5.8798  -19.3522  -51.5808 C.3       21 UNK         0.1400 
    116 CB        -7.3079  -19.5950  -52.1084 C.3       21 UNK        -0.1800 
    117 C         -5.5553  -17.8692  -51.3413 C.2       21 UNK         0.5000 
    118 O         -6.4041  -17.0002  -51.5509 O.2       21 UNK        -0.5000 
    119 N         -4.3033  -17.6021  -50.9516 N.am      22 UNK        -0.5000 
    120 CA        -3.7231  -16.2624  -50.7613 C.3       22 UNK         0.1400 
    121 C         -4.2088  -15.5422  -49.4652 C.2       22 UNK         0.5000 
    122 N         -5.5136  -15.4199  -49.2660 N.am      22 UNK        -0.7600 
    123 O         -3.4203  -15.1044  -48.6301 O.2       22 UNK        -0.5000 
    124 C124       -2.1810  -16.3013  -50.9229 C.3       23 UNK        -0.0398 
    125 S125       -1.5123  -14.6936  -51.4820 S.3       23 UNK        -0.2404 
    126 C126       -0.3178  -15.1923  -52.7596 C.3       23 UNK        -0.0205 
    127 H127        9.7958  -12.9717  -46.2819 H         1 UNK         0.0600 
    128 H128        9.9089  -14.2140  -45.0320 H         1 UNK         0.0600 
    129 H129        9.6024  -12.5330  -44.5822 H         1 UNK         0.0600 
    130 H130        7.8459  -12.9861  -47.3487 H         1 UNK         0.3000 
    131 H131        5.5231  -14.3824  -46.2948 H         1 UNK         0.0600 
    132 H132        5.6639  -12.9423  -48.9848 H         1 UNK         0.0800 
    133 H133        6.4673  -14.4650  -48.7313 H         1 UNK         0.0800 
    134 H134        5.1565  -15.3458  -50.7864 H         1 UNK         0.0800 
    135 H135        4.1899  -13.8959  -50.9225 H         1 UNK         0.0800 
    136 H136        1.8638  -14.0304  -51.6112 H         1 UNK         0.1150 
    137 H137        0.2023  -17.8626  -52.5764 H         1 UNK         0.1150 
    138 H138        4.0111  -17.6097  -50.6280 H         1 UNK         0.1150 
    139 H139        1.5702  -19.8550  -52.3467 H         1 UNK         0.0800 
    140 H140        3.2294  -19.7174  -51.8230 H         1 UNK         0.0800 
    141 H141       -0.4009  -19.6433  -50.8731 H         1 UNK         0.0800 
    142 H142       -0.1267  -18.6830  -49.4366 H         1 UNK         0.0800 
    143 H143       -0.5562  -21.7095  -49.4540 H         1 UNK         0.0600 
    144 H144        0.0902  -19.8869  -47.2877 H         1 UNK         0.3000 
    145 H145       -0.5187  -21.3032  -44.7215 H         1 UNK         0.0600 
    146 H146        1.3749  -22.7370  -43.8727 H         1 UNK         0.0600 
    147 H147        0.0859  -23.6411  -44.6427 H         1 UNK         0.0600 
    148 H148        1.5927  -23.3632  -45.5079 H         1 UNK         0.0600 
    149 H149        0.9758  -19.7094  -44.8120 H         1 UNK         0.3000 
    150 H150        4.1983  -19.3293  -45.4138 H         1 UNK         0.0600 
    151 H151        3.9374  -18.9845  -47.8506 H         1 UNK         0.0600 
    152 H152        3.9474  -17.4379  -47.0206 H         1 UNK         0.0600 
    153 H153        2.4313  -18.1147  -47.6070 H         1 UNK         0.0600 
    154 H154        1.6302  -17.8065  -45.2165 H         1 UNK         0.3000 
    155 H155        2.1032  -17.3653  -41.6967 H         1 UNK         0.0600 
    156 H156        3.1215  -15.3605  -42.7536 H         1 UNK         0.0600 
    157 H157        1.4465  -15.0551  -42.3233 H         1 UNK         0.0600 
    158 H158        1.8843  -15.3591  -44.0007 H         1 UNK         0.0600 
    159 H159       -0.1028  -16.7424  -43.3610 H         1 UNK         0.3000 
    160 H160       -1.8380  -19.8646  -42.8451 H         1 UNK         0.0600 
    161 H161       -2.2106  -17.0717  -41.6371 H         1 UNK         0.0600 
    162 H162       -2.0962  -18.5766  -40.7294 H         1 UNK         0.0600 
    163 H163       -3.4608  -18.3033  -41.8023 H         1 UNK         0.0600 
    164 H164       -1.8696  -17.1846  -44.1898 H         1 UNK         0.3000 
    165 H165       -2.9598  -18.6505  -47.2299 H         1 UNK         0.0600 
    166 H166       -4.7643  -17.0691  -47.1027 H         1 UNK         0.0600 
    167 H167       -5.0155  -18.0835  -45.7011 H         1 UNK         0.0600 
    168 H168       -4.2847  -16.5041  -45.5037 H         1 UNK         0.0600 
    169 H169       -2.4115  -16.0104  -46.8737 H         1 UNK         0.3000 
    170 H170        1.0246  -15.7395  -46.2291 H         1 UNK         0.0600 
    171 H171        0.9551  -16.1055  -48.7339 H         1 UNK         0.0600 
    172 H172       -0.4354  -15.0260  -48.8115 H         1 UNK         0.0600 
    173 H173        1.1242  -14.4168  -48.2788 H         1 UNK         0.0600 
    174 H174       -0.7770  -13.6946  -46.7818 H         1 UNK         0.3000 
    175 H175       -2.2031  -12.6608  -45.4458 H         1 UNK         0.0600 
    176 H176       -3.8050  -14.1907  -44.2904 H         1 UNK         0.0600 
    177 H177       -2.9082  -14.0175  -42.7869 H         1 UNK         0.0600 
    178 H178       -3.7220  -12.6252  -43.4981 H         1 UNK         0.0600 
    179 H179       -1.1211  -12.3826  -42.7450 H         1 UNK         0.3000 
    180 H180        0.3073   -9.7096  -43.2048 H         1 UNK         0.0600 
    181 H181        1.0838  -12.3052  -41.7678 H         1 UNK         0.0600 
    182 H182       -0.2551  -11.2303  -41.3699 H         1 UNK         0.0600 
    183 H183        1.3937  -10.6891  -41.1434 H         1 UNK         0.0600 
    184 H184        2.3959   -9.5275  -43.8679 H         1 UNK         0.3000 
    185 H185        4.3154  -10.0787  -45.0451 H         1 UNK         0.0600 
    186 H186        4.7740   -9.6868  -42.6186 H         1 UNK         0.0600 
    187 H187        5.4277  -11.3127  -42.4605 H         1 UNK         0.0600 
    188 H188        6.2519  -10.1193  -43.4633 H         1 UNK         0.0600 
    189 H189        5.7863  -12.5713  -44.5171 H         1 UNK         0.3000 
    190 H190       -2.4710  -21.9424  -47.6838 H         1 UNK         0.3000 
    191 H191       -4.7830  -21.8703  -49.2461 H         1 UNK         0.0600 
    192 H192       -5.0745  -20.0856  -46.7746 H         1 UNK         0.0600 
    193 H193       -6.3140  -20.4855  -47.9474 H         1 UNK         0.0600 
    194 H194       -4.9817  -19.4421  -48.4130 H         1 UNK         0.0600 
    195 H195       -3.5678  -21.7888  -45.8629 H         1 UNK         0.3000 
    196 H196       -5.2163  -23.7548  -44.7692 H         1 UNK         0.0600 
    197 H197       -3.4953  -23.7998  -42.9434 H         1 UNK         0.0600 
    198 H198       -3.9046  -22.1602  -43.4240 H         1 UNK         0.0600 
    199 H199       -2.3913  -22.8815  -43.9611 H         1 UNK         0.0600 
    200 H200       -1.8401  -24.1980  -46.0041 H         1 UNK         0.3000 
    201 H201       -2.0326  -27.1329  -45.7302 H         1 UNK         0.0600 
    202 H202        0.0852  -26.0086  -45.1118 H         1 UNK         0.0600 
    203 H203        0.2250  -25.3176  -46.7307 H         1 UNK         0.0600 
    204 H204        0.3355  -27.0566  -46.4963 H         1 UNK         0.0600 
    205 H205       -2.3551  -24.6385  -48.1397 H         1 UNK         0.3000 
    206 H206       -2.1436  -26.3092  -50.4921 H         1 UNK         0.0600 
    207 H207       -1.5946  -23.8593  -50.4400 H         1 UNK         0.0600 
    208 H208       -2.8188  -24.2296  -51.6369 H         1 UNK         0.0600 
    209 H209       -3.2918  -23.4936  -50.1221 H         1 UNK         0.0600 
    210 H210       -4.5459  -26.1101  -48.1786 H         1 UNK         0.3000 
    211 H211       -6.6218  -26.7842  -47.9026 H         1 UNK         0.0600 
    212 H212       -6.2576  -28.3828  -50.4944 H         1 UNK         0.0600 
    213 H213       -7.4242  -28.7125  -49.2202 H         1 UNK         0.0600 
    214 H214       -5.7087  -28.9023  -48.9013 H         1 UNK         0.0600 
    215 H215       -6.2207  -24.3245  -49.3394 H         1 UNK         0.3000 
    216 H216       -7.1074  -22.7127  -50.5649 H         1 UNK         0.0600 
    217 H217       -9.5341  -22.3743  -50.5051 H         1 UNK         0.0600 
    218 H218       -8.9947  -22.9925  -48.9537 H         1 UNK         0.0600 
    219 H219       -9.8092  -24.0620  -50.0952 H         1 UNK         0.0600 
    220 H220       -6.3434  -25.3188  -51.9733 H         1 UNK         0.3000 
    221 H221       -7.9596  -25.1096  -54.4857 H         1 UNK         0.0600 
    222 H222       -6.4899  -27.4917  -53.2357 H         1 UNK         0.0600 
    223 H223       -8.2330  -27.2495  -53.2733 H         1 UNK         0.0600 
    224 H224       -7.3510  -27.5070  -54.7718 H         1 UNK         0.0600 
    225 H225       -4.6407  -25.8570  -53.2453 H         1 UNK         0.3000 
    226 H226       -3.4374  -25.4809  -55.8758 H         1 UNK         0.0600 
    227 H227       -2.5178  -27.1283  -54.2898 H         1 UNK         0.0600 
    228 H228       -1.3153  -25.8947  -54.6313 H         1 UNK         0.0600 
    229 H229       -2.1878  -25.8695  -53.1056 H         1 UNK         0.0600 
    230 H230       -4.2195  -23.4237  -53.1971 H         1 UNK         0.3000 
    231 H231       -3.6024  -21.0038  -54.4962 H         1 UNK         0.0600 
    232 H232       -1.2468  -21.4626  -53.7142 H         1 UNK         0.0600 
    233 H233       -1.8350  -21.7560  -52.0796 H         1 UNK         0.0600 
    234 H234       -1.9478  -20.1495  -52.7858 H         1 UNK         0.0600 
    235 H235       -4.4352  -19.2280  -53.1059 H         1 UNK         0.3000 
    236 H236       -5.7825  -19.8550  -50.6179 H         1 UNK         0.0600 
    237 H237       -8.0527  -19.1942  -51.4199 H         1 UNK         0.0600 
    238 H238       -7.4627  -19.1201  -53.0777 H         1 UNK         0.0600 
    239 H239       -7.5140  -20.6593  -52.2217 H         1 UNK         0.0600 
    240 H240       -3.7002  -18.3893  -50.7173 H         1 UNK         0.3000 
    241 H241       -4.1039  -15.6513  -51.5821 H         1 UNK         0.0600 
    242 H242       -5.8578  -14.9559  -48.4412 H         1 UNK         0.3800 
    243 H243       -6.1573  -15.7946  -49.9538 H         1 UNK         0.3800 
    244 H244       -1.6904  -16.6150  -50.0009 H         1 UNK         0.0800 
    245 H245       -1.9145  -17.0528  -51.6663 H         1 UNK         0.0800 
    246 H246       -0.8054  -15.8406  -53.4895 H         1 UNK         0.0800 
    247 H247       -0.0002  -14.3045  -53.3084 H         1 UNK         0.0800 
@<TRIPOS>BOND
     1    1    2 1    
     2    1  127 1    
     3    1  128 1    
     4    1  129 1    
     5    2    3 2    
     6    2    4 am   BACKBONE|DICT|INTERRES
     7    4    5 1    
     8    4  130 1    
     9    5    6 1    
    10    5   65 1    
    11    5  131 1    
    12    6    7 1    
    13    6  132 1    
    14    6  133 1    
    15    7    8 1    
    16    8    9 1    
    17    8  134 1    
    18    8  135 1    
    19    9   10 ar   
    20    9   14 ar   
    21   10   11 ar   
    22   10  136 1    
    23   11   12 ar   
    24   11  126 1    
    25   12   13 ar   
    26   12  137 1    
    27   13   14 ar   
    28   13   15 1    
    29   14  138 1    
    30   15   16 1    
    31   15  139 1    
    32   15  140 1    
    33   16   17 1    
    34   17   18 1    
    35   17  141 1    
    36   17  142 1    
    37   18   19 1    
    38   18   67 1    
    39   18  143 1    
    40   19   20 am   BACKBONE|DICT|INTERRES
    41   19  144 1    
    42   20   21 2    
    43   20   22 1    
    44   22   23 1    
    45   22   24 1    
    46   22  145 1    
    47   23  146 1    
    48   23  147 1    
    49   23  148 1    
    50   24   25 am   BACKBONE|DICT|INTERRES
    51   24  149 1    
    52   25   26 2    
    53   25   27 1    
    54   27   28 1    
    55   27   29 1    
    56   27  150 1    
    57   28  151 1    
    58   28  152 1    
    59   28  153 1    
    60   29   30 am   BACKBONE|DICT|INTERRES
    61   29  154 1    
    62   30   31 2    
    63   30   32 1    
    64   32   33 1    
    65   32   34 1    
    66   32  155 1    
    67   33  156 1    
    68   33  157 1    
    69   33  158 1    
    70   34   35 am   BACKBONE|DICT|INTERRES
    71   34  159 1    
    72   35   36 2    
    73   35   37 1    
    74   37   38 1    
    75   37   39 1    
    76   37  160 1    
    77   38  161 1    
    78   38  162 1    
    79   38  163 1    
    80   39   40 am   BACKBONE|DICT|INTERRES
    81   39  164 1    
    82   40   41 2    
    83   40   42 1    
    84   42   43 1    
    85   42   44 1    
    86   42  165 1    
    87   43  166 1    
    88   43  167 1    
    89   43  168 1    
    90   44   45 am   BACKBONE|DICT|INTERRES
    91   44  169 1    
    92   45   46 2    
    93   45   47 1    
    94   47   48 1    
    95   47   49 1    
    96   47  170 1    
    97   48  171 1    
    98   48  172 1    
    99   48  173 1    
   100   49   50 am   BACKBONE|DICT|INTERRES
   101   49  174 1    
   102   50   51 2    
   103   50   52 1    
   104   52   53 1    
   105   52   54 1    
   106   52  175 1    
   107   53  176 1    
   108   53  177 1    
   109   53  178 1    
   110   54   55 am   BACKBONE|DICT|INTERRES
   111   54  179 1    
   112   55   56 2    
   113   55   57 1    
   114   57   58 1    
   115   57   59 1    
   116   57  180 1    
   117   58  181 1    
   118   58  182 1    
   119   58  183 1    
   120   59   60 am   BACKBONE|DICT|INTERRES
   121   59  184 1    
   122   60   61 2    
   123   60   62 1    
   124   62   63 1    
   125   62   64 1    
   126   62  185 1    
   127   63  186 1    
   128   63  187 1    
   129   63  188 1    
   130   64   65 am   BACKBONE|DICT|INTERRES
   131   64  189 1    
   132   65   66 2    
   133   67   68 2    
   134   67   69 am   BACKBONE|DICT|INTERRES
   135   69   70 1    
   136   69  190 1    
   137   70   71 1    
   138   70   72 1    
   139   70  191 1    
   140   71  192 1    
   141   71  193 1    
   142   71  194 1    
   143   72   73 2    
   144   72   74 am   BACKBONE|DICT|INTERRES
   145   74   75 1    
   146   74  195 1    
   147   75   76 1    
   148   75   77 1    
   149   75  196 1    
   150   76  197 1    
   151   76  198 1    
   152   76  199 1    
   153   77   78 2    
   154   77   79 am   BACKBONE|DICT|INTERRES
   155   79   80 1    
   156   79  200 1    
   157   80   81 1    
   158   80   82 1    
   159   80  201 1    
   160   81  202 1    
   161   81  203 1    
   162   81  204 1    
   163   82   83 2    
   164   82   84 am   BACKBONE|DICT|INTERRES
   165   84   85 1    
   166   84  205 1    
   167   85   86 1    
   168   85   87 1    
   169   85  206 1    
   170   86  207 1    
   171   86  208 1    
   172   86  209 1    
   173   87   88 2    
   174   87   89 am   BACKBONE|DICT|INTERRES
   175   89   90 1    
   176   89  210 1    
   177   90   91 1    
   178   90   92 1    
   179   90  211 1    
   180   91  212 1    
   181   91  213 1    
   182   91  214 1    
   183   92   93 2    
   184   92   94 am   BACKBONE|DICT|INTERRES
   185   94   95 1    
   186   94  215 1    
   187   95   96 1    
   188   95   97 1    
   189   95  216 1    
   190   96  217 1    
   191   96  218 1    
   192   96  219 1    
   193   97   98 2    
   194   97   99 am   BACKBONE|DICT|INTERRES
   195   99  100 1    
   196   99  220 1    
   197  100  101 1    
   198  100  102 1    
   199  100  221 1    
   200  101  222 1    
   201  101  223 1    
   202  101  224 1    
   203  102  103 2    
   204  102  104 am   BACKBONE|DICT|INTERRES
   205  104  105 1    
   206  104  225 1    
   207  105  106 1    
   208  105  107 1    
   209  105  226 1    
   210  106  227 1    
   211  106  228 1    
   212  106  229 1    
   213  107  108 2    
   214  107  109 am   BACKBONE|DICT|INTERRES
   215  109  110 1    
   216  109  230 1    
   217  110  111 1    
   218  110  112 1    
   219  110  231 1    
   220  111  232 1    
   221  111  233 1    
   222  111  234 1    
   223  112  113 2    
   224  112  114 am   BACKBONE|DICT|INTERRES
   225  114  115 1    
   226  114  235 1    
   227  115  116 1    
   228  115  117 1    
   229  115  236 1    
   230  116  237 1    
   231  116  238 1    
   232  116  239 1    
   233  117  118 2    
   234  117  119 am   BACKBONE|DICT|INTERRES
   235  119  120 1    
   236  119  240 1    
   237  120  121 1    
   238  120  124 1    
   239  120  241 1    
   240  121  122 am   BACKBONE|DICT|INTERRES
   241  121  123 2    
   242  122  242 1    
   243  122  243 1    
   244  124  125 1    
   245  124  244 1    
   246  124  245 1    
   247  125  126 1    
   248  126  246 1    
   249  126  247 1    
@<TRIPOS>SUBSTRUCTURE
     1 UNK         1 GROUP             0       ****    0 ROOT    
