@<TRIPOS>MOLECULE
3R540
247   249    1
SMALL
USER_CHARGES


@<TRIPOS>ATOM
      1 CA          3.3617   -9.9884  -50.0138 C.3       0 UNK        -0.1800 
      2 C           2.9994  -11.0010  -48.9364 C.2       0 UNK         0.5000 
      3 O           3.7882  -11.2274  -48.0184 O.2       0 UNK        -0.5000 
      4 N           1.8159  -11.6156  -49.0502 N.am      1 UNK        -0.5000 
      5 CA          1.2727  -12.5828  -48.0914 C.3       1 UNK         0.1400 
      6 C6          0.0464  -13.3316  -48.6649 C.3       23 UNK        -0.0398 
      7 S7          0.4987  -14.3989  -50.0756 S.3       23 UNK        -0.2404 
      8 C8          0.2328  -16.0391  -49.3400 C.3       23 UNK        -0.0205 
      9 C9          0.6441  -17.1618  -50.2797 C.ar      23 UNK        -0.0193 
     10 C10        -0.1985  -17.5381  -51.3282 C.ar      23 UNK        -0.1150 
     11 C11         0.1594  -18.5801  -52.1869 C.ar      23 UNK        -0.0193 
     12 C12         1.3691  -19.2513  -51.9891 C.ar      23 UNK        -0.1150 
     13 C13         2.2131  -18.8982  -50.9332 C.ar      23 UNK        -0.0193 
     14 C14         1.8501  -17.8438  -50.0886 C.ar      23 UNK        -0.1150 
     15 C15         3.5235  -19.6457  -50.7242 C.3       23 UNK        -0.0205 
     16 S16         3.2767  -21.3144  -50.0288 S.3       23 UNK        -0.2404 
     17 C17         2.8037  -20.9313  -48.3075 C.3       23 UNK        -0.0398 
     18 CA          1.6805  -21.8244  -47.7216 C.3       11 UNK         0.1400 
     19 N           1.4859  -21.5470  -46.2932 N.am      11 UNK        -0.5000 
     20 C           0.6752  -22.2189  -45.4627 C.2       10 UNK         0.5000 
     21 O           0.0166  -23.2014  -45.7969 O.2       10 UNK        -0.5000 
     22 CA          0.5343  -21.6717  -44.0284 C.3       10 UNK         0.1400 
     23 CB          1.6973  -22.1388  -43.1415 C.3       10 UNK        -0.1800 
     24 N           0.4354  -20.2119  -43.9902 N.am      10 UNK        -0.5000 
     25 C          -0.5627  -19.5068  -44.5427 C.2       9 UNK         0.5000 
     26 O          -1.5423  -20.0166  -45.0840 O.2       9 UNK        -0.5000 
     27 CA         -0.4097  -17.9767  -44.5537 C.3       9 UNK         0.1400 
     28 CB         -0.9046  -17.3564  -43.2416 C.3       9 UNK        -0.1800 
     29 N           0.9720  -17.5693  -44.8084 N.am      9 UNK        -0.5000 
     30 C           1.5910  -17.7536  -45.9817 C.2       8 UNK         0.5000 
     31 O           1.0426  -18.2515  -46.9636 O.2       8 UNK        -0.5000 
     32 CA          3.0787  -17.3613  -46.0535 C.3       8 UNK         0.1400 
     33 CB          3.2356  -15.8446  -46.2365 C.3       8 UNK        -0.1800 
     34 N           3.8253  -17.7876  -44.8693 N.am      8 UNK        -0.5000 
     35 C           4.0501  -19.0673  -44.5387 C.2       7 UNK         0.5000 
     36 O           3.6998  -20.0189  -45.2345 O.2       7 UNK        -0.5000 
     37 CA          4.7366  -19.3331  -43.1836 C.3       7 UNK         0.1400 
     38 CB          6.2611  -19.3930  -43.3577 C.3       7 UNK        -0.1800 
     39 N           4.4054  -18.3495  -42.1469 N.am      7 UNK        -0.5000 
     40 C           3.1674  -18.0793  -41.7106 C.2       6 UNK         0.5000 
     41 O           2.1600  -18.6454  -42.1443 O.2       6 UNK        -0.5000 
     42 CA          3.0472  -16.9547  -40.6630 C.3       6 UNK         0.1400 
     43 CB          3.5905  -15.6261  -41.2181 C.3       6 UNK        -0.1800 
     44 N           1.6584  -16.7409  -40.2676 N.am      6 UNK        -0.5000 
     45 C           0.9751  -17.4484  -39.3637 C.2       5 UNK         0.5000 
     46 O           1.4824  -18.3329  -38.6708 O.2       5 UNK        -0.5000 
     47 CA         -0.5220  -17.0861  -39.2044 C.3       5 UNK         0.1400 
     48 CB         -1.2035  -17.8718  -38.0693 C.3       5 UNK        -0.1800 
     49 N          -0.7587  -15.6533  -38.9881 N.am      5 UNK        -0.5000 
     50 C          -0.6523  -14.6860  -39.9084 C.2       4 UNK         0.5000 
     51 O          -0.2960  -14.8881  -41.0718 O.2       4 UNK        -0.5000 
     52 CA         -0.9339  -13.2508  -39.4290 C.3       4 UNK         0.1400 
     53 CB          0.2759  -12.7012  -38.6560 C.3       4 UNK        -0.1800 
     54 N          -1.2038  -12.3616  -40.5570 N.am      4 UNK        -0.5000 
     55 C          -2.3550  -12.3040  -41.2408 C.2       3 UNK         0.5000 
     56 O          -3.3742  -12.9169  -40.9205 O.2       3 UNK        -0.5000 
     57 CA         -2.3642  -11.4099  -42.4971 C.3       3 UNK         0.1400 
     58 CB         -2.8501   -9.9946  -42.1478 C.3       3 UNK        -0.1800 
     59 N          -1.0376  -11.3241  -43.1142 N.am      3 UNK        -0.5000 
     60 C          -0.5287  -12.2569  -43.9287 C.2       2 UNK         0.5000 
     61 O          -1.1636  -13.2259  -44.3520 O.2       2 UNK        -0.5000 
     62 CA          0.9604  -12.1040  -44.2850 C.3       2 UNK         0.1400 
     63 CB          1.8164  -12.9205  -43.3037 C.3       2 UNK        -0.1800 
     64 N           1.2453  -12.5604  -45.6436 N.am      2 UNK        -0.5000 
     65 C           0.9146  -11.8960  -46.7569 C.2       1 UNK         0.5000 
     66 O           0.3465  -10.8007  -46.7614 O.2       1 UNK        -0.5000 
     67 C           0.3582  -21.7253  -48.5167 C.2       11 UNK         0.5000 
     68 O           0.0704  -22.6079  -49.3272 O.2       11 UNK        -0.5000 
     69 N          -0.4454  -20.6915  -48.2295 N.am      12 UNK        -0.5000 
     70 CA         -1.7885  -20.5259  -48.7826 C.3       12 UNK         0.1400 
     71 CB         -2.3044  -19.1143  -48.4684 C.3       12 UNK        -0.1800 
     72 C          -2.7683  -21.6000  -48.2729 C.2       12 UNK         0.5000 
     73 O          -3.4382  -22.2480  -49.0786 O.2       12 UNK        -0.5000 
     74 N          -2.8193  -21.7801  -46.9448 N.am      13 UNK        -0.5000 
     75 CA         -3.7238  -22.7001  -46.2510 C.3       13 UNK         0.1400 
     76 CB         -3.6038  -22.4936  -44.7344 C.3       13 UNK        -0.1800 
     77 C          -3.5128  -24.1822  -46.6060 C.2       13 UNK         0.5000 
     78 O          -4.4869  -24.9339  -46.6357 O.2       13 UNK        -0.5000 
     79 N          -2.2666  -24.5748  -46.9051 N.am      14 UNK        -0.5000 
     80 CA         -1.8810  -25.9269  -47.3215 C.3       14 UNK         0.1400 
     81 CB         -0.3530  -25.9954  -47.4667 C.3       14 UNK        -0.1800 
     82 C          -2.5623  -26.4078  -48.6187 C.2       14 UNK         0.5000 
     83 O          -2.7246  -27.6147  -48.8019 O.2       14 UNK        -0.5000 
     84 N          -2.9675  -25.4656  -49.4806 N.am      15 UNK        -0.5000 
     85 CA         -3.7131  -25.7327  -50.7100 C.3       15 UNK         0.1400 
     86 CB         -3.3535  -24.6555  -51.7388 C.3       15 UNK        -0.1800 
     87 C          -5.2391  -25.7871  -50.4957 C.2       15 UNK         0.5000 
     88 O          -5.9623  -26.0692  -51.4522 O.2       15 UNK        -0.5000 
     89 N          -5.7067  -25.4939  -49.2722 N.am      16 UNK        -0.5000 
     90 CA         -7.0939  -25.4317  -48.7957 C.3       16 UNK         0.1400 
     91 CB         -7.8024  -26.7938  -48.9270 C.3       16 UNK        -0.1800 
     92 C          -7.9213  -24.2959  -49.4262 C.2       16 UNK         0.5000 
     93 O          -8.4391  -23.4469  -48.6999 O.2       16 UNK        -0.5000 
     94 N          -8.0277  -24.2954  -50.7594 N.am      17 UNK        -0.5000 
     95 CA         -8.7358  -23.2862  -51.5465 C.3       17 UNK         0.1400 
     96 CB         -9.0423  -23.8663  -52.9359 C.3       17 UNK        -0.1800 
     97 C          -7.9461  -21.9710  -51.6782 C.2       17 UNK         0.5000 
     98 O          -8.5614  -20.9114  -51.8060 O.2       17 UNK        -0.5000 
     99 N          -6.6078  -22.0722  -51.6476 N.am      18 UNK        -0.5000 
    100 CA        -5.6330  -20.9971  -51.8592 C.3       18 UNK         0.1400 
    101 CB        -5.6593  -19.9986  -50.6814 C.3       18 UNK        -0.1800 
    102 C         -5.7853  -20.3332  -53.2485 C.2       18 UNK         0.5000 
    103 O         -6.1917  -21.0060  -54.1994 O.2       18 UNK        -0.5000 
    104 N         -5.4313  -19.0438  -53.3541 N.am      19 UNK        -0.5000 
    105 CA        -5.4479  -18.2157  -54.5638 C.3       19 UNK         0.1400 
    106 CB        -6.9001  -17.9288  -55.0076 C.3       19 UNK        -0.1800 
    107 C         -4.5617  -18.8104  -55.6778 C.2       19 UNK         0.5000 
    108 O         -3.3421  -18.6543  -55.6249 O.2       19 UNK        -0.5000 
    109 N         -5.1782  -19.4842  -56.6558 N.am      20 UNK        -0.5000 
    110 CA        -4.4868  -20.1816  -57.7377 C.3       20 UNK         0.1400 
    111 CB        -5.4466  -20.3273  -58.9284 C.3       20 UNK        -0.1800 
    112 C         -3.9491  -21.5616  -57.3137 C.2       20 UNK         0.5000 
    113 O         -2.9555  -22.0164  -57.8822 O.2       20 UNK        -0.5000 
    114 N         -4.6007  -22.2124  -56.3368 N.am      21 UNK        -0.5000 
    115 CA        -4.3054  -23.5878  -55.9197 C.3       21 UNK         0.1400 
    116 CB        -5.4332  -24.1042  -55.0120 C.3       21 UNK        -0.1800 
    117 C         -2.9378  -23.7405  -55.2301 C.2       21 UNK         0.5000 
    118 O         -2.3133  -24.7950  -55.3483 O.2       21 UNK        -0.5000 
    119 N         -2.4947  -22.6827  -54.5417 N.am      22 UNK        -0.5000 
    120 CA        -1.1581  -22.5642  -53.9390 C.3       22 UNK         0.1400 
    121 C         -0.0408  -22.1382  -54.9388 C.2       22 UNK         0.5000 
    122 N         -0.3293  -21.8920  -56.2124 N.am      22 UNK        -0.7600 
    123 O          1.1217  -22.0449  -54.5561 O.2       22 UNK        -0.5000 
    124 C124       -1.1746  -21.6978  -52.6480 C.3       23 UNK        -0.0398 
    125 S125       -2.0674  -20.1116  -52.8044 S.3       23 UNK        -0.2404 
    126 C126       -0.7582  -18.9656  -53.3343 C.3       23 UNK        -0.0205 
    127 H127        4.2822  -10.2871  -50.5154 H         1 UNK         0.0600 
    128 H128        2.5781   -9.8991  -50.7666 H         1 UNK         0.0600 
    129 H129        3.5182   -9.0062  -49.5679 H         1 UNK         0.0600 
    130 H130        1.2089  -11.3809  -49.8221 H         1 UNK         0.3000 
    131 H131        2.0561  -13.3167  -47.8918 H         1 UNK         0.0600 
    132 H132       -0.7158  -12.6238  -48.9956 H         1 UNK         0.0800 
    133 H133       -0.4287  -13.9414  -47.8937 H         1 UNK         0.0800 
    134 H134        0.7919  -16.1024  -48.4083 H         1 UNK         0.0800 
    135 H135       -0.8195  -16.1483  -49.0755 H         1 UNK         0.0800 
    136 H136       -1.1346  -17.0181  -51.4761 H         1 UNK         0.1150 
    137 H137        1.6534  -20.0564  -52.6524 H         1 UNK         0.1150 
    138 H138        2.5005  -17.5594  -49.2742 H         1 UNK         0.1150 
    139 H139        4.0347  -19.7397  -51.6834 H         1 UNK         0.0800 
    140 H140        4.1954  -19.0789  -50.0777 H         1 UNK         0.0800 
    141 H141        2.5228  -19.8828  -48.2355 H         1 UNK         0.0800 
    142 H142        3.7049  -21.0374  -47.7027 H         1 UNK         0.0800 
    143 H143        2.0145  -22.8617  -47.7916 H         1 UNK         0.0600 
    144 H144        2.0417  -20.7891  -45.9091 H         1 UNK         0.3000 
    145 H145       -0.3889  -22.0738  -43.6074 H         1 UNK         0.0600 
    146 H146        1.6003  -21.7543  -42.1259 H         1 UNK         0.0600 
    147 H147        1.7225  -23.2272  -43.0781 H         1 UNK         0.0600 
    148 H148        2.6603  -21.8139  -43.5329 H         1 UNK         0.0600 
    149 H149        1.1796  -19.7077  -43.5180 H         1 UNK         0.3000 
    150 H150       -1.0330  -17.5891  -45.3627 H         1 UNK         0.0600 
    151 H151       -1.9337  -17.6504  -43.0321 H         1 UNK         0.0600 
    152 H152       -0.8826  -16.2676  -43.2934 H         1 UNK         0.0600 
    153 H153       -0.2946  -17.6665  -42.3945 H         1 UNK         0.0600 
    154 H154        1.4990  -17.2301  -44.0178 H         1 UNK         0.3000 
    155 H155        3.5130  -17.8566  -46.9245 H         1 UNK         0.0600 
    156 H156        2.7194  -15.5063  -47.1345 H         1 UNK         0.0600 
    157 H157        4.2845  -15.5684  -46.3465 H         1 UNK         0.0600 
    158 H158        2.8310  -15.2913  -45.3886 H         1 UNK         0.0600 
    159 H159        4.1555  -17.0651  -44.2473 H         1 UNK         0.3000 
    160 H160        4.3969  -20.3080  -42.8297 H         1 UNK         0.0600 
    161 H161        6.5395  -20.1343  -44.1080 H         1 UNK         0.0600 
    162 H162        6.7542  -19.6747  -42.4271 H         1 UNK         0.0600 
    163 H163        6.6684  -18.4330  -43.6776 H         1 UNK         0.0600 
    164 H164        5.1835  -17.8447  -41.7476 H         1 UNK         0.3000 
    165 H165        3.6312  -17.2381  -39.7851 H         1 UNK         0.0600 
    166 H166        3.4299  -14.8088  -40.5143 H         1 UNK         0.0600 
    167 H167        4.6634  -15.6791  -41.4049 H         1 UNK         0.0600 
    168 H168        3.1065  -15.3568  -42.1566 H         1 UNK         0.0600 
    169 H169        1.1355  -16.0442  -40.7918 H         1 UNK         0.3000 
    170 H170       -1.0146  -17.3716  -40.1354 H         1 UNK         0.0600 
    171 H171       -1.1080  -18.9474  -38.2238 H         1 UNK         0.0600 
    172 H172       -0.7651  -17.6378  -37.0984 H         1 UNK         0.0600 
    173 H173       -2.2694  -17.6486  -38.0193 H         1 UNK         0.0600 
    174 H174       -1.0097  -15.3917  -38.0457 H         1 UNK         0.3000 
    175 H175       -1.8034  -13.2639  -38.7685 H         1 UNK         0.0600 
    176 H176        0.4923  -13.3098  -37.7772 H         1 UNK         0.0600 
    177 H177        1.1754  -12.6864  -39.2733 H         1 UNK         0.0600 
    178 H178        0.0920  -11.6850  -38.3066 H         1 UNK         0.0600 
    179 H179       -0.4124  -11.8543  -40.9200 H         1 UNK         0.3000 
    180 H180       -3.0673  -11.8431  -43.2118 H         1 UNK         0.0600 
    181 H181       -2.1877   -9.5041  -41.4334 H         1 UNK         0.0600 
    182 H182       -3.8466  -10.0230  -41.7052 H         1 UNK         0.0600 
    183 H183       -2.9086   -9.3675  -43.0375 H         1 UNK         0.0600 
    184 H184       -0.4604  -10.5434  -42.8363 H         1 UNK         0.3000 
    185 H185        1.2433  -11.0520  -44.2057 H         1 UNK         0.0600 
    186 H186        1.6726  -12.5797  -42.2776 H         1 UNK         0.0600 
    187 H187        1.5524  -13.9785  -43.3331 H         1 UNK         0.0600 
    188 H188        2.8789  -12.8300  -43.5301 H         1 UNK         0.0600 
    189 H189        1.6796  -13.4663  -45.7223 H         1 UNK         0.3000 
    190 H190       -0.1236  -19.9870  -47.5758 H         1 UNK         0.3000 
    191 H191       -1.7206  -20.6238  -49.8669 H         1 UNK         0.0600 
    192 H192       -2.3431  -18.9219  -47.3964 H         1 UNK         0.0600 
    193 H193       -3.3085  -18.9656  -48.8648 H         1 UNK         0.0600 
    194 H194       -1.6629  -18.3593  -48.9178 H         1 UNK         0.0600 
    195 H195       -2.2415  -21.1901  -46.3498 H         1 UNK         0.3000 
    196 H196       -4.7415  -22.4388  -46.5482 H         1 UNK         0.0600 
    197 H197       -2.5953  -22.7090  -44.3810 H         1 UNK         0.0600 
    198 H198       -4.2889  -23.1479  -44.1938 H         1 UNK         0.0600 
    199 H199       -3.8462  -21.4682  -44.4548 H         1 UNK         0.0600 
    200 H200       -1.5081  -23.9095  -46.7814 H         1 UNK         0.3000 
    201 H201       -2.1797  -26.6133  -46.5268 H         1 UNK         0.0600 
    202 H202        0.1419  -25.8057  -46.5144 H         1 UNK         0.0600 
    203 H203        0.0140  -25.2638  -48.1877 H         1 UNK         0.0600 
    204 H204       -0.0324  -26.9818  -47.8045 H         1 UNK         0.0600 
    205 H205       -2.8126  -24.4919  -49.2476 H         1 UNK         0.3000 
    206 H206       -3.4093  -26.6990  -51.1179 H         1 UNK         0.0600 
    207 H207       -3.6537  -23.6617  -51.4078 H         1 UNK         0.0600 
    208 H208       -3.8471  -24.8526  -52.6889 H         1 UNK         0.0600 
    209 H209       -2.2809  -24.6422  -51.9291 H         1 UNK         0.0600 
    210 H210       -5.0235  -25.2725  -48.5557 H         1 UNK         0.3000 
    211 H211       -7.0250  -25.2093  -47.7298 H         1 UNK         0.0600 
    212 H212       -7.9203  -27.1008  -49.9664 H         1 UNK         0.0600 
    213 H213       -8.7989  -26.7559  -48.4855 H         1 UNK         0.0600 
    214 H214       -7.2473  -27.5756  -48.4086 H         1 UNK         0.0600 
    215 H215       -7.5250  -25.0189  -51.2672 H         1 UNK         0.3000 
    216 H216       -9.6836  -23.0595  -51.0536 H         1 UNK         0.0600 
    217 H217       -9.5816  -23.1446  -53.5507 H         1 UNK         0.0600 
    218 H218       -9.6630  -24.7594  -52.8623 H         1 UNK         0.0600 
    219 H219       -8.1296  -24.1346  -53.4695 H         1 UNK         0.0600 
    220 H220       -6.2213  -22.9981  -51.5470 H         1 UNK         0.3000 
    221 H221       -4.6541  -21.4772  -51.8601 H         1 UNK         0.0600 
    222 H222       -6.5707  -19.3999  -50.6748 H         1 UNK         0.0600 
    223 H223       -5.5987  -20.5207  -49.7263 H         1 UNK         0.0600 
    224 H224       -4.8106  -19.3159  -50.7230 H         1 UNK         0.0600 
    225 H225       -5.0689  -18.5889  -52.5288 H         1 UNK         0.3000 
    226 H226       -4.9955  -17.2608  -54.2921 H         1 UNK         0.0600 
    227 H227       -7.4420  -17.3909  -54.2298 H         1 UNK         0.0600 
    228 H228       -6.9206  -17.3054  -55.9025 H         1 UNK         0.0600 
    229 H229       -7.4600  -18.8390  -55.2239 H         1 UNK         0.0600 
    230 H230       -6.1809  -19.5924  -56.6071 H         1 UNK         0.3000 
    231 H231       -3.6355  -19.5793  -58.0626 H         1 UNK         0.0600 
    232 H232       -4.9562  -20.8234  -59.7671 H         1 UNK         0.0600 
    233 H233       -5.7866  -19.3537  -59.2821 H         1 UNK         0.0600 
    234 H234       -6.3266  -20.9165  -58.6673 H         1 UNK         0.0600 
    235 H235       -5.3573  -21.7449  -55.8460 H         1 UNK         0.3000 
    236 H236       -4.2885  -24.2082  -56.8182 H         1 UNK         0.0600 
    237 H237       -5.2869  -25.1573  -54.7686 H         1 UNK         0.0600 
    238 H238       -5.4783  -23.5563  -54.0710 H         1 UNK         0.0600 
    239 H239       -6.4048  -24.0156  -55.4981 H         1 UNK         0.0600 
    240 H240       -3.0586  -21.8454  -54.5222 H         1 UNK         0.3000 
    241 H241       -0.8557  -23.5635  -53.6211 H         1 UNK         0.0600 
    242 H242        0.4135  -21.6271  -56.8394 H         1 UNK         0.3800 
    243 H243       -1.2705  -21.9886  -56.5711 H         1 UNK         0.3800 
    244 H244       -1.6784  -22.2549  -51.8583 H         1 UNK         0.0800 
    245 H245       -0.1688  -21.5332  -52.2620 H         1 UNK         0.0800 
    246 H246       -1.2297  -18.0684  -53.7382 H         1 UNK         0.0800 
    247 H247       -0.1878  -19.3959  -54.1572 H         1 UNK         0.0800 
@<TRIPOS>BOND
     1    1    2 1    
     2    1  127 1    
     3    1  128 1    
     4    1  129 1    
     5    2    3 2    
     6    2    4 am   BACKBONE|DICT|INTERRES
     7    4    5 1    
     8    4  130 1    
     9    5    6 1    
    10    5   65 1    
    11    5  131 1    
    12    6    7 1    
    13    6  132 1    
    14    6  133 1    
    15    7    8 1    
    16    8    9 1    
    17    8  134 1    
    18    8  135 1    
    19    9   10 ar   
    20    9   14 ar   
    21   10   11 ar   
    22   10  136 1    
    23   11   12 ar   
    24   11  126 1    
    25   12   13 ar   
    26   12  137 1    
    27   13   14 ar   
    28   13   15 1    
    29   14  138 1    
    30   15   16 1    
    31   15  139 1    
    32   15  140 1    
    33   16   17 1    
    34   17   18 1    
    35   17  141 1    
    36   17  142 1    
    37   18   19 1    
    38   18   67 1    
    39   18  143 1    
    40   19   20 am   BACKBONE|DICT|INTERRES
    41   19  144 1    
    42   20   21 2    
    43   20   22 1    
    44   22   23 1    
    45   22   24 1    
    46   22  145 1    
    47   23  146 1    
    48   23  147 1    
    49   23  148 1    
    50   24   25 am   BACKBONE|DICT|INTERRES
    51   24  149 1    
    52   25   26 2    
    53   25   27 1    
    54   27   28 1    
    55   27   29 1    
    56   27  150 1    
    57   28  151 1    
    58   28  152 1    
    59   28  153 1    
    60   29   30 am   BACKBONE|DICT|INTERRES
    61   29  154 1    
    62   30   31 2    
    63   30   32 1    
    64   32   33 1    
    65   32   34 1    
    66   32  155 1    
    67   33  156 1    
    68   33  157 1    
    69   33  158 1    
    70   34   35 am   BACKBONE|DICT|INTERRES
    71   34  159 1    
    72   35   36 2    
    73   35   37 1    
    74   37   38 1    
    75   37   39 1    
    76   37  160 1    
    77   38  161 1    
    78   38  162 1    
    79   38  163 1    
    80   39   40 am   BACKBONE|DICT|INTERRES
    81   39  164 1    
    82   40   41 2    
    83   40   42 1    
    84   42   43 1    
    85   42   44 1    
    86   42  165 1    
    87   43  166 1    
    88   43  167 1    
    89   43  168 1    
    90   44   45 am   BACKBONE|DICT|INTERRES
    91   44  169 1    
    92   45   46 2    
    93   45   47 1    
    94   47   48 1    
    95   47   49 1    
    96   47  170 1    
    97   48  171 1    
    98   48  172 1    
    99   48  173 1    
   100   49   50 am   BACKBONE|DICT|INTERRES
   101   49  174 1    
   102   50   51 2    
   103   50   52 1    
   104   52   53 1    
   105   52   54 1    
   106   52  175 1    
   107   53  176 1    
   108   53  177 1    
   109   53  178 1    
   110   54   55 am   BACKBONE|DICT|INTERRES
   111   54  179 1    
   112   55   56 2    
   113   55   57 1    
   114   57   58 1    
   115   57   59 1    
   116   57  180 1    
   117   58  181 1    
   118   58  182 1    
   119   58  183 1    
   120   59   60 am   BACKBONE|DICT|INTERRES
   121   59  184 1    
   122   60   61 2    
   123   60   62 1    
   124   62   63 1    
   125   62   64 1    
   126   62  185 1    
   127   63  186 1    
   128   63  187 1    
   129   63  188 1    
   130   64   65 am   BACKBONE|DICT|INTERRES
   131   64  189 1    
   132   65   66 2    
   133   67   68 2    
   134   67   69 am   BACKBONE|DICT|INTERRES
   135   69   70 1    
   136   69  190 1    
   137   70   71 1    
   138   70   72 1    
   139   70  191 1    
   140   71  192 1    
   141   71  193 1    
   142   71  194 1    
   143   72   73 2    
   144   72   74 am   BACKBONE|DICT|INTERRES
   145   74   75 1    
   146   74  195 1    
   147   75   76 1    
   148   75   77 1    
   149   75  196 1    
   150   76  197 1    
   151   76  198 1    
   152   76  199 1    
   153   77   78 2    
   154   77   79 am   BACKBONE|DICT|INTERRES
   155   79   80 1    
   156   79  200 1    
   157   80   81 1    
   158   80   82 1    
   159   80  201 1    
   160   81  202 1    
   161   81  203 1    
   162   81  204 1    
   163   82   83 2    
   164   82   84 am   BACKBONE|DICT|INTERRES
   165   84   85 1    
   166   84  205 1    
   167   85   86 1    
   168   85   87 1    
   169   85  206 1    
   170   86  207 1    
   171   86  208 1    
   172   86  209 1    
   173   87   88 2    
   174   87   89 am   BACKBONE|DICT|INTERRES
   175   89   90 1    
   176   89  210 1    
   177   90   91 1    
   178   90   92 1    
   179   90  211 1    
   180   91  212 1    
   181   91  213 1    
   182   91  214 1    
   183   92   93 2    
   184   92   94 am   BACKBONE|DICT|INTERRES
   185   94   95 1    
   186   94  215 1    
   187   95   96 1    
   188   95   97 1    
   189   95  216 1    
   190   96  217 1    
   191   96  218 1    
   192   96  219 1    
   193   97   98 2    
   194   97   99 am   BACKBONE|DICT|INTERRES
   195   99  100 1    
   196   99  220 1    
   197  100  101 1    
   198  100  102 1    
   199  100  221 1    
   200  101  222 1    
   201  101  223 1    
   202  101  224 1    
   203  102  103 2    
   204  102  104 am   BACKBONE|DICT|INTERRES
   205  104  105 1    
   206  104  225 1    
   207  105  106 1    
   208  105  107 1    
   209  105  226 1    
   210  106  227 1    
   211  106  228 1    
   212  106  229 1    
   213  107  108 2    
   214  107  109 am   BACKBONE|DICT|INTERRES
   215  109  110 1    
   216  109  230 1    
   217  110  111 1    
   218  110  112 1    
   219  110  231 1    
   220  111  232 1    
   221  111  233 1    
   222  111  234 1    
   223  112  113 2    
   224  112  114 am   BACKBONE|DICT|INTERRES
   225  114  115 1    
   226  114  235 1    
   227  115  116 1    
   228  115  117 1    
   229  115  236 1    
   230  116  237 1    
   231  116  238 1    
   232  116  239 1    
   233  117  118 2    
   234  117  119 am   BACKBONE|DICT|INTERRES
   235  119  120 1    
   236  119  240 1    
   237  120  121 1    
   238  120  124 1    
   239  120  241 1    
   240  121  122 am   BACKBONE|DICT|INTERRES
   241  121  123 2    
   242  122  242 1    
   243  122  243 1    
   244  124  125 1    
   245  124  244 1    
   246  124  245 1    
   247  125  126 1    
   248  126  246 1    
   249  126  247 1    
@<TRIPOS>SUBSTRUCTURE
     1 UNK         1 GROUP             0       ****    0 ROOT    
