@<TRIPOS>MOLECULE
3R540
247   249    1
SMALL
USER_CHARGES


@<TRIPOS>ATOM
      1 CA          2.8130  -12.9172  -51.2231 C.3       0 UNK        -0.1800 
      2 C           3.9216  -13.0518  -50.1886 C.2       0 UNK         0.5000 
      3 O           5.0854  -13.2124  -50.5561 O.2       0 UNK        -0.5000 
      4 N           3.5584  -12.9816  -48.9039 N.am      1 UNK        -0.5000 
      5 CA          4.4557  -13.1355  -47.7484 C.3       1 UNK         0.1400 
      6 C6          4.0591  -14.3466  -46.8622 C.3       23 UNK        -0.0398 
      7 S7          4.0171  -15.9172  -47.7889 S.3       23 UNK        -0.2404 
      8 C8          2.2216  -16.1828  -47.9555 C.3       23 UNK        -0.0205 
      9 C9          1.9062  -17.2523  -48.9906 C.ar      23 UNK        -0.0193 
     10 C10         1.1434  -16.9363  -50.1183 C.ar      23 UNK        -0.1150 
     11 C11         0.8598  -17.9088  -51.0821 C.ar      23 UNK        -0.0193 
     12 C12         1.3632  -19.2036  -50.9209 C.ar      23 UNK        -0.1150 
     13 C13         2.1339  -19.5307  -49.8005 C.ar      23 UNK        -0.0193 
     14 C14         2.3836  -18.5565  -48.8296 C.ar      23 UNK        -0.1150 
     15 C15         2.7349  -20.9225  -49.6578 C.3       23 UNK        -0.0205 
     16 S16         1.4865  -22.1854  -49.2701 S.3       23 UNK        -0.2404 
     17 C17         0.8646  -21.6081  -47.6569 C.3       23 UNK        -0.0398 
     18 CA          0.5147  -22.7665  -46.6942 C.3       11 UNK         0.1400 
     19 N           0.4000  -22.2946  -45.3149 N.am      11 UNK        -0.5000 
     20 C           0.3372  -23.0839  -44.2346 C.2       10 UNK         0.5000 
     21 O           0.4442  -24.3091  -44.2747 O.2       10 UNK        -0.5000 
     22 CA          0.0707  -22.3884  -42.8870 C.3       10 UNK         0.1400 
     23 CB          1.3764  -21.8562  -42.2780 C.3       10 UNK        -0.1800 
     24 N          -0.9007  -21.2989  -43.0036 N.am      10 UNK        -0.5000 
     25 C          -2.1880  -21.4703  -43.3389 C.2       9 UNK         0.5000 
     26 O          -2.7067  -22.5730  -43.5166 O.2       9 UNK        -0.5000 
     27 CA         -3.0294  -20.1976  -43.5450 C.3       9 UNK         0.1400 
     28 CB         -3.5329  -19.6591  -42.1978 C.3       9 UNK        -0.1800 
     29 N          -2.3092  -19.1442  -44.2647 N.am      9 UNK        -0.5000 
     30 C          -1.8803  -19.2451  -45.5319 C.2       8 UNK         0.5000 
     31 O          -2.0703  -20.2324  -46.2383 O.2       8 UNK        -0.5000 
     32 CA         -1.0470  -18.0789  -46.0912 C.3       8 UNK         0.1400 
     33 CB         -1.9441  -16.9117  -46.5263 C.3       8 UNK        -0.1800 
     34 N          -0.0486  -17.6051  -45.1361 N.am      8 UNK        -0.5000 
     35 C           0.9746  -18.3421  -44.6822 C.2       7 UNK         0.5000 
     36 O           1.2107  -19.4907  -45.0553 O.2       7 UNK        -0.5000 
     37 CA          1.8502  -17.7041  -43.5922 C.3       7 UNK         0.1400 
     38 CB          2.8727  -16.7363  -44.2036 C.3       7 UNK        -0.1800 
     39 N           1.0482  -17.0030  -42.5904 N.am      7 UNK        -0.5000 
     40 C           0.2397  -17.6114  -41.7115 C.2       6 UNK         0.5000 
     41 O           0.0973  -18.8321  -41.6412 O.2       6 UNK        -0.5000 
     42 CA         -0.5736  -16.6948  -40.7807 C.3       6 UNK         0.1400 
     43 CB          0.2820  -16.2268  -39.5941 C.3       6 UNK        -0.1800 
     44 N          -1.1217  -15.5292  -41.4767 N.am      6 UNK        -0.5000 
     45 C          -2.0642  -15.5967  -42.4269 C.2       5 UNK         0.5000 
     46 O          -2.5651  -16.6481  -42.8219 O.2       5 UNK        -0.5000 
     47 CA         -2.4906  -14.2686  -43.0748 C.3       5 UNK         0.1400 
     48 CB         -3.5204  -13.5430  -42.1959 C.3       5 UNK        -0.1800 
     49 N          -1.3755  -13.3638  -43.3696 N.am      5 UNK        -0.5000 
     50 C          -0.3551  -13.6573  -44.1848 C.2       4 UNK         0.5000 
     51 O          -0.1664  -14.7695  -44.6854 O.2       4 UNK        -0.5000 
     52 CA          0.6238  -12.5248  -44.5109 C.3       4 UNK         0.1400 
     53 CB          1.9280  -12.7035  -43.7158 C.3       4 UNK        -0.1800 
     54 N           0.8947  -12.6399  -45.9391 N.am      4 UNK        -0.5000 
     55 C           0.8907  -11.7172  -46.9109 C.2       3 UNK         0.5000 
     56 O           0.9931  -12.0649  -48.0855 O.2       3 UNK        -0.5000 
     57 CA          0.8375  -10.2025  -46.6124 C.3       3 UNK         0.1400 
     58 CB         -0.6073   -9.7313  -46.3769 C.3       3 UNK        -0.1800 
     59 N           1.6909   -9.7846  -45.4973 N.am      3 UNK        -0.5000 
     60 C           2.9904   -9.4440  -45.5129 C.2       2 UNK         0.5000 
     61 O           3.5643   -9.1440  -44.4661 O.2       2 UNK        -0.5000 
     62 CA          3.7826   -9.4149  -46.8465 C.3       2 UNK         0.1400 
     63 CB          5.1575   -8.7263  -46.7090 C.3       2 UNK        -0.1800 
     64 N           3.9426  -10.7415  -47.4515 N.am      2 UNK        -0.5000 
     65 C           4.5150  -11.8334  -46.9167 C.2       1 UNK         0.5000 
     66 O           5.0629  -11.8483  -45.8144 O.2       1 UNK        -0.5000 
     67 C          -0.7505  -23.5360  -47.1333 C.2       11 UNK         0.5000 
     68 O          -0.6336  -24.6506  -47.6422 O.2       11 UNK        -0.5000 
     69 N          -1.9353  -22.9595  -46.8791 N.am      12 UNK        -0.5000 
     70 CA         -3.2571  -23.4954  -47.2299 C.3       12 UNK         0.1400 
     71 CB         -4.3344  -22.4769  -46.8290 C.3       12 UNK        -0.1800 
     72 C          -3.5858  -24.8728  -46.6261 C.2       12 UNK         0.5000 
     73 O          -4.4453  -25.5759  -47.1575 O.2       12 UNK        -0.5000 
     74 N          -2.8910  -25.2483  -45.5451 N.am      13 UNK        -0.5000 
     75 CA         -2.9642  -26.5719  -44.9295 C.3       13 UNK         0.1400 
     76 CB         -2.2663  -26.5222  -43.5619 C.3       13 UNK        -0.1800 
     77 C          -2.3653  -27.6942  -45.8054 C.2       13 UNK         0.5000 
     78 O          -2.6738  -28.8616  -45.5606 O.2       13 UNK        -0.5000 
     79 N          -1.5280  -27.3390  -46.7914 N.am      14 UNK        -0.5000 
     80 CA         -0.8651  -28.2728  -47.7003 C.3       14 UNK         0.1400 
     81 CB          0.6412  -28.2893  -47.3923 C.3       14 UNK        -0.1800 
     82 C          -1.1121  -27.9200  -49.1763 C.2       14 UNK         0.5000 
     83 O          -1.4135  -28.8163  -49.9659 O.2       14 UNK        -0.5000 
     84 N          -0.9592  -26.6402  -49.5377 N.am      15 UNK        -0.5000 
     85 CA         -1.0412  -26.1567  -50.9117 C.3       15 UNK         0.1400 
     86 CB         -0.1249  -24.9352  -51.0733 C.3       15 UNK        -0.1800 
     87 C          -2.4839  -25.7919  -51.2851 C.2       15 UNK         0.5000 
     88 O          -3.0862  -24.9243  -50.6473 O.2       15 UNK        -0.5000 
     89 N          -2.9863  -26.4124  -52.3600 N.am      16 UNK        -0.5000 
     90 CA         -4.3037  -26.1413  -52.9398 C.3       16 UNK         0.1400 
     91 CB         -4.6032  -27.1842  -54.0265 C.3       16 UNK        -0.1800 
     92 C          -4.4344  -24.7155  -53.5096 C.2       16 UNK         0.5000 
     93 O          -5.5296  -24.1564  -53.4917 O.2       16 UNK        -0.5000 
     94 N          -3.3147  -24.1406  -53.9736 N.am      17 UNK        -0.5000 
     95 CA         -3.2294  -22.7642  -54.4616 C.3       17 UNK         0.1400 
     96 CB         -1.8483  -22.5227  -55.0893 C.3       17 UNK        -0.1800 
     97 C          -3.5112  -21.7360  -53.3537 C.2       17 UNK         0.5000 
     98 O          -4.3084  -20.8234  -53.5609 O.2       17 UNK        -0.5000 
     99 N          -2.8921  -21.9255  -52.1808 N.am      18 UNK        -0.5000 
    100 CA        -3.1008  -21.0767  -51.0072 C.3       18 UNK         0.1400 
    101 CB        -1.9807  -21.3128  -49.9906 C.3       18 UNK        -0.1800 
    102 C         -4.4887  -21.2762  -50.3752 C.2       18 UNK         0.5000 
    103 O         -5.0742  -20.3071  -49.8931 O.2       18 UNK        -0.5000 
    104 N         -5.0264  -22.5039  -50.4456 N.am      19 UNK        -0.5000 
    105 CA        -6.4086  -22.8188  -50.0673 C.3       19 UNK         0.1400 
    106 CB        -6.6091  -24.3404  -50.0676 C.3       19 UNK        -0.1800 
    107 C         -7.4502  -22.1218  -50.9690 C.2       19 UNK         0.5000 
    108 O         -8.5283  -21.7687  -50.4917 O.2       19 UNK        -0.5000 
    109 N         -7.0836  -21.8793  -52.2346 N.am      20 UNK        -0.5000 
    110 CA        -7.8208  -21.0736  -53.2101 C.3       20 UNK         0.1400 
    111 CB        -7.5676  -21.6480  -54.6151 C.3       20 UNK        -0.1800 
    112 C         -7.4676  -19.5690  -53.1317 C.2       20 UNK         0.5000 
    113 O         -7.7162  -18.8361  -54.0910 O.2       20 UNK        -0.5000 
    114 N         -6.8870  -19.1302  -52.0037 N.am      21 UNK        -0.5000 
    115 CA        -6.5109  -17.7544  -51.6598 C.3       21 UNK         0.1400 
    116 CB        -7.7643  -16.8633  -51.5313 C.3       21 UNK        -0.1800 
    117 C         -5.4342  -17.1485  -52.5843 C.2       21 UNK         0.5000 
    118 O         -5.3971  -15.9296  -52.7618 O.2       21 UNK        -0.5000 
    119 N         -4.5766  -18.0083  -53.1497 N.am      22 UNK        -0.5000 
    120 CA        -3.4820  -17.6757  -54.0777 C.3       22 UNK         0.1400 
    121 C         -3.9622  -17.2193  -55.4899 C.2       22 UNK         0.5000 
    122 N         -5.2210  -17.4252  -55.8624 N.am      22 UNK        -0.7600 
    123 O         -3.1769  -16.6988  -56.2777 O.2       22 UNK        -0.5000 
    124 C124       -2.4118  -16.7276  -53.4629 C.3       23 UNK        -0.0398 
    125 S125       -1.7256  -17.3489  -51.8849 S.3       23 UNK        -0.2404 
    126 C126        0.0333  -17.5442  -52.3063 C.3       23 UNK        -0.0205 
    127 H127        2.7601  -13.8188  -51.8335 H         1 UNK         0.0600 
    128 H128        3.0106  -12.0694  -51.8791 H         1 UNK         0.0600 
    129 H129        1.8389  -12.7670  -50.7564 H         1 UNK         0.0600 
    130 H130        2.5808  -12.8110  -48.6769 H         1 UNK         0.3000 
    131 H131        5.4774  -13.3060  -48.0930 H         1 UNK         0.0600 
    132 H132        3.0944  -14.1810  -46.3847 H         1 UNK         0.0800 
    133 H133        4.7762  -14.4735  -46.0493 H         1 UNK         0.0800 
    134 H134        1.7431  -15.2406  -48.2271 H         1 UNK         0.0800 
    135 H135        1.8026  -16.4786  -46.9949 H         1 UNK         0.0800 
    136 H136        0.7660  -15.9319  -50.2506 H         1 UNK         0.1150 
    137 H137        1.1639  -19.9576  -51.6695 H         1 UNK         0.1150 
    138 H138        2.9774  -18.8012  -47.9599 H         1 UNK         0.1150 
    139 H139        3.2294  -21.1942  -50.5914 H         1 UNK         0.0800 
    140 H140        3.5100  -20.9351  -48.8899 H         1 UNK         0.0800 
    141 H141        0.0143  -20.9439  -47.8150 H         1 UNK         0.0800 
    142 H142        1.6423  -20.9924  -47.2042 H         1 UNK         0.0800 
    143 H143        1.3461  -23.4747  -46.7124 H         1 UNK         0.0600 
    144 H144        0.3666  -21.2885  -45.1825 H         1 UNK         0.3000 
    145 H145       -0.3425  -23.1344  -42.2049 H         1 UNK         0.0600 
    146 H146        1.2050  -21.4332  -41.2881 H         1 UNK         0.0600 
    147 H147        1.8253  -21.0809  -42.8992 H         1 UNK         0.0600 
    148 H148        2.1103  -22.6554  -42.1678 H         1 UNK         0.0600 
    149 H149       -0.5599  -20.3614  -42.8170 H         1 UNK         0.3000 
    150 H150       -3.9001  -20.4706  -44.1440 H         1 UNK         0.0600 
    151 H151       -4.0707  -20.4296  -41.6441 H         1 UNK         0.0600 
    152 H152       -4.2187  -18.8238  -42.3398 H         1 UNK         0.0600 
    153 H153       -2.7110  -19.3145  -41.5695 H         1 UNK         0.0600 
    154 H154       -2.1554  -18.2763  -43.7588 H         1 UNK         0.3000 
    155 H155       -0.5161  -18.4427  -46.9739 H         1 UNK         0.0600 
    156 H156       -2.6858  -17.2406  -47.2553 H         1 UNK         0.0600 
    157 H157       -1.3580  -16.1194  -46.9925 H         1 UNK         0.0600 
    158 H158       -2.4798  -16.4784  -45.6812 H         1 UNK         0.0600 
    159 H159       -0.1561  -16.6508  -44.8019 H         1 UNK         0.3000 
    160 H160        2.3981  -18.5054  -43.0918 H         1 UNK         0.0600 
    161 H161        2.3841  -15.9050  -44.7103 H         1 UNK         0.0600 
    162 H162        3.5002  -17.2450  -44.9365 H         1 UNK         0.0600 
    163 H163        3.5329  -16.3234  -43.4408 H         1 UNK         0.0600 
    164 H164        1.0649  -15.9948  -42.6153 H         1 UNK         0.3000 
    165 H165       -1.4090  -17.2787  -40.3882 H         1 UNK         0.0600 
    166 H166       -0.3097  -15.6451  -38.8870 H         1 UNK         0.0600 
    167 H167        0.6921  -17.0784  -39.0495 H         1 UNK         0.0600 
    168 H168        1.1208  -15.6095  -39.9181 H         1 UNK         0.0600 
    169 H169       -0.7578  -14.6239  -41.2186 H         1 UNK         0.3000 
    170 H170       -2.9716  -14.5126  -44.0244 H         1 UNK         0.0600 
    171 H171       -3.0896  -13.2285  -41.2445 H         1 UNK         0.0600 
    172 H172       -3.9123  -12.6574  -42.6965 H         1 UNK         0.0600 
    173 H173       -4.3697  -14.1906  -41.9737 H         1 UNK         0.0600 
    174 H174       -1.4466  -12.4325  -42.9860 H         1 UNK         0.3000 
    175 H175        0.1627  -11.5722  -44.2574 H         1 UNK         0.0600 
    176 H176        2.3819  -13.6784  -43.8922 H         1 UNK         0.0600 
    177 H177        2.6685  -11.9505  -43.9806 H         1 UNK         0.0600 
    178 H178        1.7461  -12.6160  -42.6441 H         1 UNK         0.0600 
    179 H179        0.8751  -13.6075  -46.2304 H         1 UNK         0.3000 
    180 H180        1.1688   -9.6944  -47.5183 H         1 UNK         0.0600 
    181 H181       -0.6550   -8.6447  -46.3026 H         1 UNK         0.0600 
    182 H182       -1.0446  -10.1429  -45.4685 H         1 UNK         0.0600 
    183 H183       -1.2512  -10.0237  -47.2076 H         1 UNK         0.0600 
    184 H184        1.2339   -9.7720  -44.5991 H         1 UNK         0.3000 
    185 H185        3.2079   -8.8100  -47.5480 H         1 UNK         0.0600 
    186 H186        5.8151   -9.2560  -46.0190 H         1 UNK         0.0600 
    187 H187        5.6647   -8.6653  -47.6719 H         1 UNK         0.0600 
    188 H188        5.0471   -7.7072  -46.3365 H         1 UNK         0.0600 
    189 H189        3.5377  -10.8501  -48.3708 H         1 UNK         0.3000 
    190 H190       -1.9381  -22.0232  -46.4778 H         1 UNK         0.3000 
    191 H191       -3.2864  -23.6150  -48.3130 H         1 UNK         0.0600 
    192 H192       -4.2005  -21.5299  -47.3513 H         1 UNK         0.0600 
    193 H193       -4.3136  -22.2756  -45.7584 H         1 UNK         0.0600 
    194 H194       -5.3319  -22.8436  -47.0711 H         1 UNK         0.0600 
    195 H195       -2.2258  -24.5961  -45.1522 H         1 UNK         0.3000 
    196 H196       -4.0173  -26.8096  -44.7656 H         1 UNK         0.0600 
    197 H197       -2.6876  -25.7402  -42.9295 H         1 UNK         0.0600 
    198 H198       -1.1976  -26.3327  -43.6638 H         1 UNK         0.0600 
    199 H199       -2.3810  -27.4680  -43.0310 H         1 UNK         0.0600 
    200 H200       -1.3363  -26.3531  -46.9393 H         1 UNK         0.3000 
    201 H201       -1.2466  -29.2852  -47.5526 H         1 UNK         0.0600 
    202 H202        0.8294  -28.6308  -46.3743 H         1 UNK         0.0600 
    203 H203        1.0851  -27.2985  -47.4992 H         1 UNK         0.0600 
    204 H204        1.1720  -28.9638  -48.0654 H         1 UNK         0.0600 
    205 H205       -0.7677  -25.9325  -48.8304 H         1 UNK         0.3000 
    206 H206       -0.6768  -26.9322  -51.5891 H         1 UNK         0.0600 
    207 H207       -0.4372  -24.1152  -50.4277 H         1 UNK         0.0600 
    208 H208        0.9076  -25.1794  -50.8234 H         1 UNK         0.0600 
    209 H209       -0.1344  -24.5676  -52.1000 H         1 UNK         0.0600 
    210 H210       -2.4296  -27.1167  -52.8228 H         1 UNK         0.3000 
    211 H211       -5.0461  -26.2522  -52.1476 H         1 UNK         0.0600 
    212 H212       -3.8770  -27.1404  -54.8391 H         1 UNK         0.0600 
    213 H213       -5.5912  -27.0229  -54.4601 H         1 UNK         0.0600 
    214 H214       -4.5908  -28.1949  -53.6179 H         1 UNK         0.0600 
    215 H215       -2.4606  -24.6774  -53.9640 H         1 UNK         0.3000 
    216 H216       -3.9859  -22.6326  -55.2383 H         1 UNK         0.0600 
    217 H217       -1.7647  -21.5023  -55.4659 H         1 UNK         0.0600 
    218 H218       -1.6761  -23.1934  -55.9312 H         1 UNK         0.0600 
    219 H219       -1.0427  -22.6739  -54.3696 H         1 UNK         0.0600 
    220 H220       -2.2850  -22.7232  -52.0674 H         1 UNK         0.3000 
    221 H221       -3.0414  -20.0340  -51.3254 H         1 UNK         0.0600 
    222 H222       -1.8918  -22.3656  -49.7285 H         1 UNK         0.0600 
    223 H223       -1.0222  -20.9840  -50.3906 H         1 UNK         0.0600 
    224 H224       -2.1576  -20.7525  -49.0715 H         1 UNK         0.0600 
    225 H225       -4.4645  -23.2653  -50.8088 H         1 UNK         0.3000 
    226 H226       -6.5654  -22.4567  -49.0500 H         1 UNK         0.0600 
    227 H227       -5.8605  -24.8398  -49.4521 H         1 UNK         0.0600 
    228 H228       -7.5889  -24.6019  -49.6666 H         1 UNK         0.0600 
    229 H229       -6.5488  -24.7540  -51.0731 H         1 UNK         0.0600 
    230 H230       -6.1955  -22.2473  -52.5535 H         1 UNK         0.3000 
    231 H231       -8.8897  -21.1578  -53.0053 H         1 UNK         0.0600 
    232 H232       -8.1700  -21.1360  -55.3663 H         1 UNK         0.0600 
    233 H233       -7.8270  -22.7059  -54.6601 H         1 UNK         0.0600 
    234 H234       -6.5223  -21.5492  -54.9085 H         1 UNK         0.0600 
    235 H235       -6.6601  -19.8153  -51.2937 H         1 UNK         0.3000 
    236 H236       -6.0509  -17.8103  -50.6724 H         1 UNK         0.0600 
    237 H237       -8.2450  -16.6986  -52.4960 H         1 UNK         0.0600 
    238 H238       -8.4990  -17.3104  -50.8616 H         1 UNK         0.0600 
    239 H239       -7.5096  -15.8848  -51.1225 H         1 UNK         0.0600 
    240 H240       -4.7114  -19.0041  -53.0049 H         1 UNK         0.3000 
    241 H241       -2.9770  -18.6226  -54.2683 H         1 UNK         0.0600 
    242 H242       -5.5205  -17.1373  -56.7805 H         1 UNK         0.3800 
    243 H243       -5.8823  -17.8564  -55.2307 H         1 UNK         0.3800 
    244 H244       -2.8304  -15.7361  -53.2880 H         1 UNK         0.0800 
    245 H245       -1.5925  -16.5803  -54.1681 H         1 UNK         0.0800 
    246 H246        0.1354  -18.3044  -53.0823 H         1 UNK         0.0800 
    247 H247        0.4133  -16.6127  -52.7288 H         1 UNK         0.0800 
@<TRIPOS>BOND
     1    1    2 1    
     2    1  127 1    
     3    1  128 1    
     4    1  129 1    
     5    2    3 2    
     6    2    4 am   BACKBONE|DICT|INTERRES
     7    4    5 1    
     8    4  130 1    
     9    5    6 1    
    10    5   65 1    
    11    5  131 1    
    12    6    7 1    
    13    6  132 1    
    14    6  133 1    
    15    7    8 1    
    16    8    9 1    
    17    8  134 1    
    18    8  135 1    
    19    9   10 ar   
    20    9   14 ar   
    21   10   11 ar   
    22   10  136 1    
    23   11   12 ar   
    24   11  126 1    
    25   12   13 ar   
    26   12  137 1    
    27   13   14 ar   
    28   13   15 1    
    29   14  138 1    
    30   15   16 1    
    31   15  139 1    
    32   15  140 1    
    33   16   17 1    
    34   17   18 1    
    35   17  141 1    
    36   17  142 1    
    37   18   19 1    
    38   18   67 1    
    39   18  143 1    
    40   19   20 am   BACKBONE|DICT|INTERRES
    41   19  144 1    
    42   20   21 2    
    43   20   22 1    
    44   22   23 1    
    45   22   24 1    
    46   22  145 1    
    47   23  146 1    
    48   23  147 1    
    49   23  148 1    
    50   24   25 am   BACKBONE|DICT|INTERRES
    51   24  149 1    
    52   25   26 2    
    53   25   27 1    
    54   27   28 1    
    55   27   29 1    
    56   27  150 1    
    57   28  151 1    
    58   28  152 1    
    59   28  153 1    
    60   29   30 am   BACKBONE|DICT|INTERRES
    61   29  154 1    
    62   30   31 2    
    63   30   32 1    
    64   32   33 1    
    65   32   34 1    
    66   32  155 1    
    67   33  156 1    
    68   33  157 1    
    69   33  158 1    
    70   34   35 am   BACKBONE|DICT|INTERRES
    71   34  159 1    
    72   35   36 2    
    73   35   37 1    
    74   37   38 1    
    75   37   39 1    
    76   37  160 1    
    77   38  161 1    
    78   38  162 1    
    79   38  163 1    
    80   39   40 am   BACKBONE|DICT|INTERRES
    81   39  164 1    
    82   40   41 2    
    83   40   42 1    
    84   42   43 1    
    85   42   44 1    
    86   42  165 1    
    87   43  166 1    
    88   43  167 1    
    89   43  168 1    
    90   44   45 am   BACKBONE|DICT|INTERRES
    91   44  169 1    
    92   45   46 2    
    93   45   47 1    
    94   47   48 1    
    95   47   49 1    
    96   47  170 1    
    97   48  171 1    
    98   48  172 1    
    99   48  173 1    
   100   49   50 am   BACKBONE|DICT|INTERRES
   101   49  174 1    
   102   50   51 2    
   103   50   52 1    
   104   52   53 1    
   105   52   54 1    
   106   52  175 1    
   107   53  176 1    
   108   53  177 1    
   109   53  178 1    
   110   54   55 am   BACKBONE|DICT|INTERRES
   111   54  179 1    
   112   55   56 2    
   113   55   57 1    
   114   57   58 1    
   115   57   59 1    
   116   57  180 1    
   117   58  181 1    
   118   58  182 1    
   119   58  183 1    
   120   59   60 am   BACKBONE|DICT|INTERRES
   121   59  184 1    
   122   60   61 2    
   123   60   62 1    
   124   62   63 1    
   125   62   64 1    
   126   62  185 1    
   127   63  186 1    
   128   63  187 1    
   129   63  188 1    
   130   64   65 am   BACKBONE|DICT|INTERRES
   131   64  189 1    
   132   65   66 2    
   133   67   68 2    
   134   67   69 am   BACKBONE|DICT|INTERRES
   135   69   70 1    
   136   69  190 1    
   137   70   71 1    
   138   70   72 1    
   139   70  191 1    
   140   71  192 1    
   141   71  193 1    
   142   71  194 1    
   143   72   73 2    
   144   72   74 am   BACKBONE|DICT|INTERRES
   145   74   75 1    
   146   74  195 1    
   147   75   76 1    
   148   75   77 1    
   149   75  196 1    
   150   76  197 1    
   151   76  198 1    
   152   76  199 1    
   153   77   78 2    
   154   77   79 am   BACKBONE|DICT|INTERRES
   155   79   80 1    
   156   79  200 1    
   157   80   81 1    
   158   80   82 1    
   159   80  201 1    
   160   81  202 1    
   161   81  203 1    
   162   81  204 1    
   163   82   83 2    
   164   82   84 am   BACKBONE|DICT|INTERRES
   165   84   85 1    
   166   84  205 1    
   167   85   86 1    
   168   85   87 1    
   169   85  206 1    
   170   86  207 1    
   171   86  208 1    
   172   86  209 1    
   173   87   88 2    
   174   87   89 am   BACKBONE|DICT|INTERRES
   175   89   90 1    
   176   89  210 1    
   177   90   91 1    
   178   90   92 1    
   179   90  211 1    
   180   91  212 1    
   181   91  213 1    
   182   91  214 1    
   183   92   93 2    
   184   92   94 am   BACKBONE|DICT|INTERRES
   185   94   95 1    
   186   94  215 1    
   187   95   96 1    
   188   95   97 1    
   189   95  216 1    
   190   96  217 1    
   191   96  218 1    
   192   96  219 1    
   193   97   98 2    
   194   97   99 am   BACKBONE|DICT|INTERRES
   195   99  100 1    
   196   99  220 1    
   197  100  101 1    
   198  100  102 1    
   199  100  221 1    
   200  101  222 1    
   201  101  223 1    
   202  101  224 1    
   203  102  103 2    
   204  102  104 am   BACKBONE|DICT|INTERRES
   205  104  105 1    
   206  104  225 1    
   207  105  106 1    
   208  105  107 1    
   209  105  226 1    
   210  106  227 1    
   211  106  228 1    
   212  106  229 1    
   213  107  108 2    
   214  107  109 am   BACKBONE|DICT|INTERRES
   215  109  110 1    
   216  109  230 1    
   217  110  111 1    
   218  110  112 1    
   219  110  231 1    
   220  111  232 1    
   221  111  233 1    
   222  111  234 1    
   223  112  113 2    
   224  112  114 am   BACKBONE|DICT|INTERRES
   225  114  115 1    
   226  114  235 1    
   227  115  116 1    
   228  115  117 1    
   229  115  236 1    
   230  116  237 1    
   231  116  238 1    
   232  116  239 1    
   233  117  118 2    
   234  117  119 am   BACKBONE|DICT|INTERRES
   235  119  120 1    
   236  119  240 1    
   237  120  121 1    
   238  120  124 1    
   239  120  241 1    
   240  121  122 am   BACKBONE|DICT|INTERRES
   241  121  123 2    
   242  122  242 1    
   243  122  243 1    
   244  124  125 1    
   245  124  244 1    
   246  124  245 1    
   247  125  126 1    
   248  126  246 1    
   249  126  247 1    
@<TRIPOS>SUBSTRUCTURE
     1 UNK         1 GROUP             0       ****    0 ROOT    
