@<TRIPOS>MOLECULE
3R540
247   249    1
SMALL
USER_CHARGES


@<TRIPOS>ATOM
      1 CA          4.9374  -12.3985  -44.7212 C.3       0 UNK        -0.1800 
      2 C           3.5021  -12.5986  -45.1828 C.2       0 UNK         0.5000 
      3 O           2.5915  -12.6289  -44.3555 O.2       0 UNK        -0.5000 
      4 N           3.2886  -12.7252  -46.4990 N.am      1 UNK        -0.5000 
      5 CA          1.9695  -12.9381  -47.1079 C.3       1 UNK         0.1400 
      6 C6          2.0758  -13.3517  -48.5987 C.3       23 UNK        -0.0398 
      7 S7          0.7941  -14.5628  -49.0629 S.3       23 UNK        -0.2404 
      8 C8          1.7210  -15.6239  -50.2145 C.3       23 UNK        -0.0205 
      9 C9          0.9406  -16.8816  -50.5607 C.ar      23 UNK        -0.0193 
     10 C10        -0.1630  -16.8143  -51.4149 C.ar      23 UNK        -0.1150 
     11 C11        -0.8814  -17.9689  -51.7374 C.ar      23 UNK        -0.0193 
     12 C12        -0.4903  -19.1975  -51.1955 C.ar      23 UNK        -0.1150 
     13 C13         0.6224  -19.2827  -50.3515 C.ar      23 UNK        -0.0193 
     14 C14         1.3334  -18.1179  -50.0411 C.ar      23 UNK        -0.1150 
     15 C15         1.0704  -20.6408  -49.8217 C.3       23 UNK        -0.0205 
     16 S16         1.4884  -20.6131  -48.0466 S.3       23 UNK        -0.2404 
     17 C17         1.4976  -22.3924  -47.6504 C.3       23 UNK        -0.0398 
     18 CA          0.2214  -22.9193  -46.9463 C.3       11 UNK         0.1400 
     19 N           0.1122  -22.4932  -45.5456 N.am      11 UNK        -0.5000 
     20 C          -0.6995  -23.0953  -44.6622 C.2       10 UNK         0.5000 
     21 O          -1.4296  -24.0436  -44.9495 O.2       10 UNK        -0.5000 
     22 CA         -0.7316  -22.5434  -43.2284 C.3       10 UNK         0.1400 
     23 CB          0.5139  -22.9869  -42.4468 C.3       10 UNK        -0.1800 
     24 N          -0.8709  -21.0894  -43.1727 N.am      10 UNK        -0.5000 
     25 C          -1.9307  -20.4063  -43.6288 C.2       9 UNK         0.5000 
     26 O          -2.9094  -20.9340  -44.1560 O.2       9 UNK        -0.5000 
     27 CA         -1.8722  -18.8718  -43.5140 C.3       9 UNK         0.1400 
     28 CB         -2.1930  -18.4094  -42.0849 C.3       9 UNK        -0.1800 
     29 N          -0.5766  -18.3348  -43.9231 N.am      9 UNK        -0.5000 
     30 C          -0.0714  -18.4407  -45.1595 C.2       8 UNK         0.5000 
     31 O          -0.6792  -18.9440  -46.1031 O.2       8 UNK        -0.5000 
     32 CA          1.3719  -17.9460  -45.3534 C.3       8 UNK         0.1400 
     33 CB          1.4168  -16.4228  -45.5482 C.3       8 UNK        -0.1800 
     34 N           2.2341  -18.3306  -44.2356 N.am      8 UNK        -0.5000 
     35 C           2.5968  -19.5908  -43.9535 C.2       7 UNK         0.5000 
     36 O           2.2663  -20.5708  -44.6225 O.2       7 UNK        -0.5000 
     37 CA          3.4417  -19.7903  -42.6816 C.3       7 UNK         0.1400 
     38 CB          4.9203  -19.4774  -42.9563 C.3       7 UNK        -0.1800 
     39 N           2.9722  -18.9748  -41.5596 N.am      7 UNK        -0.5000 
     40 C           1.7965  -19.1518  -40.9407 C.2       6 UNK         0.5000 
     41 O           0.9981  -20.0394  -41.2341 O.2       6 UNK        -0.5000 
     42 CA          1.4264  -18.1415  -39.8392 C.3       6 UNK         0.1400 
     43 CB          2.0152  -18.5768  -38.4891 C.3       6 UNK        -0.1800 
     44 N           1.8373  -16.7642  -40.1277 N.am      6 UNK        -0.5000 
     45 C           1.4602  -16.0593  -41.2027 C.2       5 UNK         0.5000 
     46 O           0.7858  -16.5261  -42.1237 O.2       5 UNK        -0.5000 
     47 CA          1.9649  -14.6055  -41.2717 C.3       5 UNK         0.1400 
     48 CB          3.4038  -14.5707  -41.8098 C.3       5 UNK        -0.1800 
     49 N           1.1288  -13.7532  -42.1173 N.am      5 UNK        -0.5000 
     50 C          -0.1651  -13.4735  -41.9035 C.2       4 UNK         0.5000 
     51 O          -0.7971  -13.8576  -40.9168 O.2       4 UNK        -0.5000 
     52 CA         -0.8435  -12.5899  -42.9708 C.3       4 UNK         0.1400 
     53 CB         -2.2865  -12.1816  -42.6079 C.3       4 UNK        -0.1800 
     54 N          -0.0318  -11.4172  -43.3052 N.am      4 UNK        -0.5000 
     55 C           0.3611  -10.4294  -42.4852 C.2       3 UNK         0.5000 
     56 O          -0.0018  -10.3203  -41.3133 O.2       3 UNK        -0.5000 
     57 CA          1.3468   -9.3917  -43.0599 C.3       3 UNK         0.1400 
     58 CB          2.7368   -9.5664  -42.4262 C.3       3 UNK        -0.1800 
     59 N           1.4823   -9.4814  -44.5146 N.am      3 UNK        -0.5000 
     60 C           0.6387   -8.9337  -45.3998 C.2       2 UNK         0.5000 
     61 O          -0.3217   -8.2302  -45.0855 O.2       2 UNK        -0.5000 
     62 CA          0.9052   -9.2380  -46.8873 C.3       2 UNK         0.1400 
     63 CB          1.7300   -8.1109  -47.5272 C.3       2 UNK        -0.1800 
     64 N           1.5964  -10.5136  -47.0969 N.am      2 UNK        -0.5000 
     65 C           1.0403  -11.7209  -46.9158 C.2       1 UNK         0.5000 
     66 O          -0.1253  -11.8884  -46.5567 O.2       1 UNK        -0.5000 
     67 C          -1.0747  -22.6524  -47.7444 C.2       11 UNK         0.5000 
     68 O          -1.4245  -23.4554  -48.6117 O.2       11 UNK        -0.5000 
     69 N          -1.7786  -21.5577  -47.4175 N.am      12 UNK        -0.5000 
     70 CA         -3.0932  -21.2289  -47.9627 C.3       12 UNK         0.1400 
     71 CB         -3.4748  -19.7910  -47.5836 C.3       12 UNK        -0.1800 
     72 C          -4.1648  -22.2306  -47.5015 C.2       12 UNK         0.5000 
     73 O          -4.8970  -22.7526  -48.3392 O.2       12 UNK        -0.5000 
     74 N          -4.2032  -22.5316  -46.1946 N.am      13 UNK        -0.5000 
     75 CA         -5.1112  -23.5130  -45.5915 C.3       13 UNK         0.1400 
     76 CB         -4.9753  -23.4692  -44.0621 C.3       13 UNK        -0.1800 
     77 C          -4.8958  -24.9463  -46.1147 C.2       13 UNK         0.5000 
     78 O          -5.8695  -25.6714  -46.3216 O.2       13 UNK        -0.5000 
     79 N          -3.6300  -25.3145  -46.3531 N.am      14 UNK        -0.5000 
     80 CA         -3.2275  -26.5758  -46.9784 C.3       14 UNK         0.1400 
     81 CB         -1.7321  -26.8048  -46.7076 C.3       14 UNK        -0.1800 
     82 C          -3.5032  -26.6277  -48.4958 C.2       14 UNK         0.5000 
     83 O          -3.4640  -27.7161  -49.0706 O.2       14 UNK        -0.5000 
     84 N          -3.7521  -25.4620  -49.1124 N.am      15 UNK        -0.5000 
     85 CA         -3.9260  -25.2218  -50.5462 C.3       15 UNK         0.1400 
     86 CB         -5.2446  -25.8356  -51.0562 C.3       15 UNK        -0.1800 
     87 C          -2.6890  -25.6511  -51.3580 C.2       15 UNK         0.5000 
     88 O          -2.8082  -26.3650  -52.3551 O.2       15 UNK        -0.5000 
     89 N          -1.5095  -25.2006  -50.9060 N.am      16 UNK        -0.5000 
     90 CA         -0.2010  -25.5170  -51.4891 C.3       16 UNK         0.1400 
     91 CB          0.8961  -24.9287  -50.5914 C.3       16 UNK        -0.1800 
     92 C          -0.0245  -25.0236  -52.9396 C.2       16 UNK         0.5000 
     93 O           0.7444  -25.6173  -53.6955 O.2       16 UNK        -0.5000 
     94 N          -0.7636  -23.9692  -53.3061 N.am      17 UNK        -0.5000 
     95 CA         -0.8324  -23.3979  -54.6514 C.3       17 UNK         0.1400 
     96 CB         -0.9578  -21.8721  -54.5175 C.3       17 UNK        -0.1800 
     97 C          -1.9880  -23.9951  -55.4859 C.2       17 UNK         0.5000 
     98 O          -2.4280  -23.3651  -56.4484 O.2       17 UNK        -0.5000 
     99 N          -2.4918  -25.1736  -55.0870 N.am      18 UNK        -0.5000 
    100 CA        -3.6286  -25.9378  -55.6212 C.3       18 UNK         0.1400 
    101 CB        -3.4854  -26.2299  -57.1272 C.3       18 UNK        -0.1800 
    102 C         -4.9946  -25.3114  -55.2859 C.2       18 UNK         0.5000 
    103 O         -5.9050  -26.0309  -54.8738 O.2       18 UNK        -0.5000 
    104 N         -5.1008  -23.9872  -55.4232 N.am      19 UNK        -0.5000 
    105 CA        -6.1868  -23.1686  -54.9021 C.3       19 UNK         0.1400 
    106 CB        -6.5877  -22.1342  -55.9640 C.3       19 UNK        -0.1800 
    107 C         -5.6821  -22.4666  -53.6347 C.2       19 UNK         0.5000 
    108 O         -4.5562  -21.9640  -53.6275 O.2       19 UNK        -0.5000 
    109 N         -6.5255  -22.4125  -52.5969 N.am      20 UNK        -0.5000 
    110 CA        -6.2164  -21.7872  -51.3060 C.3       20 UNK         0.1400 
    111 CB        -7.3580  -22.0838  -50.3215 C.3       20 UNK        -0.1800 
    112 C         -5.9658  -20.2705  -51.3994 C.2       20 UNK         0.5000 
    113 O         -5.1248  -19.7412  -50.6742 O.2       20 UNK        -0.5000 
    114 N         -6.6881  -19.6120  -52.3129 N.am      21 UNK        -0.5000 
    115 CA        -6.5894  -18.1805  -52.5943 C.3       21 UNK         0.1400 
    116 CB        -8.0049  -17.6520  -52.8852 C.3       21 UNK        -0.1800 
    117 C         -5.6315  -17.8641  -53.7619 C.2       21 UNK         0.5000 
    118 O         -5.5655  -16.7035  -54.1698 O.2       21 UNK        -0.5000 
    119 N         -4.9268  -18.8798  -54.2873 N.am      22 UNK        -0.5000 
    120 CA        -4.1033  -18.8376  -55.5103 C.3       22 UNK         0.1400 
    121 C         -4.9399  -18.6431  -56.8150 C.2       22 UNK         0.5000 
    122 N         -4.3063  -18.6806  -57.9801 N.am      22 UNK        -0.7600 
    123 O         -6.1608  -18.5001  -56.8019 O.2       22 UNK        -0.5000 
    124 C124       -2.9086  -17.8405  -55.4092 C.3       23 UNK        -0.0398 
    125 S125       -1.5580  -18.4503  -54.3513 S.3       23 UNK        -0.2404 
    126 C126       -2.0589  -17.8924  -52.6956 C.3       23 UNK        -0.0205 
    127 H127        5.0261  -11.4647  -44.1664 H         1 UNK         0.0600 
    128 H128        5.2358  -13.2158  -44.0649 H         1 UNK         0.0600 
    129 H129        5.6323  -12.3640  -45.5605 H         1 UNK         0.0600 
    130 H130        4.0742  -12.6890  -47.1329 H         1 UNK         0.3000 
    131 H131        1.5184  -13.7624  -46.5527 H         1 UNK         0.0600 
    132 H132        3.0484  -13.8087  -48.7847 H         1 UNK         0.0800 
    133 H133        2.0252  -12.4940  -49.2722 H         1 UNK         0.0800 
    134 H134        2.6824  -15.8916  -49.7734 H         1 UNK         0.0800 
    135 H135        1.9415  -15.0655  -51.1255 H         1 UNK         0.0800 
    136 H136       -0.4585  -15.8612  -51.8306 H         1 UNK         0.1150 
    137 H137       -1.0412  -20.0905  -51.4563 H         1 UNK         0.1150 
    138 H138        2.1975  -18.1751  -49.3945 H         1 UNK         0.1150 
    139 H139        0.2867  -21.3796  -49.9924 H         1 UNK         0.0800 
    140 H140        1.9405  -20.9732  -50.3889 H         1 UNK         0.0800 
    141 H141        1.6830  -22.9583  -48.5627 H         1 UNK         0.0800 
    142 H142        2.3644  -22.5846  -47.0165 H         1 UNK         0.0800 
    143 H143        0.3311  -24.0058  -46.9211 H         1 UNK         0.0600 
    144 H144        0.7012  -21.7199  -45.2498 H         1 UNK         0.3000 
    145 H145       -1.6050  -22.9734  -42.7335 H         1 UNK         0.0600 
    146 H146        0.4358  -22.7132  -41.3946 H         1 UNK         0.0600 
    147 H147        0.6390  -24.0695  -42.4905 H         1 UNK         0.0600 
    148 H148        1.4226  -22.5344  -42.8442 H         1 UNK         0.0600 
    149 H149       -0.1242  -20.5838  -42.7046 H         1 UNK         0.3000 
    150 H150       -2.6299  -18.4584  -44.1828 H         1 UNK         0.0600 
    151 H151       -3.1786  -18.7583  -41.7748 H         1 UNK         0.0600 
    152 H152       -2.1934  -17.3214  -42.0132 H         1 UNK         0.0600 
    153 H153       -1.4684  -18.7903  -41.3654 H         1 UNK         0.0600 
    154 H154       -0.0282  -17.8559  -43.2132 H         1 UNK         0.3000 
    155 H155        1.7687  -18.4057  -46.2587 H         1 UNK         0.0600 
    156 H156        2.4305  -16.0801  -45.7559 H         1 UNK         0.0600 
    157 H157        1.0533  -15.8843  -44.6729 H         1 UNK         0.0600 
    158 H158        0.7942  -16.1284  -46.3936 H         1 UNK         0.0600 
    159 H159        2.4881  -17.5981  -43.5899 H         1 UNK         0.3000 
    160 H160        3.3648  -20.8408  -42.3928 H         1 UNK         0.0600 
    161 H161        5.0699  -18.4301  -43.2215 H         1 UNK         0.0600 
    162 H162        5.2996  -20.0825  -43.7809 H         1 UNK         0.0600 
    163 H163        5.5376  -19.6948  -42.0845 H         1 UNK         0.0600 
    164 H164        3.5680  -18.2183  -41.2579 H         1 UNK         0.3000 
    165 H165        0.3383  -18.1431  -39.7499 H         1 UNK         0.0600 
    166 H166        3.1056  -18.5553  -38.4988 H         1 UNK         0.0600 
    167 H167        1.6729  -17.9292  -37.6817 H         1 UNK         0.0600 
    168 H168        1.7090  -19.5937  -38.2392 H         1 UNK         0.0600 
    169 H169        2.4073  -16.3138  -39.4262 H         1 UNK         0.3000 
    170 H170        1.9535  -14.1871  -40.2635 H         1 UNK         0.0600 
    171 H171        4.0758  -15.1604  -41.1853 H         1 UNK         0.0600 
    172 H172        3.4616  -14.9689  -42.8239 H         1 UNK         0.0600 
    173 H173        3.7914  -13.5518  -41.8287 H         1 UNK         0.0600 
    174 H174        1.5762  -13.3734  -42.9481 H         1 UNK         0.3000 
    175 H175       -0.8925  -13.1939  -43.8782 H         1 UNK         0.0600 
    176 H176       -2.7333  -11.5757  -43.3961 H         1 UNK         0.0600 
    177 H177       -2.9178  -13.0613  -42.4776 H         1 UNK         0.0600 
    178 H178       -2.3286  -11.6101  -41.6804 H         1 UNK         0.0600 
    179 H179        0.3500  -11.4178  -44.2413 H         1 UNK         0.3000 
    180 H180        0.9741   -8.3997  -42.7961 H         1 UNK         0.0600 
    181 H181        3.4431   -8.8307  -42.8111 H         1 UNK         0.0600 
    182 H182        2.6912   -9.4362  -41.3442 H         1 UNK         0.0600 
    183 H183        3.1456  -10.5590  -42.6172 H         1 UNK         0.0600 
    184 H184        2.2323  -10.0612  -44.8604 H         1 UNK         0.3000 
    185 H185       -0.0616   -9.2841  -47.3933 H         1 UNK         0.0600 
    186 H186        1.8661   -8.2792  -48.5956 H         1 UNK         0.0600 
    187 H187        1.2303   -7.1480  -47.4125 H         1 UNK         0.0600 
    188 H188        2.7171   -8.0247  -47.0712 H         1 UNK         0.0600 
    189 H189        2.5664  -10.4634  -47.3730 H         1 UNK         0.3000 
    190 H190       -1.3949  -20.9119  -46.7364 H         1 UNK         0.3000 
    191 H191       -3.0317  -21.2828  -49.0520 H         1 UNK         0.0600 
    192 H192       -4.4624  -19.5345  -47.9684 H         1 UNK         0.0600 
    193 H193       -2.7671  -19.0761  -48.0043 H         1 UNK         0.0600 
    194 H194       -3.4942  -19.6465  -46.5034 H         1 UNK         0.0600 
    195 H195       -3.5843  -22.0385  -45.5556 H         1 UNK         0.3000 
    196 H196       -6.1307  -23.2195  -45.8499 H         1 UNK         0.0600 
    197 H197       -5.6486  -24.1843  -43.5879 H         1 UNK         0.0600 
    198 H198       -5.2239  -22.4817  -43.6730 H         1 UNK         0.0600 
    199 H199       -3.9609  -23.7090  -43.7419 H         1 UNK         0.0600 
    200 H200       -2.8803  -24.6881  -46.0726 H         1 UNK         0.3000 
    201 H201       -3.7891  -27.3880  -46.5125 H         1 UNK         0.0600 
    202 H202       -1.5216  -26.8196  -45.6381 H         1 UNK         0.0600 
    203 H203       -1.1202  -26.0233  -47.1595 H         1 UNK         0.0600 
    204 H204       -1.4001  -27.7595  -47.1172 H         1 UNK         0.0600 
    205 H205       -3.7719  -24.6277  -48.5391 H         1 UNK         0.3000 
    206 H206       -3.9999  -24.1411  -50.6650 H         1 UNK         0.0600 
    207 H207       -6.0937  -25.4801  -50.4724 H         1 UNK         0.0600 
    208 H208       -5.4267  -25.5572  -52.0946 H         1 UNK         0.0600 
    209 H209       -5.2330  -26.9246  -51.0059 H         1 UNK         0.0600 
    210 H210       -1.5030  -24.6172  -50.0711 H         1 UNK         0.3000 
    211 H211       -0.0962  -26.6037  -51.4951 H         1 UNK         0.0600 
    212 H212        0.8427  -23.8402  -50.5679 H         1 UNK         0.0600 
    213 H213        1.8880  -25.2018  -50.9537 H         1 UNK         0.0600 
    214 H214        0.8101  -25.2947  -49.5679 H         1 UNK         0.0600 
    215 H215       -1.3786  -23.5613  -52.6173 H         1 UNK         0.3000 
    216 H216        0.0931  -23.6116  -55.1896 H         1 UNK         0.0600 
    217 H217       -0.9406  -21.3859  -55.4936 H         1 UNK         0.0600 
    218 H218       -0.1333  -21.4560  -53.9381 H         1 UNK         0.0600 
    219 H219       -1.8882  -21.5866  -54.0254 H         1 UNK         0.0600 
    220 H220       -2.1115  -25.5659  -54.2337 H         1 UNK         0.3000 
    221 H221       -3.5940  -26.8977  -55.1032 H         1 UNK         0.0600 
    222 H222       -3.5748  -25.3278  -57.7326 H         1 UNK         0.0600 
    223 H223       -2.5235  -26.6916  -57.3500 H         1 UNK         0.0600 
    224 H224       -4.2622  -26.9189  -57.4608 H         1 UNK         0.0600 
    225 H225       -4.2771  -23.4854  -55.7406 H         1 UNK         0.3000 
    226 H226       -7.0575  -23.7814  -54.6596 H         1 UNK         0.0600 
    227 H227       -7.3689  -21.4694  -55.5930 H         1 UNK         0.0600 
    228 H228       -5.7414  -21.5144  -56.2612 H         1 UNK         0.0600 
    229 H229       -6.9725  -22.6215  -56.8599 H         1 UNK         0.0600 
    230 H230       -7.4357  -22.8426  -52.6793 H         1 UNK         0.3000 
    231 H231       -5.3016  -22.2404  -50.9233 H         1 UNK         0.0600 
    232 H232       -7.1745  -21.6114  -49.3555 H         1 UNK         0.0600 
    233 H233       -7.4532  -23.1549  -50.1421 H         1 UNK         0.0600 
    234 H234       -8.3161  -21.7147  -50.6891 H         1 UNK         0.0600 
    235 H235       -7.3467  -20.1351  -52.8712 H         1 UNK         0.3000 
    236 H236       -6.2086  -17.6563  -51.7153 H         1 UNK         0.0600 
    237 H237       -8.4256  -18.1048  -53.7839 H         1 UNK         0.0600 
    238 H238       -8.6815  -17.8589  -52.0558 H         1 UNK         0.0600 
    239 H239       -8.0000  -16.5714  -53.0335 H         1 UNK         0.0600 
    240 H240       -5.0250  -19.7967  -53.8715 H         1 UNK         0.3000 
    241 H241       -3.6932  -19.8446  -55.6019 H         1 UNK         0.0600 
    242 H242       -4.8425  -18.5708  -58.8270 H         1 UNK         0.3800 
    243 H243       -3.3125  -18.8369  -58.0445 H         1 UNK         0.3800 
    244 H244       -3.2222  -16.8514  -55.0779 H         1 UNK         0.0800 
    245 H245       -2.4531  -17.6762  -56.3859 H         1 UNK         0.0800 
    246 H246       -2.4434  -16.8727  -52.7474 H         1 UNK         0.0800 
    247 H247       -2.8745  -18.5175  -52.3287 H         1 UNK         0.0800 
@<TRIPOS>BOND
     1    1    2 1    
     2    1  127 1    
     3    1  128 1    
     4    1  129 1    
     5    2    3 2    
     6    2    4 am   BACKBONE|DICT|INTERRES
     7    4    5 1    
     8    4  130 1    
     9    5    6 1    
    10    5   65 1    
    11    5  131 1    
    12    6    7 1    
    13    6  132 1    
    14    6  133 1    
    15    7    8 1    
    16    8    9 1    
    17    8  134 1    
    18    8  135 1    
    19    9   10 ar   
    20    9   14 ar   
    21   10   11 ar   
    22   10  136 1    
    23   11   12 ar   
    24   11  126 1    
    25   12   13 ar   
    26   12  137 1    
    27   13   14 ar   
    28   13   15 1    
    29   14  138 1    
    30   15   16 1    
    31   15  139 1    
    32   15  140 1    
    33   16   17 1    
    34   17   18 1    
    35   17  141 1    
    36   17  142 1    
    37   18   19 1    
    38   18   67 1    
    39   18  143 1    
    40   19   20 am   BACKBONE|DICT|INTERRES
    41   19  144 1    
    42   20   21 2    
    43   20   22 1    
    44   22   23 1    
    45   22   24 1    
    46   22  145 1    
    47   23  146 1    
    48   23  147 1    
    49   23  148 1    
    50   24   25 am   BACKBONE|DICT|INTERRES
    51   24  149 1    
    52   25   26 2    
    53   25   27 1    
    54   27   28 1    
    55   27   29 1    
    56   27  150 1    
    57   28  151 1    
    58   28  152 1    
    59   28  153 1    
    60   29   30 am   BACKBONE|DICT|INTERRES
    61   29  154 1    
    62   30   31 2    
    63   30   32 1    
    64   32   33 1    
    65   32   34 1    
    66   32  155 1    
    67   33  156 1    
    68   33  157 1    
    69   33  158 1    
    70   34   35 am   BACKBONE|DICT|INTERRES
    71   34  159 1    
    72   35   36 2    
    73   35   37 1    
    74   37   38 1    
    75   37   39 1    
    76   37  160 1    
    77   38  161 1    
    78   38  162 1    
    79   38  163 1    
    80   39   40 am   BACKBONE|DICT|INTERRES
    81   39  164 1    
    82   40   41 2    
    83   40   42 1    
    84   42   43 1    
    85   42   44 1    
    86   42  165 1    
    87   43  166 1    
    88   43  167 1    
    89   43  168 1    
    90   44   45 am   BACKBONE|DICT|INTERRES
    91   44  169 1    
    92   45   46 2    
    93   45   47 1    
    94   47   48 1    
    95   47   49 1    
    96   47  170 1    
    97   48  171 1    
    98   48  172 1    
    99   48  173 1    
   100   49   50 am   BACKBONE|DICT|INTERRES
   101   49  174 1    
   102   50   51 2    
   103   50   52 1    
   104   52   53 1    
   105   52   54 1    
   106   52  175 1    
   107   53  176 1    
   108   53  177 1    
   109   53  178 1    
   110   54   55 am   BACKBONE|DICT|INTERRES
   111   54  179 1    
   112   55   56 2    
   113   55   57 1    
   114   57   58 1    
   115   57   59 1    
   116   57  180 1    
   117   58  181 1    
   118   58  182 1    
   119   58  183 1    
   120   59   60 am   BACKBONE|DICT|INTERRES
   121   59  184 1    
   122   60   61 2    
   123   60   62 1    
   124   62   63 1    
   125   62   64 1    
   126   62  185 1    
   127   63  186 1    
   128   63  187 1    
   129   63  188 1    
   130   64   65 am   BACKBONE|DICT|INTERRES
   131   64  189 1    
   132   65   66 2    
   133   67   68 2    
   134   67   69 am   BACKBONE|DICT|INTERRES
   135   69   70 1    
   136   69  190 1    
   137   70   71 1    
   138   70   72 1    
   139   70  191 1    
   140   71  192 1    
   141   71  193 1    
   142   71  194 1    
   143   72   73 2    
   144   72   74 am   BACKBONE|DICT|INTERRES
   145   74   75 1    
   146   74  195 1    
   147   75   76 1    
   148   75   77 1    
   149   75  196 1    
   150   76  197 1    
   151   76  198 1    
   152   76  199 1    
   153   77   78 2    
   154   77   79 am   BACKBONE|DICT|INTERRES
   155   79   80 1    
   156   79  200 1    
   157   80   81 1    
   158   80   82 1    
   159   80  201 1    
   160   81  202 1    
   161   81  203 1    
   162   81  204 1    
   163   82   83 2    
   164   82   84 am   BACKBONE|DICT|INTERRES
   165   84   85 1    
   166   84  205 1    
   167   85   86 1    
   168   85   87 1    
   169   85  206 1    
   170   86  207 1    
   171   86  208 1    
   172   86  209 1    
   173   87   88 2    
   174   87   89 am   BACKBONE|DICT|INTERRES
   175   89   90 1    
   176   89  210 1    
   177   90   91 1    
   178   90   92 1    
   179   90  211 1    
   180   91  212 1    
   181   91  213 1    
   182   91  214 1    
   183   92   93 2    
   184   92   94 am   BACKBONE|DICT|INTERRES
   185   94   95 1    
   186   94  215 1    
   187   95   96 1    
   188   95   97 1    
   189   95  216 1    
   190   96  217 1    
   191   96  218 1    
   192   96  219 1    
   193   97   98 2    
   194   97   99 am   BACKBONE|DICT|INTERRES
   195   99  100 1    
   196   99  220 1    
   197  100  101 1    
   198  100  102 1    
   199  100  221 1    
   200  101  222 1    
   201  101  223 1    
   202  101  224 1    
   203  102  103 2    
   204  102  104 am   BACKBONE|DICT|INTERRES
   205  104  105 1    
   206  104  225 1    
   207  105  106 1    
   208  105  107 1    
   209  105  226 1    
   210  106  227 1    
   211  106  228 1    
   212  106  229 1    
   213  107  108 2    
   214  107  109 am   BACKBONE|DICT|INTERRES
   215  109  110 1    
   216  109  230 1    
   217  110  111 1    
   218  110  112 1    
   219  110  231 1    
   220  111  232 1    
   221  111  233 1    
   222  111  234 1    
   223  112  113 2    
   224  112  114 am   BACKBONE|DICT|INTERRES
   225  114  115 1    
   226  114  235 1    
   227  115  116 1    
   228  115  117 1    
   229  115  236 1    
   230  116  237 1    
   231  116  238 1    
   232  116  239 1    
   233  117  118 2    
   234  117  119 am   BACKBONE|DICT|INTERRES
   235  119  120 1    
   236  119  240 1    
   237  120  121 1    
   238  120  124 1    
   239  120  241 1    
   240  121  122 am   BACKBONE|DICT|INTERRES
   241  121  123 2    
   242  122  242 1    
   243  122  243 1    
   244  124  125 1    
   245  124  244 1    
   246  124  245 1    
   247  125  126 1    
   248  126  246 1    
   249  126  247 1    
@<TRIPOS>SUBSTRUCTURE
     1 UNK         1 GROUP             0       ****    0 ROOT    
