@<TRIPOS>MOLECULE
3R540
247   249    1
SMALL
USER_CHARGES


@<TRIPOS>ATOM
      1 CA         -0.2698   -8.0116  -45.8383 C.3       0 UNK        -0.1800 
      2 C          -0.1345   -9.4007  -46.4454 C.2       0 UNK         0.5000 
      3 O          -0.9194  -10.2892  -46.1163 O.2       0 UNK        -0.5000 
      4 N           0.8587   -9.5871  -47.3270 N.am      1 UNK        -0.5000 
      5 CA          1.1783  -10.8444  -48.0190 C.3       1 UNK         0.1400 
      6 C6          0.0313  -11.3254  -48.9526 C.3       23 UNK        -0.0398 
      7 S7          0.6420  -12.3176  -50.3573 S.3       23 UNK        -0.2404 
      8 C8         -0.1845  -13.9127  -50.0614 C.3       23 UNK        -0.0205 
      9 C9          0.5747  -15.0490  -50.7247 C.ar      23 UNK        -0.0193 
     10 C10         0.5342  -15.2059  -52.1132 C.ar      23 UNK        -0.1150 
     11 C11         1.2247  -16.2526  -52.7318 C.ar      23 UNK        -0.0193 
     12 C12         1.9779  -17.1313  -51.9477 C.ar      23 UNK        -0.1150 
     13 C13         2.0358  -16.9787  -50.5587 C.ar      23 UNK        -0.0193 
     14 C14         1.3239  -15.9406  -49.9513 C.ar      23 UNK        -0.1150 
     15 C15         2.8912  -17.9212  -49.7238 C.3       23 UNK        -0.0205 
     16 S16         2.2274  -19.6149  -49.7148 S.3       23 UNK        -0.2404 
     17 C17         0.7423  -19.4248  -48.6730 C.3       23 UNK        -0.0398 
     18 CA          0.5248  -20.6475  -47.7479 C.3       11 UNK         0.1400 
     19 N          -0.1714  -20.2779  -46.5090 N.am      11 UNK        -0.5000 
     20 C          -0.3460  -21.1019  -45.4653 C.2       10 UNK         0.5000 
     21 O          -0.0022  -22.2835  -45.4622 O.2       10 UNK        -0.5000 
     22 CA         -1.0349  -20.5174  -44.2256 C.3       10 UNK         0.1400 
     23 CB         -0.0187  -19.7679  -43.3547 C.3       10 UNK        -0.1800 
     24 N          -2.1449  -19.6329  -44.5792 N.am      10 UNK        -0.5000 
     25 C          -3.3653  -20.0660  -44.9267 C.2       9 UNK         0.5000 
     26 O          -3.6892  -21.2516  -44.9710 O.2       9 UNK        -0.5000 
     27 CA         -4.3956  -18.9941  -45.3145 C.3       9 UNK         0.1400 
     28 CB         -5.1058  -18.4420  -44.0701 C.3       9 UNK        -0.1800 
     29 N          -3.8011  -17.8988  -46.0766 N.am      9 UNK        -0.5000 
     30 C          -3.3754  -18.0136  -47.3426 C.2       8 UNK         0.5000 
     31 O          -3.4465  -19.0540  -48.0015 O.2       8 UNK        -0.5000 
     32 CA         -2.7516  -16.7585  -47.9829 C.3       8 UNK         0.1400 
     33 CB         -3.8429  -15.9290  -48.6762 C.3       8 UNK        -0.1800 
     34 N          -2.0330  -15.8907  -47.0493 N.am      8 UNK        -0.5000 
     35 C          -1.0198  -16.2537  -46.2527 C.2       7 UNK         0.5000 
     36 O          -0.5792  -17.4041  -46.1921 O.2       7 UNK        -0.5000 
     37 CA         -0.4175  -15.1650  -45.3403 C.3       7 UNK         0.1400 
     38 CB         -1.1143  -13.7886  -45.4444 C.3       7 UNK        -0.1800 
     39 N          -0.3689  -15.5951  -43.9422 N.am      7 UNK        -0.5000 
     40 C          -1.4023  -16.0019  -43.1883 C.2       6 UNK         0.5000 
     41 O          -2.5592  -16.0847  -43.6043 O.2       6 UNK        -0.5000 
     42 CA         -1.0769  -16.4059  -41.7390 C.3       6 UNK         0.1400 
     43 CB         -2.1118  -17.3827  -41.1486 C.3       6 UNK        -0.1800 
     44 N           0.2606  -16.9969  -41.6673 N.am      6 UNK        -0.5000 
     45 C           1.2310  -16.6269  -40.8260 C.2       5 UNK         0.5000 
     46 O           1.0897  -15.7781  -39.9448 O.2       5 UNK        -0.5000 
     47 CA          2.6030  -17.3113  -41.0029 C.3       5 UNK         0.1400 
     48 CB          2.6981  -18.5418  -40.0872 C.3       5 UNK        -0.1800 
     49 N           2.9644  -17.7141  -42.3716 N.am      5 UNK        -0.5000 
     50 C           2.9880  -16.9225  -43.4529 C.2       4 UNK         0.5000 
     51 O           2.5118  -15.7827  -43.4828 O.2       4 UNK        -0.5000 
     52 CA          3.6610  -17.4990  -44.7121 C.3       4 UNK         0.1400 
     53 CB          2.7876  -18.5559  -45.4055 C.3       4 UNK        -0.1800 
     54 N           3.8914  -16.3925  -45.6294 N.am      4 UNK        -0.5000 
     55 C           4.9992  -16.1546  -46.3399 C.2       3 UNK         0.5000 
     56 O           5.9330  -16.9511  -46.4442 O.2       3 UNK        -0.5000 
     57 CA          5.0858  -14.7786  -47.0345 C.3       3 UNK         0.1400 
     58 CB          4.8782  -14.9126  -48.5506 C.3       3 UNK        -0.1800 
     59 N           4.1048  -13.8248  -46.5103 N.am      3 UNK        -0.5000 
     60 C           4.1940  -13.1701  -45.3461 C.2       2 UNK         0.5000 
     61 O           5.1922  -13.2120  -44.6252 O.2       2 UNK        -0.5000 
     62 CA          2.9526  -12.3502  -44.9198 C.3       2 UNK         0.1400 
     63 CB          3.2173  -11.4656  -43.6884 C.3       2 UNK        -0.1800 
     64 N           2.4045  -11.5101  -45.9898 N.am      2 UNK        -0.5000 
     65 C           1.6995  -11.9339  -47.0489 C.2       1 UNK         0.5000 
     66 O           1.4821  -13.1268  -47.2667 O.2       1 UNK        -0.5000 
     67 C          -0.1541  -21.8183  -48.4969 C.2       11 UNK         0.5000 
     68 O           0.5375  -22.6416  -49.0980 O.2       11 UNK        -0.5000 
     69 N          -1.4879  -21.8970  -48.3978 N.am      12 UNK        -0.5000 
     70 CA         -2.3115  -22.9481  -48.9914 C.3       12 UNK         0.1400 
     71 CB         -3.3559  -22.2896  -49.8967 C.3       12 UNK        -0.1800 
     72 C          -2.9607  -23.8589  -47.9332 C.2       12 UNK         0.5000 
     73 O          -3.9642  -24.5106  -48.2392 O.2       12 UNK        -0.5000 
     74 N          -2.3907  -23.9154  -46.7193 N.am      13 UNK        -0.5000 
     75 CA         -2.8305  -24.8287  -45.6591 C.3       13 UNK         0.1400 
     76 CB         -2.2082  -24.4279  -44.3136 C.3       13 UNK        -0.1800 
     77 C          -2.4885  -26.2928  -45.9851 C.2       13 UNK         0.5000 
     78 O          -3.3011  -27.1786  -45.7232 O.2       13 UNK        -0.5000 
     79 N          -1.3155  -26.5135  -46.5985 N.am      14 UNK        -0.5000 
     80 CA         -0.8489  -27.8220  -47.0689 C.3       14 UNK         0.1400 
     81 CB          0.6355  -27.7183  -47.4514 C.3       14 UNK        -0.1800 
     82 C          -1.6768  -28.3617  -48.2519 C.2       14 UNK         0.5000 
     83 O          -1.8402  -29.5752  -48.3816 O.2       14 UNK        -0.5000 
     84 N          -2.2078  -27.4443  -49.0719 N.am      15 UNK        -0.5000 
     85 CA         -3.1453  -27.7307  -50.1594 C.3       15 UNK         0.1400 
     86 CB         -3.0978  -26.5676  -51.1652 C.3       15 UNK        -0.1800 
     87 C          -4.5895  -27.9439  -49.6598 C.2       15 UNK         0.5000 
     88 O          -5.4209  -28.4374  -50.4223 O.2       15 UNK        -0.5000 
     89 N          -4.8637  -27.5386  -48.4087 N.am      16 UNK        -0.5000 
     90 CA         -6.1634  -27.5108  -47.7279 C.3       16 UNK         0.1400 
     91 CB         -6.7086  -28.9395  -47.5224 C.3       16 UNK        -0.1800 
     92 C          -7.1847  -26.5665  -48.3996 C.2       16 UNK         0.5000 
     93 O          -8.3946  -26.7598  -48.2435 O.2       16 UNK        -0.5000 
     94 N          -6.6802  -25.5634  -49.1335 N.am      17 UNK        -0.5000 
     95 CA         -7.4809  -24.5946  -49.8800 C.3       17 UNK         0.1400 
     96 CB         -6.8705  -24.4065  -51.2782 C.3       17 UNK        -0.1800 
     97 C          -7.5780  -23.2501  -49.1434 C.2       17 UNK         0.5000 
     98 O          -8.6183  -22.5977  -49.2299 O.2       17 UNK        -0.5000 
     99 N          -6.5012  -22.8643  -48.4365 N.am      18 UNK        -0.5000 
    100 CA        -6.3614  -21.6352  -47.6405 C.3       18 UNK         0.1400 
    101 CB        -7.2269  -21.7310  -46.3668 C.3       18 UNK        -0.1800 
    102 C         -6.6074  -20.3298  -48.4385 C.2       18 UNK         0.5000 
    103 O         -7.1056  -19.3507  -47.8803 O.2       18 UNK        -0.5000 
    104 N         -6.2554  -20.3429  -49.7313 N.am      19 UNK        -0.5000 
    105 CA        -6.4722  -19.2542  -50.6828 C.3       19 UNK         0.1400 
    106 CB        -7.7121  -19.5758  -51.5381 C.3       19 UNK        -0.1800 
    107 C         -5.2072  -19.0042  -51.5245 C.2       19 UNK         0.5000 
    108 O         -5.2959  -18.8469  -52.7437 O.2       19 UNK        -0.5000 
    109 N         -4.0445  -18.9862  -50.8567 N.am      20 UNK        -0.5000 
    110 CA        -2.6943  -18.6836  -51.3559 C.3       20 UNK         0.1400 
    111 CB        -2.6234  -17.2681  -51.9530 C.3       20 UNK        -0.1800 
    112 C         -2.0885  -19.7242  -52.3190 C.2       20 UNK         0.5000 
    113 O         -0.9231  -20.0793  -52.1472 O.2       20 UNK        -0.5000 
    114 N         -2.8919  -20.2209  -53.2718 N.am      21 UNK        -0.5000 
    115 CA        -2.5813  -21.2704  -54.2518 C.3       21 UNK         0.1400 
    116 CB        -2.4802  -22.6433  -53.5523 C.3       21 UNK        -0.1800 
    117 C         -1.3489  -20.9404  -55.1240 C.2       21 UNK         0.5000 
    118 O         -0.4676  -21.7828  -55.3069 O.2       21 UNK        -0.5000 
    119 N         -1.3077  -19.7010  -55.6296 N.am      22 UNK        -0.5000 
    120 CA        -0.1739  -19.1249  -56.3774 C.3       22 UNK         0.1400 
    121 C          0.0476  -19.7028  -57.8071 C.2       22 UNK         0.5000 
    122 N         -0.8842  -20.4594  -58.3745 N.am      22 UNK        -0.7600 
    123 O          1.0885  -19.4605  -58.4125 O.2       22 UNK        -0.5000 
    124 C124       -0.2365  -17.5742  -56.4279 C.3       23 UNK        -0.0398 
    125 S125       -0.5283  -16.8154  -54.7953 S.3       23 UNK        -0.2404 
    126 C126        1.1621  -16.4325  -54.2430 C.3       23 UNK        -0.0205 
    127 H127        0.4847   -7.3247  -46.2224 H         1 UNK         0.0600 
    128 H128       -0.1620   -8.0642  -44.7549 H         1 UNK         0.0600 
    129 H129       -1.2526   -7.5980  -46.0643 H         1 UNK         0.0600 
    130 H130        1.4610   -8.8073  -47.5532 H         1 UNK         0.3000 
    131 H131        2.0320  -10.5955  -48.6512 H         1 UNK         0.0600 
    132 H132       -0.7351  -11.8647  -48.3943 H         1 UNK         0.0800 
    133 H133       -0.4766  -10.4626  -49.3850 H         1 UNK         0.0800 
    134 H134       -0.2698  -14.0998  -48.9903 H         1 UNK         0.0800 
    135 H135       -1.2033  -13.8716  -50.4489 H         1 UNK         0.0800 
    136 H136       -0.0445  -14.5178  -52.7132 H         1 UNK         0.1150 
    137 H137        2.5217  -17.9401  -52.4152 H         1 UNK         0.1150 
    138 H138        1.3647  -15.8146  -48.8782 H         1 UNK         0.1150 
    139 H139        3.9007  -17.9412  -50.1375 H         1 UNK         0.0800 
    140 H140        2.9910  -17.5633  -48.6975 H         1 UNK         0.0800 
    141 H141       -0.1246  -19.2338  -49.3062 H         1 UNK         0.0800 
    142 H142        0.8749  -18.5249  -48.0721 H         1 UNK         0.0800 
    143 H143        1.5061  -21.0070  -47.4290 H         1 UNK         0.0600 
    144 H144       -0.4554  -19.3061  -46.4181 H         1 UNK         0.3000 
    145 H145       -1.4189  -21.3525  -43.6365 H         1 UNK         0.0600 
    146 H146       -0.4314  -19.5699  -42.3671 H         1 UNK         0.0600 
    147 H147        0.8840  -20.3614  -43.2022 H         1 UNK         0.0600 
    148 H148        0.2774  -18.8235  -43.8104 H         1 UNK         0.0600 
    149 H149       -1.9500  -18.6429  -44.6380 H         1 UNK         0.3000 
    150 H150       -5.1479  -19.4688  -45.9432 H         1 UNK         0.0600 
    151 H151       -5.6130  -19.2406  -43.5271 H         1 UNK         0.0600 
    152 H152       -5.8607  -17.7039  -44.3418 H         1 UNK         0.0600 
    153 H153       -4.4074  -17.9704  -43.3788 H         1 UNK         0.0600 
    154 H154       -3.6697  -17.0214  -45.5904 H         1 UNK         0.3000 
    155 H155       -2.0339  -17.0923  -48.7338 H         1 UNK         0.0600 
    156 H156       -4.5333  -15.4919  -47.9536 H         1 UNK         0.0600 
    157 H157       -4.4358  -16.5408  -49.3566 H         1 UNK         0.0600 
    158 H158       -3.4103  -15.1160  -49.2598 H         1 UNK         0.0600 
    159 H159       -2.3489  -14.9332  -46.9998 H         1 UNK         0.3000 
    160 H160        0.6176  -15.0455  -45.6611 H         1 UNK         0.0600 
    161 H161       -2.1531  -13.8237  -45.1148 H         1 UNK         0.0600 
    162 H162       -1.1015  -13.4086  -46.4660 H         1 UNK         0.0600 
    163 H163       -0.6003  -13.0485  -44.8307 H         1 UNK         0.0600 
    164 H164        0.5590  -15.5963  -43.5286 H         1 UNK         0.3000 
    165 H165       -1.1118  -15.4839  -41.1553 H         1 UNK         0.0600 
    166 H166       -1.8272  -17.7019  -40.1460 H         1 UNK         0.0600 
    167 H167       -3.0916  -16.9096  -41.0711 H         1 UNK         0.0600 
    168 H168       -2.2316  -18.2731  -41.7653 H         1 UNK         0.0600 
    169 H169        0.4793  -17.6938  -42.3640 H         1 UNK         0.3000 
    170 H170        3.3564  -16.5909  -40.6782 H         1 UNK         0.0600 
    171 H171        2.4623  -18.2821  -39.0541 H         1 UNK         0.0600 
    172 H172        2.0042  -19.3252  -40.3952 H         1 UNK         0.0600 
    173 H173        3.7041  -18.9621  -40.0915 H         1 UNK         0.0600 
    174 H174        3.3610  -18.6391  -42.4551 H         1 UNK         0.3000 
    175 H175        4.6126  -17.9454  -44.4157 H         1 UNK         0.0600 
    176 H176        1.8132  -18.1526  -45.6744 H         1 UNK         0.0600 
    177 H177        3.2586  -18.9173  -46.3198 H         1 UNK         0.0600 
    178 H178        2.6269  -19.4216  -44.7634 H         1 UNK         0.0600 
    179 H179        3.2209  -15.6416  -45.5353 H         1 UNK         0.3000 
    180 H180        6.0894  -14.3857  -46.8593 H         1 UNK         0.0600 
    181 H181        5.0557  -13.9632  -49.0561 H         1 UNK         0.0600 
    182 H182        3.8638  -15.2296  -48.7886 H         1 UNK         0.0600 
    183 H183        5.5639  -15.6438  -48.9813 H         1 UNK         0.0600 
    184 H184        3.2352  -13.7269  -47.0286 H         1 UNK         0.3000 
    185 H185        2.1871  -13.0765  -44.6372 H         1 UNK         0.0600 
    186 H186        3.5514  -12.0641  -42.8397 H         1 UNK         0.0600 
    187 H187        3.9854  -10.7173  -43.8888 H         1 UNK         0.0600 
    188 H188        2.3123  -10.9439  -43.3757 H         1 UNK         0.0600 
    189 H189        2.5609  -10.5171  -45.8967 H         1 UNK         0.3000 
    190 H190       -1.9758  -21.1876  -47.8660 H         1 UNK         0.3000 
    191 H191       -1.7066  -23.6065  -49.6177 H         1 UNK         0.0600 
    192 H192       -2.8699  -21.7946  -50.7313 H         1 UNK         0.0600 
    193 H193       -4.0470  -23.0151  -50.3221 H         1 UNK         0.0600 
    194 H194       -3.9256  -21.5433  -49.3499 H         1 UNK         0.0600 
    195 H195       -1.5786  -23.3429  -46.5205 H         1 UNK         0.3000 
    196 H196       -3.9163  -24.7488  -45.5661 H         1 UNK         0.0600 
    197 H197       -2.5361  -25.0983  -43.5181 H         1 UNK         0.0600 
    198 H198       -2.5066  -23.4215  -44.0259 H         1 UNK         0.0600 
    199 H199       -1.1185  -24.4640  -44.3428 H         1 UNK         0.0600 
    200 H200       -0.7043  -25.7270  -46.7643 H         1 UNK         0.3000 
    201 H201       -0.9431  -28.5336  -46.2460 H         1 UNK         0.0600 
    202 H202        1.2414  -27.4054  -46.6006 H         1 UNK         0.0600 
    203 H203        0.7954  -27.0029  -48.2592 H         1 UNK         0.0600 
    204 H204        1.0207  -28.6828  -47.7859 H         1 UNK         0.0600 
    205 H205       -2.0136  -26.4721  -48.8881 H         1 UNK         0.3000 
    206 H206       -2.8311  -28.6430  -50.6711 H         1 UNK         0.0600 
    207 H207       -2.0906  -26.4247  -51.5573 H         1 UNK         0.0600 
    208 H208       -3.7517  -26.7607  -52.0168 H         1 UNK         0.0600 
    209 H209       -3.4195  -25.6280  -50.7149 H         1 UNK         0.0600 
    210 H210       -4.0996  -27.1599  -47.8656 H         1 UNK         0.3000 
    211 H211       -5.9738  -27.0877  -46.7404 H         1 UNK         0.0600 
    212 H212       -6.9990  -29.4034  -48.4656 H         1 UNK         0.0600 
    213 H213       -7.5882  -28.9340  -46.8774 H         1 UNK         0.0600 
    214 H214       -5.9645  -29.5794  -47.0479 H         1 UNK         0.0600 
    215 H215       -5.6722  -25.4486  -49.1519 H         1 UNK         0.3000 
    216 H216       -8.4985  -24.9682  -50.0137 H         1 UNK         0.0600 
    217 H217       -6.8927  -25.3400  -51.8411 H         1 UNK         0.0600 
    218 H218       -5.8345  -24.0747  -51.2321 H         1 UNK         0.0600 
    219 H219       -7.4288  -23.6670  -51.8540 H         1 UNK         0.0600 
    220 H220       -5.7053  -23.4920  -48.4062 H         1 UNK         0.3000 
    221 H221       -5.3190  -21.5975  -47.3210 H         1 UNK         0.0600 
    222 H222       -8.2914  -21.7426  -46.6027 H         1 UNK         0.0600 
    223 H223       -6.9976  -22.6367  -45.8051 H         1 UNK         0.0600 
    224 H224       -7.0499  -20.8874  -45.6993 H         1 UNK         0.0600 
    225 H225       -5.8531  -21.1871  -50.1111 H         1 UNK         0.3000 
    226 H226       -6.6628  -18.3212  -50.1485 H         1 UNK         0.0600 
    227 H227       -8.5937  -19.7188  -50.9127 H         1 UNK         0.0600 
    228 H228       -7.9353  -18.7638  -52.2312 H         1 UNK         0.0600 
    229 H229       -7.5695  -20.4840  -52.1251 H         1 UNK         0.0600 
    230 H230       -4.0794  -19.1654  -49.8569 H         1 UNK         0.3000 
    231 H231       -2.0617  -18.6896  -50.4688 H         1 UNK         0.0600 
    232 H232       -1.5852  -16.9831  -52.1106 H         1 UNK         0.0600 
    233 H233       -3.0598  -16.5226  -51.2924 H         1 UNK         0.0600 
    234 H234       -3.1336  -17.2025  -52.9146 H         1 UNK         0.0600 
    235 H235       -3.8308  -19.8302  -53.3149 H         1 UNK         0.3000 
    236 H236       -3.4318  -21.3138  -54.9341 H         1 UNK         0.0600 
    237 H237       -3.3903  -22.8700  -52.9969 H         1 UNK         0.0600 
    238 H238       -2.3394  -23.4447  -54.2787 H         1 UNK         0.0600 
    239 H239       -1.6419  -22.6823  -52.8552 H         1 UNK         0.0600 
    240 H240       -2.0599  -19.0644  -55.4108 H         1 UNK         0.3000 
    241 H241        0.7261  -19.3861  -55.8169 H         1 UNK         0.0600 
    242 H242       -0.7287  -20.8313  -59.2985 H         1 UNK         0.3800 
    243 H243       -1.7404  -20.6692  -57.8867 H         1 UNK         0.3800 
    244 H244        0.6807  -17.1627  -56.8531 H         1 UNK         0.0800 
    245 H245       -1.0447  -17.2532  -57.0873 H         1 UNK         0.0800 
    246 H246        1.8334  -17.2331  -54.5569 H         1 UNK         0.0800 
    247 H247        1.5081  -15.5226  -54.7347 H         1 UNK         0.0800 
@<TRIPOS>BOND
     1    1    2 1    
     2    1  127 1    
     3    1  128 1    
     4    1  129 1    
     5    2    3 2    
     6    2    4 am   BACKBONE|DICT|INTERRES
     7    4    5 1    
     8    4  130 1    
     9    5    6 1    
    10    5   65 1    
    11    5  131 1    
    12    6    7 1    
    13    6  132 1    
    14    6  133 1    
    15    7    8 1    
    16    8    9 1    
    17    8  134 1    
    18    8  135 1    
    19    9   10 ar   
    20    9   14 ar   
    21   10   11 ar   
    22   10  136 1    
    23   11   12 ar   
    24   11  126 1    
    25   12   13 ar   
    26   12  137 1    
    27   13   14 ar   
    28   13   15 1    
    29   14  138 1    
    30   15   16 1    
    31   15  139 1    
    32   15  140 1    
    33   16   17 1    
    34   17   18 1    
    35   17  141 1    
    36   17  142 1    
    37   18   19 1    
    38   18   67 1    
    39   18  143 1    
    40   19   20 am   BACKBONE|DICT|INTERRES
    41   19  144 1    
    42   20   21 2    
    43   20   22 1    
    44   22   23 1    
    45   22   24 1    
    46   22  145 1    
    47   23  146 1    
    48   23  147 1    
    49   23  148 1    
    50   24   25 am   BACKBONE|DICT|INTERRES
    51   24  149 1    
    52   25   26 2    
    53   25   27 1    
    54   27   28 1    
    55   27   29 1    
    56   27  150 1    
    57   28  151 1    
    58   28  152 1    
    59   28  153 1    
    60   29   30 am   BACKBONE|DICT|INTERRES
    61   29  154 1    
    62   30   31 2    
    63   30   32 1    
    64   32   33 1    
    65   32   34 1    
    66   32  155 1    
    67   33  156 1    
    68   33  157 1    
    69   33  158 1    
    70   34   35 am   BACKBONE|DICT|INTERRES
    71   34  159 1    
    72   35   36 2    
    73   35   37 1    
    74   37   38 1    
    75   37   39 1    
    76   37  160 1    
    77   38  161 1    
    78   38  162 1    
    79   38  163 1    
    80   39   40 am   BACKBONE|DICT|INTERRES
    81   39  164 1    
    82   40   41 2    
    83   40   42 1    
    84   42   43 1    
    85   42   44 1    
    86   42  165 1    
    87   43  166 1    
    88   43  167 1    
    89   43  168 1    
    90   44   45 am   BACKBONE|DICT|INTERRES
    91   44  169 1    
    92   45   46 2    
    93   45   47 1    
    94   47   48 1    
    95   47   49 1    
    96   47  170 1    
    97   48  171 1    
    98   48  172 1    
    99   48  173 1    
   100   49   50 am   BACKBONE|DICT|INTERRES
   101   49  174 1    
   102   50   51 2    
   103   50   52 1    
   104   52   53 1    
   105   52   54 1    
   106   52  175 1    
   107   53  176 1    
   108   53  177 1    
   109   53  178 1    
   110   54   55 am   BACKBONE|DICT|INTERRES
   111   54  179 1    
   112   55   56 2    
   113   55   57 1    
   114   57   58 1    
   115   57   59 1    
   116   57  180 1    
   117   58  181 1    
   118   58  182 1    
   119   58  183 1    
   120   59   60 am   BACKBONE|DICT|INTERRES
   121   59  184 1    
   122   60   61 2    
   123   60   62 1    
   124   62   63 1    
   125   62   64 1    
   126   62  185 1    
   127   63  186 1    
   128   63  187 1    
   129   63  188 1    
   130   64   65 am   BACKBONE|DICT|INTERRES
   131   64  189 1    
   132   65   66 2    
   133   67   68 2    
   134   67   69 am   BACKBONE|DICT|INTERRES
   135   69   70 1    
   136   69  190 1    
   137   70   71 1    
   138   70   72 1    
   139   70  191 1    
   140   71  192 1    
   141   71  193 1    
   142   71  194 1    
   143   72   73 2    
   144   72   74 am   BACKBONE|DICT|INTERRES
   145   74   75 1    
   146   74  195 1    
   147   75   76 1    
   148   75   77 1    
   149   75  196 1    
   150   76  197 1    
   151   76  198 1    
   152   76  199 1    
   153   77   78 2    
   154   77   79 am   BACKBONE|DICT|INTERRES
   155   79   80 1    
   156   79  200 1    
   157   80   81 1    
   158   80   82 1    
   159   80  201 1    
   160   81  202 1    
   161   81  203 1    
   162   81  204 1    
   163   82   83 2    
   164   82   84 am   BACKBONE|DICT|INTERRES
   165   84   85 1    
   166   84  205 1    
   167   85   86 1    
   168   85   87 1    
   169   85  206 1    
   170   86  207 1    
   171   86  208 1    
   172   86  209 1    
   173   87   88 2    
   174   87   89 am   BACKBONE|DICT|INTERRES
   175   89   90 1    
   176   89  210 1    
   177   90   91 1    
   178   90   92 1    
   179   90  211 1    
   180   91  212 1    
   181   91  213 1    
   182   91  214 1    
   183   92   93 2    
   184   92   94 am   BACKBONE|DICT|INTERRES
   185   94   95 1    
   186   94  215 1    
   187   95   96 1    
   188   95   97 1    
   189   95  216 1    
   190   96  217 1    
   191   96  218 1    
   192   96  219 1    
   193   97   98 2    
   194   97   99 am   BACKBONE|DICT|INTERRES
   195   99  100 1    
   196   99  220 1    
   197  100  101 1    
   198  100  102 1    
   199  100  221 1    
   200  101  222 1    
   201  101  223 1    
   202  101  224 1    
   203  102  103 2    
   204  102  104 am   BACKBONE|DICT|INTERRES
   205  104  105 1    
   206  104  225 1    
   207  105  106 1    
   208  105  107 1    
   209  105  226 1    
   210  106  227 1    
   211  106  228 1    
   212  106  229 1    
   213  107  108 2    
   214  107  109 am   BACKBONE|DICT|INTERRES
   215  109  110 1    
   216  109  230 1    
   217  110  111 1    
   218  110  112 1    
   219  110  231 1    
   220  111  232 1    
   221  111  233 1    
   222  111  234 1    
   223  112  113 2    
   224  112  114 am   BACKBONE|DICT|INTERRES
   225  114  115 1    
   226  114  235 1    
   227  115  116 1    
   228  115  117 1    
   229  115  236 1    
   230  116  237 1    
   231  116  238 1    
   232  116  239 1    
   233  117  118 2    
   234  117  119 am   BACKBONE|DICT|INTERRES
   235  119  120 1    
   236  119  240 1    
   237  120  121 1    
   238  120  124 1    
   239  120  241 1    
   240  121  122 am   BACKBONE|DICT|INTERRES
   241  121  123 2    
   242  122  242 1    
   243  122  243 1    
   244  124  125 1    
   245  124  244 1    
   246  124  245 1    
   247  125  126 1    
   248  126  246 1    
   249  126  247 1    
@<TRIPOS>SUBSTRUCTURE
     1 UNK         1 GROUP             0       ****    0 ROOT    
