@<TRIPOS>MOLECULE
3R540
247   249    1
SMALL
USER_CHARGES


@<TRIPOS>ATOM
      1 CA          5.1643  -12.8053  -45.4673 C.3       0 UNK        -0.1800 
      2 C           3.8251  -13.2076  -46.0650 C.2       0 UNK         0.5000 
      3 O           2.9074  -12.3891  -46.1186 O.2       0 UNK        -0.5000 
      4 N           3.7126  -14.4560  -46.5370 N.am      1 UNK        -0.5000 
      5 CA          2.5014  -15.0741  -47.1013 C.3       1 UNK         0.1400 
      6 C6          2.6754  -16.5966  -47.3227 C.3       23 UNK        -0.0398 
      7 S7          4.1766  -17.0680  -48.2539 S.3       23 UNK        -0.2404 
      8 C8          3.5763  -17.1538  -49.9733 C.3       23 UNK        -0.0205 
      9 C9          2.4392  -18.1486  -50.1600 C.ar      23 UNK        -0.0193 
     10 C10         1.1944  -17.7130  -50.6198 C.ar      23 UNK        -0.1150 
     11 C11         0.1580  -18.6248  -50.8337 C.ar      23 UNK        -0.0193 
     12 C12         0.3610  -19.9783  -50.5444 C.ar      23 UNK        -0.1150 
     13 C13         1.5990  -20.4300  -50.0731 C.ar      23 UNK        -0.0193 
     14 C14         2.6381  -19.5071  -49.9015 C.ar      23 UNK        -0.1150 
     15 C15         1.8031  -21.9216  -49.8075 C.3       23 UNK        -0.0205 
     16 S16         2.9438  -22.3016  -48.4281 S.3       23 UNK        -0.2404 
     17 C17         1.9835  -21.7052  -46.9956 C.3       23 UNK        -0.0398 
     18 CA          1.4611  -22.8308  -46.0681 C.3       11 UNK         0.1400 
     19 N           0.8080  -22.2732  -44.8844 N.am      11 UNK        -0.5000 
     20 C           0.4349  -22.9728  -43.8045 C.2       10 UNK         0.5000 
     21 O           0.7132  -24.1581  -43.6251 O.2       10 UNK        -0.5000 
     22 CA         -0.4325  -22.2314  -42.7697 C.3       10 UNK         0.1400 
     23 CB          0.4460  -21.4526  -41.7798 C.3       10 UNK        -0.1800 
     24 N          -1.4024  -21.3236  -43.3886 N.am      10 UNK        -0.5000 
     25 C          -2.4024  -21.7152  -44.1927 C.2       9 UNK         0.5000 
     26 O          -2.6424  -22.8925  -44.4616 O.2       9 UNK        -0.5000 
     27 CA         -3.2500  -20.6053  -44.8401 C.3       9 UNK         0.1400 
     28 CB         -4.3022  -20.0739  -43.8557 C.3       9 UNK        -0.1800 
     29 N          -2.4385  -19.4969  -45.3452 N.am      9 UNK        -0.5000 
     30 C          -1.5556  -19.5963  -46.3489 C.2       8 UNK         0.5000 
     31 O          -1.3558  -20.6322  -46.9770 O.2       8 UNK        -0.5000 
     32 CA         -0.7097  -18.3516  -46.6698 C.3       8 UNK         0.1400 
     33 CB         -1.4950  -17.3634  -47.5422 C.3       8 UNK        -0.1800 
     34 N          -0.2252  -17.6836  -45.4604 N.am      8 UNK        -0.5000 
     35 C           0.6023  -18.2533  -44.5710 C.2       7 UNK         0.5000 
     36 O           1.1125  -19.3622  -44.7271 O.2       7 UNK        -0.5000 
     37 CA          0.8623  -17.4812  -43.2669 C.3       7 UNK         0.1400 
     38 CB          2.0003  -16.4654  -43.4376 C.3       7 UNK        -0.1800 
     39 N          -0.3434  -16.8047  -42.7891 N.am      7 UNK        -0.5000 
     40 C          -1.3933  -17.4417  -42.2508 C.2       6 UNK         0.5000 
     41 O          -1.4332  -18.6589  -42.0716 O.2       6 UNK        -0.5000 
     42 CA         -2.6189  -16.5799  -41.8935 C.3       6 UNK         0.1400 
     43 CB         -2.4329  -15.9161  -40.5211 C.3       6 UNK        -0.1800 
     44 N          -2.8982  -15.5512  -42.8972 N.am      6 UNK        -0.5000 
     45 C          -3.2730  -15.8086  -44.1584 C.2       5 UNK         0.5000 
     46 O          -3.4638  -16.9432  -44.5903 O.2       5 UNK        -0.5000 
     47 CA         -3.4055  -14.6061  -45.1126 C.3       5 UNK         0.1400 
     48 CB         -4.8405  -14.0602  -45.0990 C.3       5 UNK        -0.1800 
     49 N          -2.4660  -13.5207  -44.8177 N.am      5 UNK        -0.5000 
     50 C          -1.1324  -13.6372  -44.8524 C.2       4 UNK         0.5000 
     51 O          -0.5452  -14.6811  -45.1465 O.2       4 UNK        -0.5000 
     52 CA         -0.3276  -12.3889  -44.4580 C.3       4 UNK         0.1400 
     53 CB          0.8075  -12.7390  -43.4816 C.3       4 UNK        -0.1800 
     54 N           0.2346  -11.7346  -45.6352 N.am      4 UNK        -0.5000 
     55 C          -0.4485  -10.9261  -46.4564 C.2       3 UNK         0.5000 
     56 O          -1.6450  -10.6701  -46.3143 O.2       3 UNK        -0.5000 
     57 CA          0.3248  -10.2808  -47.6186 C.3       3 UNK         0.1400 
     58 CB          1.1274   -9.0669  -47.1236 C.3       3 UNK        -0.1800 
     59 N           1.2366  -11.2290  -48.2578 N.am      3 UNK        -0.5000 
     60 C           1.2362  -11.5365  -49.5634 C.2       2 UNK         0.5000 
     61 O           0.4751  -11.0261  -50.3865 O.2       2 UNK        -0.5000 
     62 CA          2.2563  -12.5918  -50.0457 C.3       2 UNK         0.1400 
     63 CB          3.4828  -11.9095  -50.6702 C.3       2 UNK        -0.1800 
     64 N           2.7073  -13.4878  -48.9814 N.am      2 UNK        -0.5000 
     65 C           1.9268  -14.3784  -48.3555 C.2       1 UNK         0.5000 
     66 O           0.7790  -14.6361  -48.7162 O.2       1 UNK        -0.5000 
     67 C           0.5190  -23.8134  -46.7961 C.2       11 UNK         0.5000 
     68 O           0.8830  -24.9731  -47.0028 O.2       11 UNK        -0.5000 
     69 N          -0.6883  -23.3437  -47.1405 N.am      12 UNK        -0.5000 
     70 CA         -1.6893  -24.0759  -47.9156 C.3       12 UNK         0.1400 
     71 CB         -2.8734  -23.1587  -48.2375 C.3       12 UNK        -0.1800 
     72 C          -2.1837  -25.3789  -47.2707 C.2       12 UNK         0.5000 
     73 O          -2.5703  -26.2932  -47.9979 O.2       12 UNK        -0.5000 
     74 N          -2.1111  -25.4706  -45.9368 N.am      13 UNK        -0.5000 
     75 CA         -2.3791  -26.6834  -45.1617 C.3       13 UNK         0.1400 
     76 CB         -2.2499  -26.3586  -43.6660 C.3       13 UNK        -0.1800 
     77 C          -1.4776  -27.8809  -45.5367 C.2       13 UNK         0.5000 
     78 O          -1.8893  -29.0233  -45.3290 O.2       13 UNK        -0.5000 
     79 N          -0.2885  -27.6061  -46.0921 N.am      14 UNK        -0.5000 
     80 CA          0.6407  -28.6054  -46.6145 C.3       14 UNK         0.1400 
     81 CB          2.0002  -28.4341  -45.9178 C.3       14 UNK        -0.1800 
     82 C           0.8025  -28.4889  -48.1407 C.2       14 UNK         0.5000 
     83 O           0.8142  -29.5122  -48.8258 O.2       14 UNK        -0.5000 
     84 N           0.9554  -27.2583  -48.6473 N.am      15 UNK        -0.5000 
     85 CA          1.3771  -26.9796  -50.0225 C.3       15 UNK         0.1400 
     86 CB          2.2278  -25.6998  -50.0066 C.3       15 UNK        -0.1800 
     87 C           0.2257  -26.8253  -51.0343 C.2       15 UNK         0.5000 
     88 O           0.5047  -26.7813  -52.2337 O.2       15 UNK        -0.5000 
     89 N          -1.0226  -26.7145  -50.5538 N.am      16 UNK        -0.5000 
     90 CA         -2.2216  -26.2997  -51.2990 C.3       16 UNK         0.1400 
     91 CB         -2.5330  -27.2690  -52.4610 C.3       16 UNK        -0.1800 
     92 C          -2.1562  -24.8182  -51.7445 C.2       16 UNK         0.5000 
     93 O          -1.2501  -24.0926  -51.3309 O.2       16 UNK        -0.5000 
     94 N          -3.1425  -24.3894  -52.5484 N.am      17 UNK        -0.5000 
     95 CA         -3.3848  -23.0097  -52.9950 C.3       17 UNK         0.1400 
     96 CB         -2.1918  -22.4539  -53.8033 C.3       17 UNK        -0.1800 
     97 C          -3.7862  -22.1095  -51.8088 C.2       17 UNK         0.5000 
     98 O          -2.9675  -21.3409  -51.3050 O.2       17 UNK        -0.5000 
     99 N          -5.0419  -22.2751  -51.3654 N.am      18 UNK        -0.5000 
    100 CA        -5.6678  -21.6119  -50.2152 C.3       18 UNK         0.1400 
    101 CB        -7.1505  -22.0120  -50.1688 C.3       18 UNK        -0.1800 
    102 C         -5.5353  -20.0765  -50.2024 C.2       18 UNK         0.5000 
    103 O         -5.5167  -19.4519  -51.2644 O.2       18 UNK        -0.5000 
    104 N         -5.4727  -19.5090  -48.9899 N.am      19 UNK        -0.5000 
    105 CA        -5.2826  -18.0845  -48.7062 C.3       19 UNK         0.1400 
    106 CB        -5.3404  -17.8742  -47.1870 C.3       19 UNK        -0.1800 
    107 C         -6.2958  -17.1574  -49.4036 C.2       19 UNK         0.5000 
    108 O         -7.4418  -17.5508  -49.6333 O.2       19 UNK        -0.5000 
    109 N         -5.8365  -15.9415  -49.7287 N.am      20 UNK        -0.5000 
    110 CA        -6.5171  -14.8633  -50.4607 C.3       20 UNK         0.1400 
    111 CB        -7.8227  -14.4279  -49.7675 C.3       20 UNK        -0.1800 
    112 C         -6.7415  -15.1632  -51.9569 C.2       20 UNK         0.5000 
    113 O         -6.5297  -14.2739  -52.7818 O.2       20 UNK        -0.5000 
    114 N         -7.1348  -16.3990  -52.2883 N.am      21 UNK        -0.5000 
    115 CA        -7.2525  -16.9017  -53.6551 C.3       21 UNK         0.1400 
    116 CB        -8.1212  -18.1709  -53.6614 C.3       21 UNK        -0.1800 
    117 C         -5.8649  -17.1622  -54.2675 C.2       21 UNK         0.5000 
    118 O         -5.5216  -16.5563  -55.2836 O.2       21 UNK        -0.5000 
    119 N         -5.0894  -18.0319  -53.6075 N.am      22 UNK        -0.5000 
    120 CA        -3.7330  -18.4608  -53.9701 C.3       22 UNK         0.1400 
    121 C         -3.6259  -19.1022  -55.3915 C.2       22 UNK         0.5000 
    122 N         -2.4553  -19.1030  -56.0148 N.am      22 UNK        -0.7600 
    123 O         -4.5875  -19.6599  -55.9164 O.2       22 UNK        -0.5000 
    124 C124       -2.6905  -17.3494  -53.6602 C.3       23 UNK        -0.0398 
    125 S125       -1.0488  -18.0198  -53.2279 S.3       23 UNK        -0.2404 
    126 C126       -1.1624  -18.1433  -51.4145 C.3       23 UNK        -0.0205 
    127 H127        5.5796  -11.9592  -46.0146 H         1 UNK         0.0600 
    128 H128        5.8857  -13.6220  -45.5017 H         1 UNK         0.0600 
    129 H129        5.0338  -12.5090  -44.4266 H         1 UNK         0.0600 
    130 H130        4.5172  -15.0666  -46.4997 H         1 UNK         0.3000 
    131 H131        1.7250  -14.9525  -46.3467 H         1 UNK         0.0600 
    132 H132        2.7508  -17.0849  -46.3513 H         1 UNK         0.0800 
    133 H133        1.7888  -17.0299  -47.7854 H         1 UNK         0.0800 
    134 H134        3.2799  -16.1567  -50.3010 H         1 UNK         0.0800 
    135 H135        4.4064  -17.4474  -50.6171 H         1 UNK         0.0800 
    136 H136        1.0364  -16.6660  -50.8390 H         1 UNK         0.1150 
    137 H137       -0.4410  -20.6852  -50.7100 H         1 UNK         0.1150 
    138 H138        3.6091  -19.8391  -49.5631 H         1 UNK         0.1150 
    139 H139        0.8433  -22.4040  -49.6127 H         1 UNK         0.0800 
    140 H140        2.1955  -22.3788  -50.7164 H         1 UNK         0.0800 
    141 H141        1.1648  -21.0756  -47.3423 H         1 UNK         0.0800 
    142 H142        2.6368  -21.0423  -46.4265 H         1 UNK         0.0800 
    143 H143        2.3243  -23.4039  -45.7230 H         1 UNK         0.0600 
    144 H144        0.5967  -21.2807  -44.9119 H         1 UNK         0.3000 
    145 H145       -0.9927  -22.9828  -42.2093 H         1 UNK         0.0600 
    146 H146       -0.1573  -20.9774  -41.0062 H         1 UNK         0.0600 
    147 H147        1.1527  -22.1161  -41.2798 H         1 UNK         0.0600 
    148 H148        1.0233  -20.6749  -42.2795 H         1 UNK         0.0600 
    149 H149       -1.3074  -20.3369  -43.1701 H         1 UNK         0.3000 
    150 H150       -3.7772  -21.0438  -45.6893 H         1 UNK         0.0600 
    151 H151       -4.9288  -20.8833  -43.4792 H         1 UNK         0.0600 
    152 H152       -4.9609  -19.3492  -44.3342 H         1 UNK         0.0600 
    153 H153       -3.8417  -19.5875  -42.9958 H         1 UNK         0.0600 
    154 H154       -2.5967  -18.5878  -44.9183 H         1 UNK         0.3000 
    155 H155        0.1600  -18.6853  -47.2396 H         1 UNK         0.0600 
    156 H156       -1.7967  -17.8331  -48.4785 H         1 UNK         0.0600 
    157 H157       -0.8918  -16.4920  -47.7936 H         1 UNK         0.0600 
    158 H158       -2.3985  -17.0136  -47.0459 H         1 UNK         0.0600 
    159 H159       -0.5709  -16.7477  -45.2769 H         1 UNK         0.3000 
    160 H160        1.1726  -18.2035  -42.5091 H         1 UNK         0.0600 
    161 H161        1.7569  -15.7105  -44.1819 H         1 UNK         0.0600 
    162 H162        2.9189  -16.9584  -43.7580 H         1 UNK         0.0600 
    163 H163        2.2161  -15.9531  -42.5001 H         1 UNK         0.0600 
    164 H164       -0.4092  -15.8128  -42.9635 H         1 UNK         0.3000 
    165 H165       -3.4855  -17.2422  -41.8382 H         1 UNK         0.0600 
    166 H166       -3.3275  -15.3689  -40.2236 H         1 UNK         0.0600 
    167 H167       -2.2388  -16.6630  -39.7501 H         1 UNK         0.0600 
    168 H168       -1.5953  -15.2174  -40.5198 H         1 UNK         0.0600 
    169 H169       -2.7678  -14.5900  -42.6191 H         1 UNK         0.3000 
    170 H170       -3.1890  -14.9622  -46.1213 H         1 UNK         0.0600 
    171 H171       -5.5605  -14.8459  -45.3320 H         1 UNK         0.0600 
    172 H172       -5.1065  -13.6502  -44.1239 H         1 UNK         0.0600 
    173 H173       -4.9699  -13.2728  -45.8418 H         1 UNK         0.0600 
    174 H174       -2.8699  -12.6205  -44.6006 H         1 UNK         0.3000 
    175 H175       -0.9919  -11.6888  -43.9466 H         1 UNK         0.0600 
    176 H176        1.5499  -13.3915  -43.9397 H         1 UNK         0.0600 
    177 H177        1.3232  -11.8406  -43.1423 H         1 UNK         0.0600 
    178 H178        0.4228  -13.2477  -42.5969 H         1 UNK         0.0600 
    179 H179        1.2194  -11.9185  -45.8146 H         1 UNK         0.3000 
    180 H180       -0.4190   -9.9235  -48.3337 H         1 UNK         0.0600 
    181 H181        1.9005   -9.3584  -46.4113 H         1 UNK         0.0600 
    182 H182        0.4784   -8.3430  -46.6291 H         1 UNK         0.0600 
    183 H183        1.6140   -8.5540  -47.9534 H         1 UNK         0.0600 
    184 H184        1.8921  -11.7042  -47.6457 H         1 UNK         0.3000 
    185 H185        1.7692  -13.1948  -50.8150 H         1 UNK         0.0600 
    186 H186        3.1894  -11.2537  -51.4910 H         1 UNK         0.0600 
    187 H187        4.0200  -11.3022  -49.9406 H         1 UNK         0.0600 
    188 H188        4.1793  -12.6437  -51.0757 H         1 UNK         0.0600 
    189 H189        3.6386  -13.3369  -48.6225 H         1 UNK         0.3000 
    190 H190       -0.9127  -22.3691  -46.9444 H         1 UNK         0.3000 
    191 H191       -1.2039  -24.3541  -48.8488 H         1 UNK         0.0600 
    192 H192       -3.3797  -22.8232  -47.3324 H         1 UNK         0.0600 
    193 H193       -3.6046  -23.6792  -48.8567 H         1 UNK         0.0600 
    194 H194       -2.5479  -22.2777  -48.7904 H         1 UNK         0.0600 
    195 H195       -1.8530  -24.6414  -45.4136 H         1 UNK         0.3000 
    196 H196       -3.4115  -26.9773  -45.3609 H         1 UNK         0.0600 
    197 H197       -2.4936  -27.2280  -43.0542 H         1 UNK         0.0600 
    198 H198       -2.9279  -25.5559  -43.3753 H         1 UNK         0.0600 
    199 H199       -1.2360  -26.0505  -43.4096 H         1 UNK         0.0600 
    200 H200       -0.0311  -26.6349  -46.2297 H         1 UNK         0.3000 
    201 H201        0.2821  -29.6148  -46.4026 H         1 UNK         0.0600 
    202 H202        1.9116  -28.5897  -44.8425 H         1 UNK         0.0600 
    203 H203        2.4136  -27.4372  -46.0774 H         1 UNK         0.0600 
    204 H204        2.7264  -29.1565  -46.2926 H         1 UNK         0.0600 
    205 H205        0.9418  -26.4570  -48.0194 H         1 UNK         0.3000 
    206 H206        2.0112  -27.7956  -50.3759 H         1 UNK         0.0600 
    207 H207        3.0679  -25.7870  -49.3174 H         1 UNK         0.0600 
    208 H208        2.6376  -25.4845  -50.9941 H         1 UNK         0.0600 
    209 H209        1.6340  -24.8373  -49.7043 H         1 UNK         0.0600 
    210 H210       -1.1492  -26.7696  -49.5508 H         1 UNK         0.3000 
    211 H211       -3.0483  -26.3665  -50.5914 H         1 UNK         0.0600 
    212 H212       -1.8535  -27.1313  -53.3025 H         1 UNK         0.0600 
    213 H213       -3.5464  -27.1244  -52.8358 H         1 UNK         0.0600 
    214 H214       -2.4593  -28.3075  -52.1378 H         1 UNK         0.0600 
    215 H215       -3.8439  -25.0598  -52.8294 H         1 UNK         0.3000 
    216 H216       -4.2380  -23.0473  -53.6743 H         1 UNK         0.0600 
    217 H217       -2.4331  -21.4787  -54.2227 H         1 UNK         0.0600 
    218 H218       -1.9376  -23.1114  -54.6344 H         1 UNK         0.0600 
    219 H219       -1.2977  -22.3229  -53.1937 H         1 UNK         0.0600 
    220 H220       -5.6323  -22.9284  -51.8577 H         1 UNK         0.3000 
    221 H221       -5.1830  -21.9961  -49.3181 H         1 UNK         0.0600 
    222 H222       -7.6805  -21.6862  -51.0650 H         1 UNK         0.0600 
    223 H223       -7.2675  -23.0924  -50.0816 H         1 UNK         0.0600 
    224 H224       -7.6532  -21.5630  -49.3110 H         1 UNK         0.0600 
    225 H225       -5.5482  -20.1053  -48.1800 H         1 UNK         0.3000 
    226 H226       -4.2821  -17.8244  -49.0572 H         1 UNK         0.0600 
    227 H227       -4.5904  -18.4762  -46.6782 H         1 UNK         0.0600 
    228 H228       -5.1489  -16.8331  -46.9251 H         1 UNK         0.0600 
    229 H229       -6.3163  -18.1410  -46.7796 H         1 UNK         0.0600 
    230 H230       -4.8744  -15.7346  -49.5005 H         1 UNK         0.3000 
    231 H231       -5.8345  -14.0130  -50.4175 H         1 UNK         0.0600 
    232 H232       -8.2345  -13.5380  -50.2449 H         1 UNK         0.0600 
    233 H233       -7.6506  -14.1844  -48.7191 H         1 UNK         0.0600 
    234 H234       -8.5901  -15.2009  -49.8120 H         1 UNK         0.0600 
    235 H235       -7.2928  -17.0599  -51.5339 H         1 UNK         0.3000 
    236 H236       -7.7549  -16.1473  -54.2644 H         1 UNK         0.0600 
    237 H237       -7.7114  -18.9499  -53.0171 H         1 UNK         0.0600 
    238 H238       -9.1328  -17.9544  -53.3178 H         1 UNK         0.0600 
    239 H239       -8.2005  -18.5841  -54.6677 H         1 UNK         0.0600 
    240 H240       -5.4575  -18.4867  -52.7733 H         1 UNK         0.3000 
    241 H241       -3.5397  -19.2887  -53.2875 H         1 UNK         0.0600 
    242 H242       -1.6395  -18.6968  -55.5807 H         1 UNK         0.3800 
    243 H243       -2.3781  -19.5331  -56.9232 H         1 UNK         0.3800 
    244 H244       -2.5928  -16.6635  -54.5032 H         1 UNK         0.0800 
    245 H245       -3.0283  -16.7348  -52.8244 H         1 UNK         0.0800 
    246 H246       -1.4165  -17.1692  -50.9937 H         1 UNK         0.0800 
    247 H247       -1.9712  -18.8235  -51.1422 H         1 UNK         0.0800 
@<TRIPOS>BOND
     1    1    2 1    
     2    1  127 1    
     3    1  128 1    
     4    1  129 1    
     5    2    3 2    
     6    2    4 am   BACKBONE|DICT|INTERRES
     7    4    5 1    
     8    4  130 1    
     9    5    6 1    
    10    5   65 1    
    11    5  131 1    
    12    6    7 1    
    13    6  132 1    
    14    6  133 1    
    15    7    8 1    
    16    8    9 1    
    17    8  134 1    
    18    8  135 1    
    19    9   10 ar   
    20    9   14 ar   
    21   10   11 ar   
    22   10  136 1    
    23   11   12 ar   
    24   11  126 1    
    25   12   13 ar   
    26   12  137 1    
    27   13   14 ar   
    28   13   15 1    
    29   14  138 1    
    30   15   16 1    
    31   15  139 1    
    32   15  140 1    
    33   16   17 1    
    34   17   18 1    
    35   17  141 1    
    36   17  142 1    
    37   18   19 1    
    38   18   67 1    
    39   18  143 1    
    40   19   20 am   BACKBONE|DICT|INTERRES
    41   19  144 1    
    42   20   21 2    
    43   20   22 1    
    44   22   23 1    
    45   22   24 1    
    46   22  145 1    
    47   23  146 1    
    48   23  147 1    
    49   23  148 1    
    50   24   25 am   BACKBONE|DICT|INTERRES
    51   24  149 1    
    52   25   26 2    
    53   25   27 1    
    54   27   28 1    
    55   27   29 1    
    56   27  150 1    
    57   28  151 1    
    58   28  152 1    
    59   28  153 1    
    60   29   30 am   BACKBONE|DICT|INTERRES
    61   29  154 1    
    62   30   31 2    
    63   30   32 1    
    64   32   33 1    
    65   32   34 1    
    66   32  155 1    
    67   33  156 1    
    68   33  157 1    
    69   33  158 1    
    70   34   35 am   BACKBONE|DICT|INTERRES
    71   34  159 1    
    72   35   36 2    
    73   35   37 1    
    74   37   38 1    
    75   37   39 1    
    76   37  160 1    
    77   38  161 1    
    78   38  162 1    
    79   38  163 1    
    80   39   40 am   BACKBONE|DICT|INTERRES
    81   39  164 1    
    82   40   41 2    
    83   40   42 1    
    84   42   43 1    
    85   42   44 1    
    86   42  165 1    
    87   43  166 1    
    88   43  167 1    
    89   43  168 1    
    90   44   45 am   BACKBONE|DICT|INTERRES
    91   44  169 1    
    92   45   46 2    
    93   45   47 1    
    94   47   48 1    
    95   47   49 1    
    96   47  170 1    
    97   48  171 1    
    98   48  172 1    
    99   48  173 1    
   100   49   50 am   BACKBONE|DICT|INTERRES
   101   49  174 1    
   102   50   51 2    
   103   50   52 1    
   104   52   53 1    
   105   52   54 1    
   106   52  175 1    
   107   53  176 1    
   108   53  177 1    
   109   53  178 1    
   110   54   55 am   BACKBONE|DICT|INTERRES
   111   54  179 1    
   112   55   56 2    
   113   55   57 1    
   114   57   58 1    
   115   57   59 1    
   116   57  180 1    
   117   58  181 1    
   118   58  182 1    
   119   58  183 1    
   120   59   60 am   BACKBONE|DICT|INTERRES
   121   59  184 1    
   122   60   61 2    
   123   60   62 1    
   124   62   63 1    
   125   62   64 1    
   126   62  185 1    
   127   63  186 1    
   128   63  187 1    
   129   63  188 1    
   130   64   65 am   BACKBONE|DICT|INTERRES
   131   64  189 1    
   132   65   66 2    
   133   67   68 2    
   134   67   69 am   BACKBONE|DICT|INTERRES
   135   69   70 1    
   136   69  190 1    
   137   70   71 1    
   138   70   72 1    
   139   70  191 1    
   140   71  192 1    
   141   71  193 1    
   142   71  194 1    
   143   72   73 2    
   144   72   74 am   BACKBONE|DICT|INTERRES
   145   74   75 1    
   146   74  195 1    
   147   75   76 1    
   148   75   77 1    
   149   75  196 1    
   150   76  197 1    
   151   76  198 1    
   152   76  199 1    
   153   77   78 2    
   154   77   79 am   BACKBONE|DICT|INTERRES
   155   79   80 1    
   156   79  200 1    
   157   80   81 1    
   158   80   82 1    
   159   80  201 1    
   160   81  202 1    
   161   81  203 1    
   162   81  204 1    
   163   82   83 2    
   164   82   84 am   BACKBONE|DICT|INTERRES
   165   84   85 1    
   166   84  205 1    
   167   85   86 1    
   168   85   87 1    
   169   85  206 1    
   170   86  207 1    
   171   86  208 1    
   172   86  209 1    
   173   87   88 2    
   174   87   89 am   BACKBONE|DICT|INTERRES
   175   89   90 1    
   176   89  210 1    
   177   90   91 1    
   178   90   92 1    
   179   90  211 1    
   180   91  212 1    
   181   91  213 1    
   182   91  214 1    
   183   92   93 2    
   184   92   94 am   BACKBONE|DICT|INTERRES
   185   94   95 1    
   186   94  215 1    
   187   95   96 1    
   188   95   97 1    
   189   95  216 1    
   190   96  217 1    
   191   96  218 1    
   192   96  219 1    
   193   97   98 2    
   194   97   99 am   BACKBONE|DICT|INTERRES
   195   99  100 1    
   196   99  220 1    
   197  100  101 1    
   198  100  102 1    
   199  100  221 1    
   200  101  222 1    
   201  101  223 1    
   202  101  224 1    
   203  102  103 2    
   204  102  104 am   BACKBONE|DICT|INTERRES
   205  104  105 1    
   206  104  225 1    
   207  105  106 1    
   208  105  107 1    
   209  105  226 1    
   210  106  227 1    
   211  106  228 1    
   212  106  229 1    
   213  107  108 2    
   214  107  109 am   BACKBONE|DICT|INTERRES
   215  109  110 1    
   216  109  230 1    
   217  110  111 1    
   218  110  112 1    
   219  110  231 1    
   220  111  232 1    
   221  111  233 1    
   222  111  234 1    
   223  112  113 2    
   224  112  114 am   BACKBONE|DICT|INTERRES
   225  114  115 1    
   226  114  235 1    
   227  115  116 1    
   228  115  117 1    
   229  115  236 1    
   230  116  237 1    
   231  116  238 1    
   232  116  239 1    
   233  117  118 2    
   234  117  119 am   BACKBONE|DICT|INTERRES
   235  119  120 1    
   236  119  240 1    
   237  120  121 1    
   238  120  124 1    
   239  120  241 1    
   240  121  122 am   BACKBONE|DICT|INTERRES
   241  121  123 2    
   242  122  242 1    
   243  122  243 1    
   244  124  125 1    
   245  124  244 1    
   246  124  245 1    
   247  125  126 1    
   248  126  246 1    
   249  126  247 1    
@<TRIPOS>SUBSTRUCTURE
     1 UNK         1 GROUP             0       ****    0 ROOT    
