@<TRIPOS>MOLECULE
3R540
247   249    1
SMALL
USER_CHARGES


@<TRIPOS>ATOM
      1 CA          5.4496  -13.1872  -45.7719 C.3       0 UNK        -0.1800 
      2 C           4.0692  -13.7347  -46.1023 C.2       0 UNK         0.5000 
      3 O           3.2740  -13.9811  -45.1975 O.2       0 UNK        -0.5000 
      4 N           3.7782  -13.9218  -47.3959 N.am      1 UNK        -0.5000 
      5 CA          2.5132  -14.4669  -47.9125 C.3       1 UNK         0.1400 
      6 C6          2.6280  -14.8700  -49.4039 C.3       23 UNK        -0.0398 
      7 S7          3.9043  -16.1405  -49.7235 S.3       23 UNK        -0.2404 
      8 C8          3.1877  -17.6465  -48.9819 C.3       23 UNK        -0.0205 
      9 C9          1.8748  -18.0563  -49.6323 C.ar      23 UNK        -0.0193 
     10 C10         1.8651  -18.8802  -50.7620 C.ar      23 UNK        -0.1150 
     11 C11         0.6556  -19.2591  -51.3549 C.ar      23 UNK        -0.0193 
     12 C12        -0.5478  -18.7992  -50.8086 C.ar      23 UNK        -0.1150 
     13 C13        -0.5492  -17.9757  -49.6807 C.ar      23 UNK        -0.0193 
     14 C14         0.6637  -17.6182  -49.0925 C.ar      23 UNK        -0.1150 
     15 C15        -1.8567  -17.4634  -49.0985 C.3       23 UNK        -0.0205 
     16 S16        -2.8350  -18.7939  -48.3408 S.3       23 UNK        -0.2404 
     17 C17        -1.7258  -19.3909  -47.0203 C.3       23 UNK        -0.0398 
     18 CA         -1.0665  -20.7481  -47.3575 C.3       11 UNK         0.1400 
     19 N           0.0805  -21.0152  -46.4854 N.am      11 UNK        -0.5000 
     20 C           0.9678  -22.0016  -46.6740 C.2       10 UNK         0.5000 
     21 O           0.9303  -22.7742  -47.6286 O.2       10 UNK        -0.5000 
     22 CA          2.0378  -22.2075  -45.5845 C.3       10 UNK         0.1400 
     23 CB          3.2379  -21.2833  -45.8412 C.3       10 UNK        -0.1800 
     24 N           1.5369  -21.9742  -44.2295 N.am      10 UNK        -0.5000 
     25 C           0.4802  -22.5746  -43.6639 C.2       9 UNK         0.5000 
     26 O          -0.1388  -23.4986  -44.1907 O.2       9 UNK        -0.5000 
     27 CA         -0.0013  -22.0072  -42.3100 C.3       9 UNK         0.1400 
     28 CB          1.1661  -21.5280  -41.4200 C.3       9 UNK        -0.1800 
     29 N          -1.0042  -20.9345  -42.4327 N.am      9 UNK        -0.5000 
     30 C          -0.9042  -19.8106  -43.1602 C.2       8 UNK         0.5000 
     31 O          -0.0015  -19.6152  -43.9742 O.2       8 UNK        -0.5000 
     32 CA         -1.9672  -18.7103  -42.9566 C.3       8 UNK         0.1400 
     33 CB         -2.4308  -18.5923  -41.4934 C.3       8 UNK        -0.1800 
     34 N          -1.3574  -17.4450  -43.3597 N.am      8 UNK        -0.5000 
     35 C          -1.6659  -16.7319  -44.4505 C.2       7 UNK         0.5000 
     36 O          -2.6998  -16.8891  -45.0989 O.2       7 UNK        -0.5000 
     37 CA         -0.6312  -15.6828  -44.9156 C.3       7 UNK         0.1400 
     38 CB         -1.0814  -14.2672  -44.5270 C.3       7 UNK        -0.1800 
     39 N           0.7030  -15.9366  -44.3634 N.am      7 UNK        -0.5000 
     40 C           1.5166  -16.9198  -44.7814 C.2       6 UNK         0.5000 
     41 O           1.3300  -17.5460  -45.8234 O.2       6 UNK        -0.5000 
     42 CA          2.7007  -17.3246  -43.8748 C.3       6 UNK         0.1400 
     43 CB          4.0510  -17.2978  -44.6103 C.3       6 UNK        -0.1800 
     44 N           2.7986  -16.5539  -42.6322 N.am      6 UNK        -0.5000 
     45 C           2.0017  -16.7239  -41.5682 C.2       5 UNK         0.5000 
     46 O           1.1032  -17.5633  -41.5199 O.2       5 UNK        -0.5000 
     47 CA          2.2051  -15.7709  -40.3740 C.3       5 UNK         0.1400 
     48 CB          3.1637  -16.3976  -39.3503 C.3       5 UNK        -0.1800 
     49 N           2.6861  -14.4284  -40.7232 N.am      5 UNK        -0.5000 
     50 C           2.0679  -13.5724  -41.5484 C.2       4 UNK         0.5000 
     51 O           1.0558  -13.8592  -42.1929 O.2       4 UNK        -0.5000 
     52 CA          2.6718  -12.1628  -41.6578 C.3       4 UNK         0.1400 
     53 CB          4.1160  -12.1861  -42.1940 C.3       4 UNK        -0.1800 
     54 N           1.8189  -11.3515  -42.5219 N.am      4 UNK        -0.5000 
     55 C           1.7630  -10.0157  -42.5436 C.2       3 UNK         0.5000 
     56 O           2.4758   -9.2998  -41.8371 O.2       3 UNK        -0.5000 
     57 CA          0.7177   -9.3714  -43.4851 C.3       3 UNK         0.1400 
     58 CB          1.0984   -7.9343  -43.9014 C.3       3 UNK        -0.1800 
     59 N           0.3747  -10.1756  -44.6678 N.am      3 UNK        -0.5000 
     60 C           1.2018  -10.5563  -45.6515 C.2       2 UNK         0.5000 
     61 O           2.4118  -10.3145  -45.6780 O.2       2 UNK        -0.5000 
     62 CA          0.5635  -11.3235  -46.8182 C.3       2 UNK         0.1400 
     63 CB          0.1696  -10.3744  -47.9609 C.3       2 UNK        -0.1800 
     64 N           1.5452  -12.2846  -47.2960 N.am      2 UNK        -0.5000 
     65 C           1.2960  -13.5377  -47.6889 C.2       1 UNK         0.5000 
     66 O           0.1603  -13.9790  -47.8655 O.2       1 UNK        -0.5000 
     67 C          -2.0980  -21.8979  -47.3233 C.2       11 UNK         0.5000 
     68 O          -2.6586  -22.2497  -48.3629 O.2       11 UNK        -0.5000 
     69 N          -2.3130  -22.4899  -46.1394 N.am      12 UNK        -0.5000 
     70 CA         -3.1983  -23.6403  -45.9534 C.3       12 UNK         0.1400 
     71 CB         -3.5250  -23.8149  -44.4629 C.3       12 UNK        -0.1800 
     72 C          -2.6138  -24.9283  -46.5590 C.2       12 UNK         0.5000 
     73 O          -3.3718  -25.7580  -47.0584 O.2       12 UNK        -0.5000 
     74 N          -1.2821  -25.0589  -46.5385 N.am      13 UNK        -0.5000 
     75 CA         -0.5586  -26.1542  -47.1774 C.3       13 UNK         0.1400 
     76 CB          0.8643  -26.2310  -46.6013 C.3       13 UNK        -0.1800 
     77 C          -0.5292  -26.0200  -48.7122 C.2       13 UNK         0.5000 
     78 O          -0.8361  -26.9867  -49.4108 O.2       13 UNK        -0.5000 
     79 N          -0.1397  -24.8379  -49.2081 N.am      14 UNK        -0.5000 
     80 CA          0.1405  -24.5976  -50.6232 C.3       14 UNK         0.1400 
     81 CB          1.1557  -23.4509  -50.7499 C.3       14 UNK        -0.1800 
     82 C          -1.1071  -24.2923  -51.4670 C.2       14 UNK         0.5000 
     83 O          -1.1701  -24.7389  -52.6129 O.2       14 UNK        -0.5000 
     84 N          -2.0514  -23.5146  -50.9205 N.am      15 UNK        -0.5000 
     85 CA         -3.1970  -22.9820  -51.6629 C.3       15 UNK         0.1400 
     86 CB         -3.0946  -21.4476  -51.6983 C.3       15 UNK        -0.1800 
     87 C          -4.5544  -23.4037  -51.0843 C.2       15 UNK         0.5000 
     88 O          -5.5725  -23.0292  -51.6626 O.2       15 UNK        -0.5000 
     89 N          -4.5722  -24.1262  -49.9558 N.am      16 UNK        -0.5000 
     90 CA         -5.7690  -24.4744  -49.1742 C.3       16 UNK         0.1400 
     91 CB         -6.7460  -25.3450  -49.9953 C.3       16 UNK        -0.1800 
     92 C          -6.4570  -23.2462  -48.5324 C.2       16 UNK         0.5000 
     93 O          -7.6405  -23.3195  -48.2015 O.2       16 UNK        -0.5000 
     94 N          -5.6925  -22.1546  -48.3607 N.am      17 UNK        -0.5000 
     95 CA         -6.0596  -20.8576  -47.7805 C.3       17 UNK         0.1400 
     96 CB         -6.0110  -20.9526  -46.2422 C.3       17 UNK        -0.1800 
     97 C          -7.3950  -20.2694  -48.3017 C.2       17 UNK         0.5000 
     98 O          -8.3483  -20.1595  -47.5305 O.2       17 UNK        -0.5000 
     99 N          -7.5123  -19.8918  -49.5824 N.am      18 UNK        -0.5000 
    100 CA        -6.5148  -19.9291  -50.6560 C.3       18 UNK         0.1400 
    101 CB        -5.8237  -18.5582  -50.7653 C.3       18 UNK        -0.1800 
    102 C         -7.1919  -20.3623  -51.9717 C.2       18 UNK         0.5000 
    103 O         -6.8279  -19.8824  -53.0463 O.2       18 UNK        -0.5000 
    104 N         -8.1858  -21.2550  -51.8546 N.am      19 UNK        -0.5000 
    105 CA        -9.0890  -21.7023  -52.9174 C.3       19 UNK         0.1400 
    106 CB       -10.1171  -22.6689  -52.3096 C.3       19 UNK        -0.1800 
    107 C         -8.4148  -22.3469  -54.1446 C.2       19 UNK         0.5000 
    108 O         -8.9654  -22.2520  -55.2425 O.2       19 UNK        -0.5000 
    109 N         -7.2504  -22.9823  -53.9557 N.am      20 UNK        -0.5000 
    110 CA        -6.4786  -23.6101  -55.0311 C.3       20 UNK         0.1400 
    111 CB        -5.7045  -24.8144  -54.4708 C.3       20 UNK        -0.1800 
    112 C         -5.5292  -22.6261  -55.7437 C.2       20 UNK         0.5000 
    113 O         -4.9014  -23.0201  -56.7276 O.2       20 UNK        -0.5000 
    114 N         -5.4186  -21.3832  -55.2429 N.am      21 UNK        -0.5000 
    115 CA        -4.6470  -20.2645  -55.8050 C.3       21 UNK         0.1400 
    116 CB        -5.3444  -19.7299  -57.0725 C.3       21 UNK        -0.1800 
    117 C         -3.1542  -20.5914  -56.0356 C.2       21 UNK         0.5000 
    118 O         -2.5753  -20.1859  -57.0450 O.2       21 UNK        -0.5000 
    119 N         -2.5781  -21.3490  -55.0941 N.am      22 UNK        -0.5000 
    120 CA        -1.2091  -21.8970  -55.1117 C.3       22 UNK         0.1400 
    121 C         -0.9851  -23.0533  -56.1356 C.2       22 UNK         0.5000 
    122 N         -2.0111  -23.5903  -56.7864 N.am      22 UNK        -0.7600 
    123 O          0.1437  -23.4969  -56.3285 O.2       22 UNK        -0.5000 
    124 C124       -0.0896  -20.8168  -55.2020 C.3       23 UNK        -0.0398 
    125 S125       -0.2491  -19.4712  -53.9782 S.3       23 UNK        -0.2404 
    126 C126        0.6503  -20.1839  -52.5653 C.3       23 UNK        -0.0205 
    127 H127        6.0910  -13.1469  -46.6526 H         1 UNK         0.0600 
    128 H128        5.9346  -13.8176  -45.0267 H         1 UNK         0.0600 
    129 H129        5.3636  -12.1794  -45.3653 H         1 UNK         0.0600 
    130 H130        4.4765  -13.7114  -48.0950 H         1 UNK         0.3000 
    131 H131        2.2971  -15.3674  -47.3365 H         1 UNK         0.0600 
    132 H132        1.6747  -15.2259  -49.7953 H         1 UNK         0.0800 
    133 H133        2.8758  -13.9941  -50.0057 H         1 UNK         0.0800 
    134 H134        3.0505  -17.5001  -47.9105 H         1 UNK         0.0800 
    135 H135        3.9094  -18.4589  -49.0779 H         1 UNK         0.0800 
    136 H136        2.8015  -19.2272  -51.1759 H         1 UNK         0.1150 
    137 H137       -1.4878  -19.0783  -51.2612 H         1 UNK         0.1150 
    138 H138        0.6643  -16.9830  -48.2188 H         1 UNK         0.1150 
    139 H139       -1.6765  -16.6837  -48.3560 H         1 UNK         0.0800 
    140 H140       -2.4450  -17.0011  -49.8922 H         1 UNK         0.0800 
    141 H141       -2.2939  -19.4536  -46.0913 H         1 UNK         0.0800 
    142 H142       -0.9581  -18.6369  -46.8433 H         1 UNK         0.0800 
    143 H143       -0.6782  -20.6924  -48.3770 H         1 UNK         0.0600 
    144 H144        0.1773  -20.4273  -45.6597 H         1 UNK         0.3000 
    145 H145        2.3769  -23.2435  -45.6395 H         1 UNK         0.0600 
    146 H146        4.0377  -21.4636  -45.1228 H         1 UNK         0.0600 
    147 H147        3.6519  -21.4482  -46.8369 H         1 UNK         0.0600 
    148 H148        2.9554  -20.2314  -45.7739 H         1 UNK         0.0600 
    149 H149        1.9239  -21.1771  -43.7461 H         1 UNK         0.3000 
    150 H150       -0.4908  -22.8331  -41.7915 H         1 UNK         0.0600 
    151 H151        1.9366  -22.2952  -41.3322 H         1 UNK         0.0600 
    152 H152        0.8175  -21.3057  -40.4114 H         1 UNK         0.0600 
    153 H153        1.6386  -20.6239  -41.8063 H         1 UNK         0.0600 
    154 H154       -1.8018  -21.0275  -41.8200 H         1 UNK         0.3000 
    155 H155       -2.8251  -18.9492  -43.5876 H         1 UNK         0.0600 
    156 H156       -1.5870  -18.4665  -40.8130 H         1 UNK         0.0600 
    157 H157       -2.9870  -19.4753  -41.1775 H         1 UNK         0.0600 
    158 H158       -3.0924  -17.7359  -41.3619 H         1 UNK         0.0600 
    159 H159       -0.4541  -17.2748  -42.9316 H         1 UNK         0.3000 
    160 H160       -0.5717  -15.7386  -46.0039 H         1 UNK         0.0600 
    161 H161       -0.3180  -13.5308  -44.7753 H         1 UNK         0.0600 
    162 H162       -1.2872  -14.1892  -43.4589 H         1 UNK         0.0600 
    163 H163       -1.9923  -13.9904  -45.0588 H         1 UNK         0.0600 
    164 H164        0.9531  -15.4080  -43.5345 H         1 UNK         0.3000 
    165 H165        2.5132  -18.3664  -43.6057 H         1 UNK         0.0600 
    166 H166        4.3888  -16.2838  -44.8091 H         1 UNK         0.0600 
    167 H167        4.8232  -17.7915  -44.0205 H         1 UNK         0.0600 
    168 H168        3.9948  -17.8203  -45.5659 H         1 UNK         0.0600 
    169 H169        3.4781  -15.8074  -42.6138 H         1 UNK         0.3000 
    170 H170        1.2313  -15.6494  -39.8951 H         1 UNK         0.0600 
    171 H171        2.8217  -17.3892  -39.0499 H         1 UNK         0.0600 
    172 H172        4.1700  -16.5067  -39.7565 H         1 UNK         0.0600 
    173 H173        3.2289  -15.7915  -38.4465 H         1 UNK         0.0600 
    174 H174        3.5146  -14.1167  -40.2375 H         1 UNK         0.3000 
    175 H175        2.6681  -11.7303  -40.6552 H         1 UNK         0.0600 
    176 H176        4.1630  -12.6226  -43.1890 H         1 UNK         0.0600 
    177 H177        4.5343  -11.1814  -42.2542 H         1 UNK         0.0600 
    178 H178        4.7744  -12.7672  -41.5481 H         1 UNK         0.0600 
    179 H179        1.1758  -11.8914  -43.0871 H         1 UNK         0.3000 
    180 H180       -0.1987   -9.3035  -42.8972 H         1 UNK         0.0600 
    181 H181        2.0469   -7.9067  -44.4385 H         1 UNK         0.0600 
    182 H182        1.1976   -7.2856  -43.0303 H         1 UNK         0.0600 
    183 H183        0.3359   -7.4945  -44.5442 H         1 UNK         0.0600 
    184 H184       -0.6003  -10.4322  -44.7392 H         1 UNK         0.3000 
    185 H185       -0.3267  -11.8423  -46.4573 H         1 UNK         0.0600 
    186 H186       -0.5610   -9.6385  -47.6231 H         1 UNK         0.0600 
    187 H187        1.0323   -9.8298  -48.3467 H         1 UNK         0.0600 
    188 H188       -0.2788  -10.9223  -48.7899 H         1 UNK         0.0600 
    189 H189        2.5046  -12.0152  -47.1183 H         1 UNK         0.3000 
    190 H190       -1.7586  -22.2124  -45.3424 H         1 UNK         0.3000 
    191 H191       -4.1360  -23.4368  -46.4707 H         1 UNK         0.0600 
    192 H192       -2.6420  -24.0645  -43.8756 H         1 UNK         0.0600 
    193 H193       -4.2481  -24.6184  -44.3181 H         1 UNK         0.0600 
    194 H194       -3.9612  -22.9073  -44.0454 H         1 UNK         0.0600 
    195 H195       -0.7335  -24.3584  -46.0542 H         1 UNK         0.3000 
    196 H196       -1.0660  -27.0902  -46.9333 H         1 UNK         0.0600 
    197 H197        1.4143  -27.0680  -47.0332 H         1 UNK         0.0600 
    198 H198        0.8439  -26.3770  -45.5211 H         1 UNK         0.0600 
    199 H199        1.4353  -25.3249  -46.8039 H         1 UNK         0.0600 
    200 H200        0.1316  -24.0957  -48.5651 H         1 UNK         0.3000 
    201 H201        0.6067  -25.4930  -51.0406 H         1 UNK         0.0600 
    202 H202        2.0775  -23.6805  -50.2152 H         1 UNK         0.0600 
    203 H203        0.7616  -22.5173  -50.3460 H         1 UNK         0.0600 
    204 H204        1.4212  -23.2754  -51.7931 H         1 UNK         0.0600 
    205 H205       -1.9445  -23.1797  -49.9679 H         1 UNK         0.3000 
    206 H206       -3.1869  -23.3362  -52.6944 H         1 UNK         0.0600 
    207 H207       -2.1682  -21.1312  -52.1718 H         1 UNK         0.0600 
    208 H208       -3.9122  -21.0039  -52.2676 H         1 UNK         0.0600 
    209 H209       -3.1207  -21.0155  -50.6976 H         1 UNK         0.0600 
    210 H210       -3.6870  -24.3900  -49.5468 H         1 UNK         0.3000 
    211 H211       -5.4272  -25.0868  -48.3425 H         1 UNK         0.0600 
    212 H212       -7.2517  -24.7742  -50.7744 H         1 UNK         0.0600 
    213 H213       -7.5199  -25.7693  -49.3548 H         1 UNK         0.0600 
    214 H214       -6.2284  -26.1779  -50.4709 H         1 UNK         0.0600 
    215 H215       -4.7225  -22.2277  -48.6486 H         1 UNK         0.3000 
    216 H216       -5.2857  -20.1542  -48.0789 H         1 UNK         0.0600 
    217 H217       -6.2732  -19.9997  -45.7810 H         1 UNK         0.0600 
    218 H218       -5.0105  -21.2077  -45.8954 H         1 UNK         0.0600 
    219 H219       -6.7023  -21.7055  -45.8620 H         1 UNK         0.0600 
    220 H220       -8.4092  -19.5294  -49.8738 H         1 UNK         0.3000 
    221 H221       -5.7487  -20.6720  -50.4515 H         1 UNK         0.0600 
    222 H222       -6.5224  -17.7814  -51.0777 H         1 UNK         0.0600 
    223 H223       -5.3926  -18.2520  -49.8130 H         1 UNK         0.0600 
    224 H224       -5.0120  -18.5857  -51.4936 H         1 UNK         0.0600 
    225 H225       -8.3742  -21.6227  -50.9332 H         1 UNK         0.3000 
    226 H226       -9.6230  -20.8198  -53.2752 H         1 UNK         0.0600 
    227 H227      -10.6898  -22.1898  -51.5153 H         1 UNK         0.0600 
    228 H228      -10.8302  -23.0083  -53.0622 H         1 UNK         0.0600 
    229 H229       -9.6354  -23.5535  -51.8906 H         1 UNK         0.0600 
    230 H230       -6.8284  -22.9920  -53.0288 H         1 UNK         0.3000 
    231 H231       -7.1677  -23.9924  -55.7871 H         1 UNK         0.0600 
    232 H232       -6.3613  -25.4871  -53.9190 H         1 UNK         0.0600 
    233 H233       -4.9007  -24.5081  -53.8049 H         1 UNK         0.0600 
    234 H234       -5.2509  -25.3925  -55.2768 H         1 UNK         0.0600 
    235 H235       -5.9794  -21.1464  -54.4306 H         1 UNK         0.3000 
    236 H236       -4.6705  -19.4713  -55.0562 H         1 UNK         0.0600 
    237 H237       -5.3261  -20.4610  -57.8814 H         1 UNK         0.0600 
    238 H238       -6.3859  -19.4786  -56.8712 H         1 UNK         0.0600 
    239 H239       -4.8582  -18.8241  -57.4365 H         1 UNK         0.0600 
    240 H240       -3.1552  -21.6426  -54.3223 H         1 UNK         0.3000 
    241 H241       -1.0946  -22.3809  -54.1420 H         1 UNK         0.0600 
    242 H242       -2.9590  -23.2457  -56.6716 H         1 UNK         0.3800 
    243 H243       -1.8378  -24.3424  -57.4339 H         1 UNK         0.3800 
    244 H244       -0.0805  -20.3650  -56.1946 H         1 UNK         0.0800 
    245 H245        0.8933  -21.2749  -55.0805 H         1 UNK         0.0800 
    246 H246        1.6703  -20.4170  -52.8747 H         1 UNK         0.0800 
    247 H247        0.1862  -21.1284  -52.2842 H         1 UNK         0.0800 
@<TRIPOS>BOND
     1    1    2 1    
     2    1  127 1    
     3    1  128 1    
     4    1  129 1    
     5    2    3 2    
     6    2    4 am   BACKBONE|DICT|INTERRES
     7    4    5 1    
     8    4  130 1    
     9    5    6 1    
    10    5   65 1    
    11    5  131 1    
    12    6    7 1    
    13    6  132 1    
    14    6  133 1    
    15    7    8 1    
    16    8    9 1    
    17    8  134 1    
    18    8  135 1    
    19    9   10 ar   
    20    9   14 ar   
    21   10   11 ar   
    22   10  136 1    
    23   11   12 ar   
    24   11  126 1    
    25   12   13 ar   
    26   12  137 1    
    27   13   14 ar   
    28   13   15 1    
    29   14  138 1    
    30   15   16 1    
    31   15  139 1    
    32   15  140 1    
    33   16   17 1    
    34   17   18 1    
    35   17  141 1    
    36   17  142 1    
    37   18   19 1    
    38   18   67 1    
    39   18  143 1    
    40   19   20 am   BACKBONE|DICT|INTERRES
    41   19  144 1    
    42   20   21 2    
    43   20   22 1    
    44   22   23 1    
    45   22   24 1    
    46   22  145 1    
    47   23  146 1    
    48   23  147 1    
    49   23  148 1    
    50   24   25 am   BACKBONE|DICT|INTERRES
    51   24  149 1    
    52   25   26 2    
    53   25   27 1    
    54   27   28 1    
    55   27   29 1    
    56   27  150 1    
    57   28  151 1    
    58   28  152 1    
    59   28  153 1    
    60   29   30 am   BACKBONE|DICT|INTERRES
    61   29  154 1    
    62   30   31 2    
    63   30   32 1    
    64   32   33 1    
    65   32   34 1    
    66   32  155 1    
    67   33  156 1    
    68   33  157 1    
    69   33  158 1    
    70   34   35 am   BACKBONE|DICT|INTERRES
    71   34  159 1    
    72   35   36 2    
    73   35   37 1    
    74   37   38 1    
    75   37   39 1    
    76   37  160 1    
    77   38  161 1    
    78   38  162 1    
    79   38  163 1    
    80   39   40 am   BACKBONE|DICT|INTERRES
    81   39  164 1    
    82   40   41 2    
    83   40   42 1    
    84   42   43 1    
    85   42   44 1    
    86   42  165 1    
    87   43  166 1    
    88   43  167 1    
    89   43  168 1    
    90   44   45 am   BACKBONE|DICT|INTERRES
    91   44  169 1    
    92   45   46 2    
    93   45   47 1    
    94   47   48 1    
    95   47   49 1    
    96   47  170 1    
    97   48  171 1    
    98   48  172 1    
    99   48  173 1    
   100   49   50 am   BACKBONE|DICT|INTERRES
   101   49  174 1    
   102   50   51 2    
   103   50   52 1    
   104   52   53 1    
   105   52   54 1    
   106   52  175 1    
   107   53  176 1    
   108   53  177 1    
   109   53  178 1    
   110   54   55 am   BACKBONE|DICT|INTERRES
   111   54  179 1    
   112   55   56 2    
   113   55   57 1    
   114   57   58 1    
   115   57   59 1    
   116   57  180 1    
   117   58  181 1    
   118   58  182 1    
   119   58  183 1    
   120   59   60 am   BACKBONE|DICT|INTERRES
   121   59  184 1    
   122   60   61 2    
   123   60   62 1    
   124   62   63 1    
   125   62   64 1    
   126   62  185 1    
   127   63  186 1    
   128   63  187 1    
   129   63  188 1    
   130   64   65 am   BACKBONE|DICT|INTERRES
   131   64  189 1    
   132   65   66 2    
   133   67   68 2    
   134   67   69 am   BACKBONE|DICT|INTERRES
   135   69   70 1    
   136   69  190 1    
   137   70   71 1    
   138   70   72 1    
   139   70  191 1    
   140   71  192 1    
   141   71  193 1    
   142   71  194 1    
   143   72   73 2    
   144   72   74 am   BACKBONE|DICT|INTERRES
   145   74   75 1    
   146   74  195 1    
   147   75   76 1    
   148   75   77 1    
   149   75  196 1    
   150   76  197 1    
   151   76  198 1    
   152   76  199 1    
   153   77   78 2    
   154   77   79 am   BACKBONE|DICT|INTERRES
   155   79   80 1    
   156   79  200 1    
   157   80   81 1    
   158   80   82 1    
   159   80  201 1    
   160   81  202 1    
   161   81  203 1    
   162   81  204 1    
   163   82   83 2    
   164   82   84 am   BACKBONE|DICT|INTERRES
   165   84   85 1    
   166   84  205 1    
   167   85   86 1    
   168   85   87 1    
   169   85  206 1    
   170   86  207 1    
   171   86  208 1    
   172   86  209 1    
   173   87   88 2    
   174   87   89 am   BACKBONE|DICT|INTERRES
   175   89   90 1    
   176   89  210 1    
   177   90   91 1    
   178   90   92 1    
   179   90  211 1    
   180   91  212 1    
   181   91  213 1    
   182   91  214 1    
   183   92   93 2    
   184   92   94 am   BACKBONE|DICT|INTERRES
   185   94   95 1    
   186   94  215 1    
   187   95   96 1    
   188   95   97 1    
   189   95  216 1    
   190   96  217 1    
   191   96  218 1    
   192   96  219 1    
   193   97   98 2    
   194   97   99 am   BACKBONE|DICT|INTERRES
   195   99  100 1    
   196   99  220 1    
   197  100  101 1    
   198  100  102 1    
   199  100  221 1    
   200  101  222 1    
   201  101  223 1    
   202  101  224 1    
   203  102  103 2    
   204  102  104 am   BACKBONE|DICT|INTERRES
   205  104  105 1    
   206  104  225 1    
   207  105  106 1    
   208  105  107 1    
   209  105  226 1    
   210  106  227 1    
   211  106  228 1    
   212  106  229 1    
   213  107  108 2    
   214  107  109 am   BACKBONE|DICT|INTERRES
   215  109  110 1    
   216  109  230 1    
   217  110  111 1    
   218  110  112 1    
   219  110  231 1    
   220  111  232 1    
   221  111  233 1    
   222  111  234 1    
   223  112  113 2    
   224  112  114 am   BACKBONE|DICT|INTERRES
   225  114  115 1    
   226  114  235 1    
   227  115  116 1    
   228  115  117 1    
   229  115  236 1    
   230  116  237 1    
   231  116  238 1    
   232  116  239 1    
   233  117  118 2    
   234  117  119 am   BACKBONE|DICT|INTERRES
   235  119  120 1    
   236  119  240 1    
   237  120  121 1    
   238  120  124 1    
   239  120  241 1    
   240  121  122 am   BACKBONE|DICT|INTERRES
   241  121  123 2    
   242  122  242 1    
   243  122  243 1    
   244  124  125 1    
   245  124  244 1    
   246  124  245 1    
   247  125  126 1    
   248  126  246 1    
   249  126  247 1    
@<TRIPOS>SUBSTRUCTURE
     1 UNK         1 GROUP             0       ****    0 ROOT    
