@<TRIPOS>MOLECULE
3R540
247   249    1
SMALL
USER_CHARGES


@<TRIPOS>ATOM
      1 CA         -4.4375  -10.3808  -47.7716 C.3       0 UNK        -0.1800 
      2 C          -3.5227  -11.4991  -47.2951 C.2       0 UNK         0.5000 
      3 O          -2.6090  -11.2505  -46.5085 O.2       0 UNK        -0.5000 
      4 N          -3.7740  -12.7360  -47.7482 N.am      1 UNK        -0.5000 
      5 CA         -2.9804  -13.9321  -47.4276 C.3       1 UNK         0.1400 
      6 C6         -3.3952  -15.1434  -48.2998 C.3       23 UNK        -0.0398 
      7 S7         -2.0461  -16.3593  -48.4603 S.3       23 UNK        -0.2404 
      8 C8         -1.7655  -16.4075  -50.2548 C.3       23 UNK        -0.0205 
      9 C9         -0.5918  -17.3169  -50.5786 C.ar      23 UNK        -0.0193 
     10 C10         0.6245  -16.7825  -51.0111 C.ar      23 UNK        -0.1150 
     11 C11         1.7179  -17.6170  -51.2621 C.ar      23 UNK        -0.0193 
     12 C12         1.5840  -18.9984  -51.0914 C.ar      23 UNK        -0.1150 
     13 C13         0.3730  -19.5422  -50.6518 C.ar      23 UNK        -0.0193 
     14 C14        -0.7108  -18.6971  -50.4034 C.ar      23 UNK        -0.1150 
     15 C15         0.2392  -21.0354  -50.4098 C.3       23 UNK        -0.0205 
     16 S16         0.9010  -21.4554  -48.7704 S.3       23 UNK        -0.2404 
     17 C17        -0.2276  -22.7725  -48.1908 C.3       23 UNK        -0.0398 
     18 CA         -0.4391  -22.7801  -46.6474 C.3       11 UNK         0.1400 
     19 N           0.8196  -22.8402  -45.9106 N.am      11 UNK        -0.5000 
     20 C           1.5206  -23.9475  -45.6563 C.2       10 UNK         0.5000 
     21 O           1.1172  -25.0793  -45.9284 O.2       10 UNK        -0.5000 
     22 CA          2.9107  -23.7851  -45.0142 C.3       10 UNK         0.1400 
     23 CB          3.9975  -23.7581  -46.1017 C.3       10 UNK        -0.1800 
     24 N           3.0420  -22.5805  -44.1872 N.am      10 UNK        -0.5000 
     25 C           3.5983  -22.5575  -42.9659 C.2       9 UNK         0.5000 
     26 O           4.0048  -23.5657  -42.3859 O.2       9 UNK        -0.5000 
     27 CA          3.7581  -21.1908  -42.2626 C.3       9 UNK         0.1400 
     28 CB          5.1999  -20.6804  -42.4113 C.3       9 UNK        -0.1800 
     29 N           2.8494  -20.1574  -42.7518 N.am      9 UNK        -0.5000 
     30 C           1.5194  -20.1626  -42.6038 C.2       8 UNK         0.5000 
     31 O           0.9143  -20.9936  -41.9260 O.2       8 UNK        -0.5000 
     32 CA          0.7258  -19.0815  -43.3651 C.3       8 UNK         0.1400 
     33 CB          0.2484  -17.9780  -42.4109 C.3       8 UNK        -0.1800 
     34 N           1.4336  -18.4639  -44.4933 N.am      8 UNK        -0.5000 
     35 C           1.9105  -19.1138  -45.5648 C.2       7 UNK         0.5000 
     36 O           1.8869  -20.3364  -45.6818 O.2       7 UNK        -0.5000 
     37 CA          2.5831  -18.2643  -46.6506 C.3       7 UNK         0.1400 
     38 CB          1.5386  -17.4990  -47.4768 C.3       7 UNK        -0.1800 
     39 N           3.5340  -17.3332  -46.0470 N.am      7 UNK        -0.5000 
     40 C           4.7742  -17.6725  -45.6658 C.2       6 UNK         0.5000 
     41 O           5.2741  -18.7782  -45.8732 O.2       6 UNK        -0.5000 
     42 CA          5.5935  -16.6085  -44.9093 C.3       6 UNK         0.1400 
     43 CB          6.4185  -15.7653  -45.8933 C.3       6 UNK        -0.1800 
     44 N           4.7688  -15.7183  -44.0916 N.am      6 UNK        -0.5000 
     45 C           4.0903  -16.0928  -42.9977 C.2       5 UNK         0.5000 
     46 O           4.1225  -17.2299  -42.5275 O.2       5 UNK        -0.5000 
     47 CA          3.1900  -15.0231  -42.3464 C.3       5 UNK         0.1400 
     48 CB          3.9738  -14.2321  -41.2889 C.3       5 UNK        -0.1800 
     49 N           2.5877  -14.0850  -43.3008 N.am      5 UNK        -0.5000 
     50 C           1.8156  -14.4272  -44.3404 C.2       4 UNK         0.5000 
     51 O           1.5340  -15.5927  -44.6219 O.2       4 UNK        -0.5000 
     52 CA          1.2733  -13.2711  -45.1957 C.3       4 UNK         0.1400 
     53 CB          0.9703  -13.7035  -46.6419 C.3       4 UNK        -0.1800 
     54 N           0.0631  -12.7281  -44.5854 N.am      4 UNK        -0.5000 
     55 C           0.0466  -11.8132  -43.6053 C.2       3 UNK         0.5000 
     56 O           1.0718  -11.3316  -43.1198 O.2       3 UNK        -0.5000 
     57 CA         -1.3228  -11.3397  -43.0772 C.3       3 UNK         0.1400 
     58 CB         -1.5604   -9.8653  -43.4428 C.3       3 UNK        -0.1800 
     59 N          -2.4334  -12.1351  -43.6018 N.am      3 UNK        -0.5000 
     60 C          -2.9915  -13.1787  -42.9710 C.2       2 UNK         0.5000 
     61 O          -2.6617  -13.5499  -41.8441 O.2       2 UNK        -0.5000 
     62 CA         -4.0974  -13.9524  -43.7233 C.3       2 UNK         0.1400 
     63 CB         -5.4869  -13.4770  -43.2723 C.3       2 UNK        -0.1800 
     64 N          -4.0100  -13.8443  -45.1822 N.am      2 UNK        -0.5000 
     65 C          -2.9781  -14.2809  -45.9187 C.2       1 UNK         0.5000 
     66 O          -2.0185  -14.8756  -45.4317 O.2       1 UNK        -0.5000 
     67 C          -1.2936  -21.6314  -46.0694 C.2       11 UNK         0.5000 
     68 O          -1.5344  -21.6255  -44.8604 O.2       11 UNK        -0.5000 
     69 N          -1.7674  -20.7092  -46.9223 N.am      12 UNK        -0.5000 
     70 CA         -2.7003  -19.5963  -46.6726 C.3       12 UNK         0.1400 
     71 CB         -2.1389  -18.5835  -45.6588 C.3       12 UNK        -0.1800 
     72 C          -4.1192  -20.0483  -46.2738 C.2       12 UNK         0.5000 
     73 O          -5.0904  -19.6540  -46.9223 O.2       12 UNK        -0.5000 
     74 N          -4.2091  -20.8969  -45.2446 N.am      13 UNK        -0.5000 
     75 CA         -5.4178  -21.5792  -44.7901 C.3       13 UNK         0.1400 
     76 CB         -5.0877  -22.3444  -43.4995 C.3       13 UNK        -0.1800 
     77 C          -5.9775  -22.5387  -45.8570 C.2       13 UNK         0.5000 
     78 O          -5.2422  -22.9665  -46.7513 O.2       13 UNK        -0.5000 
     79 N          -7.2750  -22.8541  -45.7381 N.am      14 UNK        -0.5000 
     80 CA         -8.0532  -23.7004  -46.6527 C.3       14 UNK         0.1400 
     81 CB         -7.5879  -25.1699  -46.5681 C.3       14 UNK        -0.1800 
     82 C          -8.0585  -23.1513  -48.0951 C.2       14 UNK         0.5000 
     83 O          -7.8844  -23.9123  -49.0480 O.2       14 UNK        -0.5000 
     84 N          -8.2218  -21.8235  -48.2112 N.am      15 UNK        -0.5000 
     85 CA         -8.1948  -21.0319  -49.4453 C.3       15 UNK         0.1400 
     86 CB         -9.4343  -21.3390  -50.3123 C.3       15 UNK        -0.1800 
     87 C          -6.8686  -21.2101  -50.2097 C.2       15 UNK         0.5000 
     88 O          -6.8721  -21.6757  -51.3502 O.2       15 UNK        -0.5000 
     89 N          -5.7541  -20.8787  -49.5399 N.am      16 UNK        -0.5000 
     90 CA         -4.3759  -21.0282  -50.0186 C.3       16 UNK         0.1400 
     91 CB         -4.0945  -20.0682  -51.1948 C.3       16 UNK        -0.1800 
     92 C          -4.0175  -22.4922  -50.3379 C.2       16 UNK         0.5000 
     93 O          -3.4385  -22.7619  -51.3886 O.2       16 UNK        -0.5000 
     94 N          -4.3896  -23.4085  -49.4316 N.am      17 UNK        -0.5000 
     95 CA         -4.2414  -24.8633  -49.5394 C.3       17 UNK         0.1400 
     96 CB         -2.7613  -25.2681  -49.3801 C.3       17 UNK        -0.1800 
     97 C          -4.8998  -25.4303  -50.8159 C.2       17 UNK         0.5000 
     98 O          -4.2485  -26.1295  -51.5935 O.2       17 UNK        -0.5000 
     99 N          -6.1832  -25.0902  -51.0031 N.am      18 UNK        -0.5000 
    100 CA        -7.0323  -25.4131  -52.1519 C.3       18 UNK         0.1400 
    101 CB        -7.2858  -26.9328  -52.2446 C.3       18 UNK        -0.1800 
    102 C         -6.5059  -24.7949  -53.4637 C.2       18 UNK         0.5000 
    103 O         -6.3149  -25.5031  -54.4546 O.2       18 UNK        -0.5000 
    104 N         -6.2984  -23.4707  -53.4345 N.am      19 UNK        -0.5000 
    105 CA        -5.8655  -22.6084  -54.5374 C.3       19 UNK         0.1400 
    106 CB        -6.9486  -22.5401  -55.6344 C.3       19 UNK        -0.1800 
    107 C         -4.4665  -22.9610  -55.0837 C.2       19 UNK         0.5000 
    108 O         -4.2472  -22.9325  -56.2960 O.2       19 UNK        -0.5000 
    109 N         -3.5320  -23.2523  -54.1727 N.am      20 UNK        -0.5000 
    110 CA        -2.1222  -23.5242  -54.4475 C.3       20 UNK         0.1400 
    111 CB        -1.7051  -24.7880  -53.6743 C.3       20 UNK        -0.1800 
    112 C         -1.2558  -22.2997  -54.0859 C.2       20 UNK         0.5000 
    113 O         -0.1342  -22.4588  -53.6005 O.2       20 UNK        -0.5000 
    114 N         -1.7955  -21.0936  -54.3167 N.am      21 UNK        -0.5000 
    115 CA        -1.1313  -19.8113  -54.0868 C.3       21 UNK         0.1400 
    116 CB        -2.1512  -18.6769  -54.2726 C.3       21 UNK        -0.1800 
    117 C          0.0844  -19.6020  -55.0087 C.2       21 UNK         0.5000 
    118 O          0.1121  -20.1305  -56.1234 O.2       21 UNK        -0.5000 
    119 N          1.0541  -18.8125  -54.5341 N.am      22 UNK        -0.5000 
    120 CA         2.3013  -18.5018  -55.2516 C.3       22 UNK         0.1400 
    121 C          2.1601  -17.5357  -56.4680 C.2       22 UNK         0.5000 
    122 N          1.0183  -16.8933  -56.6833 N.am      22 UNK        -0.7600 
    123 O          3.1027  -17.3780  -57.2395 O.2       22 UNK        -0.5000 
    124 C124        3.4230  -18.0597  -54.2769 C.3       23 UNK        -0.0398 
    125 S125        3.0835  -16.4892  -53.4027 S.3       23 UNK        -0.2404 
    126 C126        3.0545  -17.0107  -51.6599 C.3       23 UNK        -0.0205 
    127 H127       -3.8574   -9.6201  -48.2938 H         1 UNK         0.0600 
    128 H128       -4.9294   -9.9109  -46.9199 H         1 UNK         0.0600 
    129 H129       -5.2077  -10.7476  -48.4505 H         1 UNK         0.0600 
    130 H130       -4.5483  -12.8767  -48.3818 H         1 UNK         0.3000 
    131 H131       -1.9508  -13.6742  -47.6852 H         1 UNK         0.0600 
    132 H132       -4.2804  -15.6401  -47.8983 H         1 UNK         0.0800 
    133 H133       -3.6707  -14.8079  -49.3005 H         1 UNK         0.0800 
    134 H134       -1.5836  -15.3966  -50.6229 H         1 UNK         0.0800 
    135 H135       -2.6620  -16.7727  -50.7581 H         1 UNK         0.0800 
    136 H136        0.7310  -15.7133  -51.1294 H         1 UNK         0.1150 
    137 H137        2.4288  -19.6495  -51.2673 H         1 UNK         0.1150 
    138 H138       -1.6409  -19.1051  -50.0382 H         1 UNK         0.1150 
    139 H139       -0.8042  -21.3388  -50.5053 H         1 UNK         0.0800 
    140 H140        0.7890  -21.5902  -51.1713 H         1 UNK         0.0800 
    141 H141        0.2033  -23.7266  -48.4972 H         1 UNK         0.0800 
    142 H142       -1.1858  -22.7128  -48.7080 H         1 UNK         0.0800 
    143 H143       -1.0105  -23.6805  -46.4120 H         1 UNK         0.0600 
    144 H144        1.2199  -21.9275  -45.6988 H         1 UNK         0.3000 
    145 H145        3.0655  -24.6776  -44.4046 H         1 UNK         0.0600 
    146 H146        3.9371  -24.6404  -46.7402 H         1 UNK         0.0600 
    147 H147        3.8991  -22.8802  -46.7421 H         1 UNK         0.0600 
    148 H148        4.9948  -23.7426  -45.6619 H         1 UNK         0.0600 
    149 H149        2.7246  -21.7083  -44.5986 H         1 UNK         0.3000 
    150 H150        3.5556  -21.3425  -41.2005 H         1 UNK         0.0600 
    151 H151        5.9162  -21.4100  -42.0316 H         1 UNK         0.0600 
    152 H152        5.3510  -19.7564  -41.8527 H         1 UNK         0.0600 
    153 H153        5.4501  -20.4851  -43.4551 H         1 UNK         0.0600 
    154 H154        3.2639  -19.4007  -43.2785 H         1 UNK         0.3000 
    155 H155       -0.1502  -19.5829  -43.7732 H         1 UNK         0.0600 
    156 H156       -0.3537  -17.2342  -42.9340 H         1 UNK         0.0600 
    157 H157        1.0899  -17.4656  -41.9461 H         1 UNK         0.0600 
    158 H158       -0.3666  -18.3918  -41.6110 H         1 UNK         0.0600 
    159 H159        1.4935  -17.4479  -44.4842 H         1 UNK         0.3000 
    160 H160        3.1148  -18.9359  -47.3285 H         1 UNK         0.0600 
    161 H161        0.9320  -16.8337  -46.8635 H         1 UNK         0.0600 
    162 H162        0.8555  -18.1928  -47.9675 H         1 UNK         0.0600 
    163 H163        2.0099  -16.9010  -48.2564 H         1 UNK         0.0600 
    164 H164        3.1646  -16.4335  -45.7700 H         1 UNK         0.3000 
    165 H165        6.2841  -17.1338  -44.2460 H         1 UNK         0.0600 
    166 H166        7.0609  -15.0596  -45.3663 H         1 UNK         0.0600 
    167 H167        7.0647  -16.3983  -46.5030 H         1 UNK         0.0600 
    168 H168        5.7800  -15.1981  -46.5718 H         1 UNK         0.0600 
    169 H169        4.6852  -14.7616  -44.4017 H         1 UNK         0.3000 
    170 H170        2.3741  -15.5424  -41.8424 H         1 UNK         0.0600 
    171 H171        4.4139  -14.9005  -40.5475 H         1 UNK         0.0600 
    172 H172        4.7855  -13.6569  -41.7360 H         1 UNK         0.0600 
    173 H173        3.3249  -13.5382  -40.7540 H         1 UNK         0.0600 
    174 H174        2.7244  -13.1003  -43.1137 H         1 UNK         0.3000 
    175 H175        2.0379  -12.4927  -45.2442 H         1 UNK         0.0600 
    176 H176        0.5962  -12.8675  -47.2330 H         1 UNK         0.0600 
    177 H177        1.8707  -14.0735  -47.1334 H         1 UNK         0.0600 
    178 H178        0.2289  -14.5005  -46.6861 H         1 UNK         0.0600 
    179 H179       -0.8084  -13.1549  -44.8727 H         1 UNK         0.3000 
    180 H180       -1.2929  -11.4128  -41.9882 H         1 UNK         0.0600 
    181 H181       -1.5605   -9.7121  -44.5224 H         1 UNK         0.0600 
    182 H182       -0.7824   -9.2272  -43.0218 H         1 UNK         0.0600 
    183 H183       -2.5151   -9.5114  -43.0535 H         1 UNK         0.0600 
    184 H184       -2.7353  -11.9038  -44.5425 H         1 UNK         0.3000 
    185 H185       -3.9934  -15.0072  -43.4606 H         1 UNK         0.0600 
    186 H186       -5.6000  -13.5698  -42.1913 H         1 UNK         0.0600 
    187 H187       -5.6575  -12.4313  -43.5316 H         1 UNK         0.0600 
    188 H188       -6.2766  -14.0715  -43.7320 H         1 UNK         0.0600 
    189 H189       -4.7546  -13.3457  -45.6469 H         1 UNK         0.3000 
    190 H190       -1.4451  -20.7780  -47.8765 H         1 UNK         0.3000 
    191 H191       -2.7940  -19.0789  -47.6274 H         1 UNK         0.0600 
    192 H192       -1.1272  -18.2762  -45.9217 H         1 UNK         0.0600 
    193 H193       -2.7522  -17.6820  -45.6367 H         1 UNK         0.0600 
    194 H194       -2.1264  -18.9830  -44.6459 H         1 UNK         0.0600 
    195 H195       -3.3321  -21.2037  -44.8312 H         1 UNK         0.3000 
    196 H196       -6.1724  -20.8207  -44.5731 H         1 UNK         0.0600 
    197 H197       -5.9694  -22.8480  -43.1012 H         1 UNK         0.0600 
    198 H198       -4.7222  -21.6705  -42.7243 H         1 UNK         0.0600 
    199 H199       -4.3234  -23.1042  -43.6692 H         1 UNK         0.0600 
    200 H200       -7.7954  -22.4591  -44.9668 H         1 UNK         0.3000 
    201 H201       -9.0879  -23.6630  -46.3092 H         1 UNK         0.0600 
    202 H202       -7.6169  -25.5330  -45.5409 H         1 UNK         0.0600 
    203 H203       -6.5710  -25.2982  -46.9391 H         1 UNK         0.0600 
    204 H204       -8.2347  -25.8192  -47.1593 H         1 UNK         0.0600 
    205 H205       -8.3273  -21.2925  -47.3584 H         1 UNK         0.3000 
    206 H206       -8.2478  -19.9826  -49.1510 H         1 UNK         0.0600 
    207 H207      -10.3559  -21.1662  -49.7568 H         1 UNK         0.0600 
    208 H208       -9.4610  -20.6970  -51.1936 H         1 UNK         0.0600 
    209 H209       -9.4429  -22.3720  -50.6618 H         1 UNK         0.0600 
    210 H210       -5.8410  -20.5184  -48.5945 H         1 UNK         0.3000 
    211 H211       -3.7236  -20.7368  -49.1975 H         1 UNK         0.0600 
    212 H212       -4.7267  -20.2803  -52.0569 H         1 UNK         0.0600 
    213 H213       -3.0616  -20.1529  -51.5320 H         1 UNK         0.0600 
    214 H214       -4.2589  -19.0306  -50.9046 H         1 UNK         0.0600 
    215 H215       -4.8448  -23.0931  -48.5774 H         1 UNK         0.3000 
    216 H216       -4.7892  -25.2912  -48.6989 H         1 UNK         0.0600 
    217 H217       -2.6460  -26.3518  -49.4171 H         1 UNK         0.0600 
    218 H218       -2.3678  -24.9366  -48.4197 H         1 UNK         0.0600 
    219 H219       -2.1356  -24.8452  -50.1661 H         1 UNK         0.0600 
    220 H220       -6.6395  -24.5234  -50.2906 H         1 UNK         0.3000 
    221 H221       -7.9940  -24.9362  -51.9559 H         1 UNK         0.0600 
    222 H222       -6.3757  -27.4863  -52.4771 H         1 UNK         0.0600 
    223 H223       -7.6859  -27.3225  -51.3085 H         1 UNK         0.0600 
    224 H224       -8.0119  -27.1579  -53.0264 H         1 UNK         0.0600 
    225 H225       -6.4832  -22.9728  -52.5643 H         1 UNK         0.3000 
    226 H226       -5.7742  -21.6084  -54.1112 H         1 UNK         0.0600 
    227 H227       -7.9152  -22.2594  -55.2159 H         1 UNK         0.0600 
    228 H228       -6.6949  -21.7946  -56.3888 H         1 UNK         0.0600 
    229 H229       -7.0687  -23.4952  -56.1465 H         1 UNK         0.0600 
    230 H230       -3.7645  -23.1931  -53.1831 H         1 UNK         0.3000 
    231 H231       -1.9718  -23.7187  -55.5110 H         1 UNK         0.0600 
    232 H232       -1.7691  -24.6364  -52.5964 H         1 UNK         0.0600 
    233 H233       -0.6791  -25.0737  -53.9082 H         1 UNK         0.0600 
    234 H234       -2.3445  -25.6336  -53.9284 H         1 UNK         0.0600 
    235 H235       -2.7057  -21.0592  -54.7486 H         1 UNK         0.3000 
    236 H236       -0.7872  -19.8033  -53.0545 H         1 UNK         0.0600 
    237 H237       -3.0093  -18.7995  -53.6125 H         1 UNK         0.0600 
    238 H238       -1.7049  -17.7089  -54.0412 H         1 UNK         0.0600 
    239 H239       -2.5212  -18.6332  -55.2978 H         1 UNK         0.0600 
    240 H240        0.9559  -18.3884  -53.6221 H         1 UNK         0.3000 
    241 H241        2.6416  -19.4423  -55.6898 H         1 UNK         0.0600 
    242 H242        0.9374  -16.2763  -57.4762 H         1 UNK         0.3800 
    243 H243        0.2383  -17.0132  -56.0584 H         1 UNK         0.3800 
    244 H244        3.6002  -18.8523  -53.5491 H         1 UNK         0.0800 
    245 H245        4.3663  -17.9490  -54.8143 H         1 UNK         0.0800 
    246 H246        3.2453  -16.1376  -51.0341 H         1 UNK         0.0800 
    247 H247        3.8741  -17.7031  -51.4619 H         1 UNK         0.0800 
@<TRIPOS>BOND
     1    1    2 1    
     2    1  127 1    
     3    1  128 1    
     4    1  129 1    
     5    2    3 2    
     6    2    4 am   BACKBONE|DICT|INTERRES
     7    4    5 1    
     8    4  130 1    
     9    5    6 1    
    10    5   65 1    
    11    5  131 1    
    12    6    7 1    
    13    6  132 1    
    14    6  133 1    
    15    7    8 1    
    16    8    9 1    
    17    8  134 1    
    18    8  135 1    
    19    9   10 ar   
    20    9   14 ar   
    21   10   11 ar   
    22   10  136 1    
    23   11   12 ar   
    24   11  126 1    
    25   12   13 ar   
    26   12  137 1    
    27   13   14 ar   
    28   13   15 1    
    29   14  138 1    
    30   15   16 1    
    31   15  139 1    
    32   15  140 1    
    33   16   17 1    
    34   17   18 1    
    35   17  141 1    
    36   17  142 1    
    37   18   19 1    
    38   18   67 1    
    39   18  143 1    
    40   19   20 am   BACKBONE|DICT|INTERRES
    41   19  144 1    
    42   20   21 2    
    43   20   22 1    
    44   22   23 1    
    45   22   24 1    
    46   22  145 1    
    47   23  146 1    
    48   23  147 1    
    49   23  148 1    
    50   24   25 am   BACKBONE|DICT|INTERRES
    51   24  149 1    
    52   25   26 2    
    53   25   27 1    
    54   27   28 1    
    55   27   29 1    
    56   27  150 1    
    57   28  151 1    
    58   28  152 1    
    59   28  153 1    
    60   29   30 am   BACKBONE|DICT|INTERRES
    61   29  154 1    
    62   30   31 2    
    63   30   32 1    
    64   32   33 1    
    65   32   34 1    
    66   32  155 1    
    67   33  156 1    
    68   33  157 1    
    69   33  158 1    
    70   34   35 am   BACKBONE|DICT|INTERRES
    71   34  159 1    
    72   35   36 2    
    73   35   37 1    
    74   37   38 1    
    75   37   39 1    
    76   37  160 1    
    77   38  161 1    
    78   38  162 1    
    79   38  163 1    
    80   39   40 am   BACKBONE|DICT|INTERRES
    81   39  164 1    
    82   40   41 2    
    83   40   42 1    
    84   42   43 1    
    85   42   44 1    
    86   42  165 1    
    87   43  166 1    
    88   43  167 1    
    89   43  168 1    
    90   44   45 am   BACKBONE|DICT|INTERRES
    91   44  169 1    
    92   45   46 2    
    93   45   47 1    
    94   47   48 1    
    95   47   49 1    
    96   47  170 1    
    97   48  171 1    
    98   48  172 1    
    99   48  173 1    
   100   49   50 am   BACKBONE|DICT|INTERRES
   101   49  174 1    
   102   50   51 2    
   103   50   52 1    
   104   52   53 1    
   105   52   54 1    
   106   52  175 1    
   107   53  176 1    
   108   53  177 1    
   109   53  178 1    
   110   54   55 am   BACKBONE|DICT|INTERRES
   111   54  179 1    
   112   55   56 2    
   113   55   57 1    
   114   57   58 1    
   115   57   59 1    
   116   57  180 1    
   117   58  181 1    
   118   58  182 1    
   119   58  183 1    
   120   59   60 am   BACKBONE|DICT|INTERRES
   121   59  184 1    
   122   60   61 2    
   123   60   62 1    
   124   62   63 1    
   125   62   64 1    
   126   62  185 1    
   127   63  186 1    
   128   63  187 1    
   129   63  188 1    
   130   64   65 am   BACKBONE|DICT|INTERRES
   131   64  189 1    
   132   65   66 2    
   133   67   68 2    
   134   67   69 am   BACKBONE|DICT|INTERRES
   135   69   70 1    
   136   69  190 1    
   137   70   71 1    
   138   70   72 1    
   139   70  191 1    
   140   71  192 1    
   141   71  193 1    
   142   71  194 1    
   143   72   73 2    
   144   72   74 am   BACKBONE|DICT|INTERRES
   145   74   75 1    
   146   74  195 1    
   147   75   76 1    
   148   75   77 1    
   149   75  196 1    
   150   76  197 1    
   151   76  198 1    
   152   76  199 1    
   153   77   78 2    
   154   77   79 am   BACKBONE|DICT|INTERRES
   155   79   80 1    
   156   79  200 1    
   157   80   81 1    
   158   80   82 1    
   159   80  201 1    
   160   81  202 1    
   161   81  203 1    
   162   81  204 1    
   163   82   83 2    
   164   82   84 am   BACKBONE|DICT|INTERRES
   165   84   85 1    
   166   84  205 1    
   167   85   86 1    
   168   85   87 1    
   169   85  206 1    
   170   86  207 1    
   171   86  208 1    
   172   86  209 1    
   173   87   88 2    
   174   87   89 am   BACKBONE|DICT|INTERRES
   175   89   90 1    
   176   89  210 1    
   177   90   91 1    
   178   90   92 1    
   179   90  211 1    
   180   91  212 1    
   181   91  213 1    
   182   91  214 1    
   183   92   93 2    
   184   92   94 am   BACKBONE|DICT|INTERRES
   185   94   95 1    
   186   94  215 1    
   187   95   96 1    
   188   95   97 1    
   189   95  216 1    
   190   96  217 1    
   191   96  218 1    
   192   96  219 1    
   193   97   98 2    
   194   97   99 am   BACKBONE|DICT|INTERRES
   195   99  100 1    
   196   99  220 1    
   197  100  101 1    
   198  100  102 1    
   199  100  221 1    
   200  101  222 1    
   201  101  223 1    
   202  101  224 1    
   203  102  103 2    
   204  102  104 am   BACKBONE|DICT|INTERRES
   205  104  105 1    
   206  104  225 1    
   207  105  106 1    
   208  105  107 1    
   209  105  226 1    
   210  106  227 1    
   211  106  228 1    
   212  106  229 1    
   213  107  108 2    
   214  107  109 am   BACKBONE|DICT|INTERRES
   215  109  110 1    
   216  109  230 1    
   217  110  111 1    
   218  110  112 1    
   219  110  231 1    
   220  111  232 1    
   221  111  233 1    
   222  111  234 1    
   223  112  113 2    
   224  112  114 am   BACKBONE|DICT|INTERRES
   225  114  115 1    
   226  114  235 1    
   227  115  116 1    
   228  115  117 1    
   229  115  236 1    
   230  116  237 1    
   231  116  238 1    
   232  116  239 1    
   233  117  118 2    
   234  117  119 am   BACKBONE|DICT|INTERRES
   235  119  120 1    
   236  119  240 1    
   237  120  121 1    
   238  120  124 1    
   239  120  241 1    
   240  121  122 am   BACKBONE|DICT|INTERRES
   241  121  123 2    
   242  122  242 1    
   243  122  243 1    
   244  124  125 1    
   245  124  244 1    
   246  124  245 1    
   247  125  126 1    
   248  126  246 1    
   249  126  247 1    
@<TRIPOS>SUBSTRUCTURE
     1 UNK         1 GROUP             0       ****    0 ROOT    
