@<TRIPOS>MOLECULE
3R540
247   249    1
SMALL
USER_CHARGES


@<TRIPOS>ATOM
      1 CA         -5.7840  -16.8516  -41.4606 C.3       0 UNK        -0.1800 
      2 C          -5.7213  -15.9191  -42.6625 C.2       0 UNK         0.5000 
      3 O          -6.4886  -14.9584  -42.7347 O.2       0 UNK        -0.5000 
      4 N          -4.8184  -16.2059  -43.6074 N.am      1 UNK        -0.5000 
      5 CA         -4.5716  -15.4050  -44.8114 C.3       1 UNK         0.1400 
      6 C6         -3.7105  -16.1714  -45.8476 C.3       23 UNK        -0.0398 
      7 S7         -4.4119  -17.7896  -46.3146 S.3       23 UNK        -0.2404 
      8 C8         -4.3961  -17.7037  -48.1405 C.3       23 UNK        -0.0205 
      9 C9         -3.0221  -17.5189  -48.7915 C.ar      23 UNK        -0.0193 
     10 C10        -2.9687  -17.0135  -50.0946 C.ar      23 UNK        -0.1150 
     11 C11        -1.7453  -16.7908  -50.7341 C.ar      23 UNK        -0.0193 
     12 C12        -0.5603  -17.0621  -50.0468 C.ar      23 UNK        -0.1150 
     13 C13        -0.5909  -17.5943  -48.7570 C.ar      23 UNK        -0.0193 
     14 C14        -1.8219  -17.8322  -48.1388 C.ar      23 UNK        -0.1150 
     15 C15         0.7082  -17.8627  -48.0139 C.3       23 UNK        -0.0205 
     16 S16         1.8080  -19.0215  -48.8806 S.3       23 UNK        -0.2404 
     17 C17         0.8106  -20.5543  -48.9687 C.3       23 UNK        -0.0398 
     18 CA          0.7444  -21.4208  -47.6747 C.3       11 UNK         0.1400 
     19 N           1.9660  -21.3798  -46.8752 N.am      11 UNK        -0.5000 
     20 C           3.1019  -22.0161  -47.1786 C.2       10 UNK         0.5000 
     21 O           3.2118  -22.7855  -48.1342 O.2       10 UNK        -0.5000 
     22 CA          4.3254  -21.7550  -46.2836 C.3       10 UNK         0.1400 
     23 CB          5.2494  -20.7192  -46.9437 C.3       10 UNK        -0.1800 
     24 N           3.9498  -21.2626  -44.9574 N.am      10 UNK        -0.5000 
     25 C           4.2118  -21.8895  -43.8034 C.2       9 UNK         0.5000 
     26 O           4.7745  -22.9822  -43.7249 O.2       9 UNK        -0.5000 
     27 CA          3.7611  -21.1819  -42.5174 C.3       9 UNK         0.1400 
     28 CB          4.6735  -19.9857  -42.2073 C.3       9 UNK        -0.1800 
     29 N           2.3788  -20.7226  -42.6431 N.am      9 UNK        -0.5000 
     30 C           1.3508  -21.1755  -41.9136 C.2       8 UNK         0.5000 
     31 O           1.4721  -22.0063  -41.0116 O.2       8 UNK        -0.5000 
     32 CA         -0.0573  -20.6507  -42.2668 C.3       8 UNK         0.1400 
     33 CB         -0.9441  -20.4220  -41.0249 C.3       8 UNK        -0.1800 
     34 N          -0.0586  -19.4810  -43.1510 N.am      8 UNK        -0.5000 
     35 C           0.3373  -18.2335  -42.8692 C.2       7 UNK         0.5000 
     36 O           0.7581  -17.8647  -41.7714 O.2       7 UNK        -0.5000 
     37 CA          0.2742  -17.2345  -44.0396 C.3       7 UNK         0.1400 
     38 CB         -0.5461  -15.9943  -43.6570 C.3       7 UNK        -0.1800 
     39 N           1.6014  -16.8030  -44.4710 N.am      7 UNK        -0.5000 
     40 C           2.6149  -17.5933  -44.8515 C.2       6 UNK         0.5000 
     41 O           2.5385  -18.8210  -44.9516 O.2       6 UNK        -0.5000 
     42 CA          3.9510  -16.8916  -45.1562 C.3       6 UNK         0.1400 
     43 CB          4.0840  -16.5989  -46.6577 C.3       6 UNK        -0.1800 
     44 N           4.1204  -15.6465  -44.4014 N.am      6 UNK        -0.5000 
     45 C           4.4110  -15.5908  -43.0924 C.2       5 UNK         0.5000 
     46 O           4.5966  -16.5893  -42.3976 O.2       5 UNK        -0.5000 
     47 CA          4.5395  -14.1995  -42.4407 C.3       5 UNK         0.1400 
     48 CB          6.0157  -13.8723  -42.1640 C.3       5 UNK        -0.1800 
     49 N           3.9670  -13.1218  -43.2476 N.am      5 UNK        -0.5000 
     50 C           2.6636  -12.8230  -43.3182 C.2       4 UNK         0.5000 
     51 O           1.7948  -13.4200  -42.6809 O.2       4 UNK        -0.5000 
     52 CA          2.2579  -11.6598  -44.2527 C.3       4 UNK         0.1400 
     53 CB          3.4247  -11.0928  -45.0933 C.3       4 UNK        -0.1800 
     54 N           1.1398  -11.9912  -45.1408 N.am      4 UNK        -0.5000 
     55 C           1.0205  -13.0499  -45.9519 C.2       3 UNK         0.5000 
     56 O           1.8260  -13.9831  -45.9775 O.2       3 UNK        -0.5000 
     57 CA         -0.1908  -13.0452  -46.9142 C.3       3 UNK         0.1400 
     58 CB         -0.2770  -14.3330  -47.7497 C.3       3 UNK        -0.1800 
     59 N          -1.4884  -12.8460  -46.2648 N.am      3 UNK        -0.5000 
     60 C          -1.9700  -11.7190  -45.7230 C.2       2 UNK         0.5000 
     61 O          -1.3168  -10.6784  -45.6318 O.2       2 UNK        -0.5000 
     62 CA         -3.4327  -11.7425  -45.2239 C.3       2 UNK         0.1400 
     63 CB         -4.2854  -10.7273  -46.0027 C.3       2 UNK        -0.1800 
     64 N          -4.0680  -13.0616  -45.3321 N.am      2 UNK        -0.5000 
     65 C          -3.8941  -14.0617  -44.4592 C.2       1 UNK         0.5000 
     66 O          -3.1896  -13.9658  -43.4521 O.2       1 UNK        -0.5000 
     67 C          -0.4469  -21.0580  -46.7764 C.2       11 UNK         0.5000 
     68 O          -0.2728  -20.3433  -45.7862 O.2       11 UNK        -0.5000 
     69 N          -1.6373  -21.5581  -47.1231 N.am      12 UNK        -0.5000 
     70 CA         -2.8753  -21.3291  -46.3896 C.3       12 UNK         0.1400 
     71 CB         -2.9099  -22.1949  -45.1164 C.3       12 UNK        -0.1800 
     72 C          -4.0675  -21.6754  -47.2855 C.2       12 UNK         0.5000 
     73 O          -3.9564  -22.5502  -48.1488 O.2       12 UNK        -0.5000 
     74 N          -5.2130  -21.0424  -47.0090 N.am      13 UNK        -0.5000 
     75 CA         -6.5031  -21.3379  -47.6381 C.3       13 UNK         0.1400 
     76 CB         -7.5067  -20.2369  -47.2652 C.3       13 UNK        -0.1800 
     77 C          -7.0518  -22.7280  -47.2563 C.2       13 UNK         0.5000 
     78 O          -7.8221  -23.3045  -48.0226 O.2       13 UNK        -0.5000 
     79 N          -6.6163  -23.2538  -46.1011 N.am      14 UNK        -0.5000 
     80 CA         -6.8928  -24.6140  -45.6365 C.3       14 UNK         0.1400 
     81 CB         -6.4816  -24.7339  -44.1611 C.3       14 UNK        -0.1800 
     82 C          -6.1836  -25.6887  -46.4842 C.2       14 UNK         0.5000 
     83 O          -6.7419  -26.7688  -46.6795 O.2       14 UNK        -0.5000 
     84 N          -4.9813  -25.3692  -46.9886 N.am      15 UNK        -0.5000 
     85 CA         -4.2501  -26.1937  -47.9545 C.3       15 UNK         0.1400 
     86 CB         -2.7609  -25.8147  -47.9326 C.3       15 UNK        -0.1800 
     87 C          -4.8320  -26.0485  -49.3730 C.2       15 UNK         0.5000 
     88 O          -4.7967  -27.0059  -50.1467 O.2       15 UNK        -0.5000 
     89 N          -5.3696  -24.8557  -49.6696 N.am      16 UNK        -0.5000 
     90 CA         -6.1123  -24.4351  -50.8618 C.3       16 UNK         0.1400 
     91 CB         -7.3648  -25.3013  -51.0918 C.3       16 UNK        -0.1800 
     92 C          -5.2481  -24.3390  -52.1271 C.2       16 UNK         0.5000 
     93 O          -5.1826  -23.2690  -52.7299 O.2       16 UNK        -0.5000 
     94 N          -4.5594  -25.4287  -52.4856 N.am      17 UNK        -0.5000 
     95 CA         -3.6427  -25.5062  -53.6253 C.3       17 UNK         0.1400 
     96 CB         -3.1612  -26.9546  -53.7917 C.3       17 UNK        -0.1800 
     97 C          -2.4461  -24.5476  -53.4868 C.2       17 UNK         0.5000 
     98 O          -2.0228  -23.9474  -54.4736 O.2       17 UNK        -0.5000 
     99 N          -1.9612  -24.3845  -52.2487 N.am      18 UNK        -0.5000 
    100 CA        -0.8786  -23.4693  -51.8919 C.3       18 UNK         0.1400 
    101 CB        -0.3896  -23.8154  -50.4783 C.3       18 UNK        -0.1800 
    102 C         -1.2876  -21.9853  -51.9847 C.2       18 UNK         0.5000 
    103 O         -0.4294  -21.1432  -52.2415 O.2       18 UNK        -0.5000 
    104 N         -2.5811  -21.6944  -51.7868 N.am      19 UNK        -0.5000 
    105 CA        -3.1625  -20.3632  -51.9610 C.3       19 UNK         0.1400 
    106 CB        -4.4120  -20.2342  -51.0773 C.3       19 UNK        -0.1800 
    107 C         -3.4979  -20.0857  -53.4375 C.2       19 UNK         0.5000 
    108 O         -3.2865  -18.9708  -53.9112 O.2       19 UNK        -0.5000 
    109 N         -3.9848  -21.1084  -54.1564 N.am      20 UNK        -0.5000 
    110 CA        -4.2747  -21.0599  -55.5929 C.3       20 UNK         0.1400 
    111 CB        -4.9891  -22.3520  -56.0142 C.3       20 UNK        -0.1800 
    112 C         -3.0174  -20.8299  -56.4539 C.2       20 UNK         0.5000 
    113 O         -3.1013  -20.1707  -57.4919 O.2       20 UNK        -0.5000 
    114 N         -1.8660  -21.3269  -55.9780 N.am      21 UNK        -0.5000 
    115 CA        -0.5360  -21.1405  -56.5647 C.3       21 UNK         0.1400 
    116 CB         0.4854  -21.9566  -55.7575 C.3       21 UNK        -0.1800 
    117 C         -0.0814  -19.6691  -56.6805 C.2       21 UNK         0.5000 
    118 O          0.8290  -19.3876  -57.4613 O.2       21 UNK        -0.5000 
    119 N         -0.7240  -18.7571  -55.9373 N.am      22 UNK        -0.5000 
    120 CA        -0.5559  -17.3011  -56.0715 C.3       22 UNK         0.1400 
    121 C         -1.1116  -16.7160  -57.4057 C.2       22 UNK         0.5000 
    122 N         -1.9509  -17.4260  -58.1533 N.am      22 UNK        -0.7600 
    123 O         -0.7712  -15.5940  -57.7705 O.2       22 UNK        -0.5000 
    124 C124       -1.1587  -16.5284  -54.8707 C.3       23 UNK        -0.0398 
    125 S125       -0.5545  -17.1038  -53.2490 S.3       23 UNK        -0.2404 
    126 C126       -1.7181  -16.2275  -52.1502 C.3       23 UNK        -0.0205 
    127 H127       -5.5847  -16.2959  -40.5443 H         1 UNK         0.0600 
    128 H128       -5.0541  -17.6582  -41.5343 H         1 UNK         0.0600 
    129 H129       -6.7759  -17.2968  -41.3822 H         1 UNK         0.0600 
    130 H130       -4.2195  -17.0093  -43.4903 H         1 UNK         0.3000 
    131 H131       -5.5396  -15.1856  -45.2674 H         1 UNK         0.0600 
    132 H132       -3.5848  -15.5706  -46.7499 H         1 UNK         0.0800 
    133 H133       -2.7065  -16.3514  -45.4641 H         1 UNK         0.0800 
    134 H134       -5.0561  -16.8896  -48.4441 H         1 UNK         0.0800 
    135 H135       -4.8419  -18.6176  -48.5313 H         1 UNK         0.0800 
    136 H136       -3.8892  -16.7838  -50.6129 H         1 UNK         0.1150 
    137 H137        0.3923  -16.8683  -50.5193 H         1 UNK         0.1150 
    138 H138       -1.8343  -18.2386  -47.1386 H         1 UNK         0.1150 
    139 H139        1.2381  -16.9192  -47.8847 H         1 UNK         0.0800 
    140 H140        0.5186  -18.2378  -47.0114 H         1 UNK         0.0800 
    141 H141       -0.1834  -20.3226  -49.3559 H         1 UNK         0.0800 
    142 H142        1.2796  -21.1498  -49.7516 H         1 UNK         0.0800 
    143 H143        0.5847  -22.4602  -47.9678 H         1 UNK         0.0600 
    144 H144        1.9223  -20.7535  -46.0812 H         1 UNK         0.3000 
    145 H145        4.8717  -22.6971  -46.2064 H         1 UNK         0.0600 
    146 H146        4.7481  -19.7593  -47.0691 H         1 UNK         0.0600 
    147 H147        6.1466  -20.5541  -46.3471 H         1 UNK         0.0600 
    148 H148        5.5711  -21.0532  -47.9309 H         1 UNK         0.0600 
    149 H149        3.4844  -20.3585  -44.9332 H         1 UNK         0.3000 
    150 H150        3.8591  -21.8965  -41.6977 H         1 UNK         0.0600 
    151 H151        5.7079  -20.3062  -42.0786 H         1 UNK         0.0600 
    152 H152        4.3692  -19.4863  -41.2873 H         1 UNK         0.0600 
    153 H153        4.6569  -19.2457  -43.0069 H         1 UNK         0.0600 
    154 H154        2.1910  -20.0406  -43.3693 H         1 UNK         0.3000 
    155 H155       -0.5178  -21.4509  -42.8451 H         1 UNK         0.0600 
    156 H156       -1.9331  -20.0612  -41.3076 H         1 UNK         0.0600 
    157 H157       -0.5046  -19.6985  -40.3382 H         1 UNK         0.0600 
    158 H158       -1.0861  -21.3499  -40.4699 H         1 UNK         0.0600 
    159 H159       -0.2858  -19.6958  -44.1224 H         1 UNK         0.3000 
    160 H160       -0.2178  -17.7123  -44.8876 H         1 UNK         0.0600 
    161 H161       -0.0756  -15.4346  -42.8479 H         1 UNK         0.0600 
    162 H162       -1.5439  -16.2745  -43.3180 H         1 UNK         0.0600 
    163 H163       -0.6623  -15.3170  -44.5026 H         1 UNK         0.0600 
    164 H164        1.7766  -15.8073  -44.4390 H         1 UNK         0.3000 
    165 H165        4.7527  -17.5787  -44.8778 H         1 UNK         0.0600 
    166 H166        3.3289  -15.8928  -47.0023 H         1 UNK         0.0600 
    167 H167        5.0635  -16.1825  -46.8925 H         1 UNK         0.0600 
    168 H168        3.9694  -17.5091  -47.2462 H         1 UNK         0.0600 
    169 H169        3.9364  -14.7857  -44.8984 H         1 UNK         0.3000 
    170 H170        4.0158  -14.2387  -41.4831 H         1 UNK         0.0600 
    171 H171        6.4741  -14.6348  -41.5326 H         1 UNK         0.0600 
    172 H172        6.5959  -13.8179  -43.0860 H         1 UNK         0.0600 
    173 H173        6.1182  -12.9192  -41.6448 H         1 UNK         0.0600 
    174 H174        4.6151  -12.5831  -43.8039 H         1 UNK         0.3000 
    175 H175        1.9021  -10.8616  -43.5999 H         1 UNK         0.0600 
    176 H176        3.8476  -11.8435  -45.7624 H         1 UNK         0.0600 
    177 H177        3.0886  -10.2584  -45.7093 H         1 UNK         0.0600 
    178 H178        4.2268  -10.7114  -44.4602 H         1 UNK         0.0600 
    179 H179        0.3844  -11.3114  -45.1745 H         1 UNK         0.3000 
    180 H180       -0.0332  -12.2151  -47.6056 H         1 UNK         0.0600 
    181 H181       -0.4397  -15.2045  -47.1151 H         1 UNK         0.0600 
    182 H182        0.6411  -14.5003  -48.3143 H         1 UNK         0.0600 
    183 H183       -1.0925  -14.2877  -48.4720 H         1 UNK         0.0600 
    184 H184       -2.1034  -13.6429  -46.2717 H         1 UNK         0.3000 
    185 H185       -3.4205  -11.4389  -44.1749 H         1 UNK         0.0600 
    186 H186       -3.8796   -9.7191  -45.9097 H         1 UNK         0.0600 
    187 H187       -4.3265  -10.9675  -47.0659 H         1 UNK         0.0600 
    188 H188       -5.3075  -10.6982  -45.6245 H         1 UNK         0.0600 
    189 H189       -4.6623  -13.2025  -46.1371 H         1 UNK         0.3000 
    190 H190       -1.7501  -22.1216  -47.9554 H         1 UNK         0.3000 
    191 H191       -2.9343  -20.2754  -46.1151 H         1 UNK         0.0600 
    192 H192       -3.8355  -22.0445  -44.5598 H         1 UNK         0.0600 
    193 H193       -2.0919  -21.9443  -44.4440 H         1 UNK         0.0600 
    194 H194       -2.8326  -23.2576  -45.3504 H         1 UNK         0.0600 
    195 H195       -5.2180  -20.3228  -46.2991 H         1 UNK         0.3000 
    196 H196       -6.3651  -21.3244  -48.7214 H         1 UNK         0.0600 
    197 H197       -8.4749  -20.4153  -47.7348 H         1 UNK         0.0600 
    198 H198       -7.1617  -19.2580  -47.5982 H         1 UNK         0.0600 
    199 H199       -7.6679  -20.1868  -46.1877 H         1 UNK         0.0600 
    200 H200       -6.0143  -22.6913  -45.5196 H         1 UNK         0.3000 
    201 H201       -7.9686  -24.7878  -45.7088 H         1 UNK         0.0600 
    202 H202       -7.0292  -24.0247  -43.5401 H         1 UNK         0.0600 
    203 H203       -5.4155  -24.5494  -44.0223 H         1 UNK         0.0600 
    204 H204       -6.6947  -25.7323  -43.7768 H         1 UNK         0.0600 
    205 H205       -4.6006  -24.4545  -46.7976 H         1 UNK         0.3000 
    206 H206       -4.3368  -27.2426  -47.6629 H         1 UNK         0.0600 
    207 H207       -2.3332  -25.9582  -46.9403 H         1 UNK         0.0600 
    208 H208       -2.1906  -26.4354  -48.6249 H         1 UNK         0.0600 
    209 H209       -2.6006  -24.7760  -48.2177 H         1 UNK         0.0600 
    210 H210       -5.2452  -24.1271  -48.9782 H         1 UNK         0.3000 
    211 H211       -6.4583  -23.4231  -50.6447 H         1 UNK         0.0600 
    212 H212       -7.1144  -26.3361  -51.3264 H         1 UNK         0.0600 
    213 H213       -7.9567  -24.9139  -51.9219 H         1 UNK         0.0600 
    214 H214       -8.0051  -25.3037  -50.2095 H         1 UNK         0.0600 
    215 H215       -4.6383  -26.2485  -51.8895 H         1 UNK         0.3000 
    216 H216       -4.1966  -25.2236  -54.5222 H         1 UNK         0.0600 
    217 H217       -2.6282  -27.3065  -52.9074 H         1 UNK         0.0600 
    218 H218       -2.4849  -27.0463  -54.6427 H         1 UNK         0.0600 
    219 H219       -3.9987  -27.6297  -53.9684 H         1 UNK         0.0600 
    220 H220       -2.3751  -24.9189  -51.4997 H         1 UNK         0.3000 
    221 H221       -0.0546  -23.6334  -52.5899 H         1 UNK         0.0600 
    222 H222       -1.1267  -23.5514  -49.7197 H         1 UNK         0.0600 
    223 H223       -0.1732  -24.8796  -50.3813 H         1 UNK         0.0600 
    224 H224        0.5335  -23.2842  -50.2510 H         1 UNK         0.0600 
    225 H225       -3.2277  -22.4492  -51.6108 H         1 UNK         0.3000 
    226 H226       -2.4405  -19.6112  -51.6339 H         1 UNK         0.0600 
    227 H227       -4.1613  -20.3875  -50.0287 H         1 UNK         0.0600 
    228 H228       -4.8507  -19.2399  -51.1665 H         1 UNK         0.0600 
    229 H229       -5.1813  -20.9577  -51.3469 H         1 UNK         0.0600 
    230 H230       -4.2154  -21.9749  -53.6779 H         1 UNK         0.3000 
    231 H231       -4.9526  -20.2219  -55.7669 H         1 UNK         0.0600 
    232 H232       -5.2730  -22.3151  -57.0666 H         1 UNK         0.0600 
    233 H233       -5.9003  -22.5073  -55.4360 H         1 UNK         0.0600 
    234 H234       -4.3515  -23.2251  -55.8775 H         1 UNK         0.0600 
    235 H235       -1.9116  -21.9154  -55.1546 H         1 UNK         0.3000 
    236 H236       -0.5701  -21.5447  -57.5782 H         1 UNK         0.0600 
    237 H237        0.5443  -21.6141  -54.7244 H         1 UNK         0.0600 
    238 H238        0.2278  -23.0156  -55.7475 H         1 UNK         0.0600 
    239 H239        1.4839  -21.8716  -56.1882 H         1 UNK         0.0600 
    240 H240       -1.4526  -19.0594  -55.3035 H         1 UNK         0.3000 
    241 H241        0.5177  -17.1036  -56.0779 H         1 UNK         0.0600 
    242 H242       -2.2540  -18.3514  -57.8691 H         1 UNK         0.3800 
    243 H243       -2.2977  -17.0336  -59.0142 H         1 UNK         0.3800 
    244 H244       -0.9347  -15.4632  -54.9514 H         1 UNK         0.0800 
    245 H245       -2.2465  -16.6157  -54.8856 H         1 UNK         0.0800 
    246 H246       -1.4483  -15.1716  -52.1091 H         1 UNK         0.0800 
    247 H247       -2.7173  -16.2801  -52.5853 H         1 UNK         0.0800 
@<TRIPOS>BOND
     1    1    2 1    
     2    1  127 1    
     3    1  128 1    
     4    1  129 1    
     5    2    3 2    
     6    2    4 am   BACKBONE|DICT|INTERRES
     7    4    5 1    
     8    4  130 1    
     9    5    6 1    
    10    5   65 1    
    11    5  131 1    
    12    6    7 1    
    13    6  132 1    
    14    6  133 1    
    15    7    8 1    
    16    8    9 1    
    17    8  134 1    
    18    8  135 1    
    19    9   10 ar   
    20    9   14 ar   
    21   10   11 ar   
    22   10  136 1    
    23   11   12 ar   
    24   11  126 1    
    25   12   13 ar   
    26   12  137 1    
    27   13   14 ar   
    28   13   15 1    
    29   14  138 1    
    30   15   16 1    
    31   15  139 1    
    32   15  140 1    
    33   16   17 1    
    34   17   18 1    
    35   17  141 1    
    36   17  142 1    
    37   18   19 1    
    38   18   67 1    
    39   18  143 1    
    40   19   20 am   BACKBONE|DICT|INTERRES
    41   19  144 1    
    42   20   21 2    
    43   20   22 1    
    44   22   23 1    
    45   22   24 1    
    46   22  145 1    
    47   23  146 1    
    48   23  147 1    
    49   23  148 1    
    50   24   25 am   BACKBONE|DICT|INTERRES
    51   24  149 1    
    52   25   26 2    
    53   25   27 1    
    54   27   28 1    
    55   27   29 1    
    56   27  150 1    
    57   28  151 1    
    58   28  152 1    
    59   28  153 1    
    60   29   30 am   BACKBONE|DICT|INTERRES
    61   29  154 1    
    62   30   31 2    
    63   30   32 1    
    64   32   33 1    
    65   32   34 1    
    66   32  155 1    
    67   33  156 1    
    68   33  157 1    
    69   33  158 1    
    70   34   35 am   BACKBONE|DICT|INTERRES
    71   34  159 1    
    72   35   36 2    
    73   35   37 1    
    74   37   38 1    
    75   37   39 1    
    76   37  160 1    
    77   38  161 1    
    78   38  162 1    
    79   38  163 1    
    80   39   40 am   BACKBONE|DICT|INTERRES
    81   39  164 1    
    82   40   41 2    
    83   40   42 1    
    84   42   43 1    
    85   42   44 1    
    86   42  165 1    
    87   43  166 1    
    88   43  167 1    
    89   43  168 1    
    90   44   45 am   BACKBONE|DICT|INTERRES
    91   44  169 1    
    92   45   46 2    
    93   45   47 1    
    94   47   48 1    
    95   47   49 1    
    96   47  170 1    
    97   48  171 1    
    98   48  172 1    
    99   48  173 1    
   100   49   50 am   BACKBONE|DICT|INTERRES
   101   49  174 1    
   102   50   51 2    
   103   50   52 1    
   104   52   53 1    
   105   52   54 1    
   106   52  175 1    
   107   53  176 1    
   108   53  177 1    
   109   53  178 1    
   110   54   55 am   BACKBONE|DICT|INTERRES
   111   54  179 1    
   112   55   56 2    
   113   55   57 1    
   114   57   58 1    
   115   57   59 1    
   116   57  180 1    
   117   58  181 1    
   118   58  182 1    
   119   58  183 1    
   120   59   60 am   BACKBONE|DICT|INTERRES
   121   59  184 1    
   122   60   61 2    
   123   60   62 1    
   124   62   63 1    
   125   62   64 1    
   126   62  185 1    
   127   63  186 1    
   128   63  187 1    
   129   63  188 1    
   130   64   65 am   BACKBONE|DICT|INTERRES
   131   64  189 1    
   132   65   66 2    
   133   67   68 2    
   134   67   69 am   BACKBONE|DICT|INTERRES
   135   69   70 1    
   136   69  190 1    
   137   70   71 1    
   138   70   72 1    
   139   70  191 1    
   140   71  192 1    
   141   71  193 1    
   142   71  194 1    
   143   72   73 2    
   144   72   74 am   BACKBONE|DICT|INTERRES
   145   74   75 1    
   146   74  195 1    
   147   75   76 1    
   148   75   77 1    
   149   75  196 1    
   150   76  197 1    
   151   76  198 1    
   152   76  199 1    
   153   77   78 2    
   154   77   79 am   BACKBONE|DICT|INTERRES
   155   79   80 1    
   156   79  200 1    
   157   80   81 1    
   158   80   82 1    
   159   80  201 1    
   160   81  202 1    
   161   81  203 1    
   162   81  204 1    
   163   82   83 2    
   164   82   84 am   BACKBONE|DICT|INTERRES
   165   84   85 1    
   166   84  205 1    
   167   85   86 1    
   168   85   87 1    
   169   85  206 1    
   170   86  207 1    
   171   86  208 1    
   172   86  209 1    
   173   87   88 2    
   174   87   89 am   BACKBONE|DICT|INTERRES
   175   89   90 1    
   176   89  210 1    
   177   90   91 1    
   178   90   92 1    
   179   90  211 1    
   180   91  212 1    
   181   91  213 1    
   182   91  214 1    
   183   92   93 2    
   184   92   94 am   BACKBONE|DICT|INTERRES
   185   94   95 1    
   186   94  215 1    
   187   95   96 1    
   188   95   97 1    
   189   95  216 1    
   190   96  217 1    
   191   96  218 1    
   192   96  219 1    
   193   97   98 2    
   194   97   99 am   BACKBONE|DICT|INTERRES
   195   99  100 1    
   196   99  220 1    
   197  100  101 1    
   198  100  102 1    
   199  100  221 1    
   200  101  222 1    
   201  101  223 1    
   202  101  224 1    
   203  102  103 2    
   204  102  104 am   BACKBONE|DICT|INTERRES
   205  104  105 1    
   206  104  225 1    
   207  105  106 1    
   208  105  107 1    
   209  105  226 1    
   210  106  227 1    
   211  106  228 1    
   212  106  229 1    
   213  107  108 2    
   214  107  109 am   BACKBONE|DICT|INTERRES
   215  109  110 1    
   216  109  230 1    
   217  110  111 1    
   218  110  112 1    
   219  110  231 1    
   220  111  232 1    
   221  111  233 1    
   222  111  234 1    
   223  112  113 2    
   224  112  114 am   BACKBONE|DICT|INTERRES
   225  114  115 1    
   226  114  235 1    
   227  115  116 1    
   228  115  117 1    
   229  115  236 1    
   230  116  237 1    
   231  116  238 1    
   232  116  239 1    
   233  117  118 2    
   234  117  119 am   BACKBONE|DICT|INTERRES
   235  119  120 1    
   236  119  240 1    
   237  120  121 1    
   238  120  124 1    
   239  120  241 1    
   240  121  122 am   BACKBONE|DICT|INTERRES
   241  121  123 2    
   242  122  242 1    
   243  122  243 1    
   244  124  125 1    
   245  124  244 1    
   246  124  245 1    
   247  125  126 1    
   248  126  246 1    
   249  126  247 1    
@<TRIPOS>SUBSTRUCTURE
     1 UNK         1 GROUP             0       ****    0 ROOT    
