@<TRIPOS>MOLECULE
3R540
247   249    1
SMALL
USER_CHARGES


@<TRIPOS>ATOM
      1 CA         -2.1832  -10.9182  -51.9815 C.3       0 UNK        -0.1800 
      2 C          -0.9424  -11.7631  -52.2666 C.2       0 UNK         0.5000 
      3 O          -0.2140  -11.4412  -53.2039 O.2       0 UNK        -0.5000 
      4 N          -0.6441  -12.8435  -51.5286 N.am      1 UNK        -0.5000 
      5 CA         -1.3160  -13.4133  -50.3486 C.3       1 UNK         0.1400 
      6 C6         -2.8106  -13.7920  -50.5632 C.3       23 UNK        -0.0398 
      7 S7         -3.0474  -14.9475  -51.9560 S.3       23 UNK        -0.2404 
      8 C8         -3.2199  -16.5359  -51.0846 C.3       23 UNK        -0.0205 
      9 C9         -1.9347  -16.9472  -50.3824 C.ar      23 UNK        -0.0193 
     10 C10        -0.8760  -17.4779  -51.1206 C.ar      23 UNK        -0.1150 
     11 C11         0.3004  -17.8809  -50.4860 C.ar      23 UNK        -0.0193 
     12 C12         0.4199  -17.7329  -49.1019 C.ar      23 UNK        -0.1150 
     13 C13        -0.6250  -17.1927  -48.3451 C.ar      23 UNK        -0.0193 
     14 C14        -1.8041  -16.8041  -48.9979 C.ar      23 UNK        -0.1150 
     15 C15        -0.4152  -17.0428  -46.8371 C.3       23 UNK        -0.0205 
     16 S16        -1.8832  -16.5903  -45.8431 S.3       23 UNK        -0.2404 
     17 C17        -3.0684  -17.9927  -45.8773 C.3       23 UNK        -0.0398 
     18 CA         -2.6415  -19.3351  -46.5248 C.3       11 UNK         0.1400 
     19 N          -1.4729  -19.9298  -45.8689 N.am      11 UNK        -0.5000 
     20 C          -0.7642  -20.9572  -46.3586 C.2       10 UNK         0.5000 
     21 O          -1.0111  -21.5126  -47.4266 O.2       10 UNK        -0.5000 
     22 CA          0.3833  -21.4907  -45.4847 C.3       10 UNK         0.1400 
     23 CB          1.7051  -20.8413  -45.9056 C.3       10 UNK        -0.1800 
     24 N           0.1703  -21.2986  -44.0458 N.am      10 UNK        -0.5000 
     25 C          -0.8331  -21.8584  -43.3502 C.2       9 UNK         0.5000 
     26 O          -1.7181  -22.5331  -43.8807 O.2       9 UNK        -0.5000 
     27 CA         -0.8902  -21.5912  -41.8325 C.3       9 UNK         0.1400 
     28 CB         -1.5887  -22.7263  -41.0555 C.3       9 UNK        -0.1800 
     29 N           0.4098  -21.2629  -41.2401 N.am      9 UNK        -0.5000 
     30 C           1.4944  -22.0486  -41.1356 C.2       8 UNK         0.5000 
     31 O           1.5291  -23.2183  -41.5187 O.2       8 UNK        -0.5000 
     32 CA          2.7618  -21.4220  -40.5141 C.3       8 UNK         0.1400 
     33 CB          3.9860  -21.6306  -41.4229 C.3       8 UNK        -0.1800 
     34 N           2.5992  -19.9867  -40.2762 N.am      8 UNK        -0.5000 
     35 C           2.2528  -19.4229  -39.1109 C.2       7 UNK         0.5000 
     36 O           2.1161  -20.0520  -38.0615 O.2       7 UNK        -0.5000 
     37 CA          1.9836  -17.9028  -39.1225 C.3       7 UNK         0.1400 
     38 CB          3.2149  -17.1369  -38.6165 C.3       7 UNK        -0.1800 
     39 N           1.6068  -17.3874  -40.4427 N.am      7 UNK        -0.5000 
     40 C           0.4650  -17.6872  -41.0829 C.2       6 UNK         0.5000 
     41 O          -0.4156  -18.3980  -40.5998 O.2       6 UNK        -0.5000 
     42 CA          0.3042  -17.1702  -42.5275 C.3       6 UNK         0.1400 
     43 CB         -0.4125  -15.8123  -42.5135 C.3       6 UNK        -0.1800 
     44 N           1.5768  -17.0438  -43.2444 N.am      6 UNK        -0.5000 
     45 C           2.4609  -18.0374  -43.4314 C.2       5 UNK         0.5000 
     46 O           2.2136  -19.2099  -43.1461 O.2       5 UNK        -0.5000 
     47 CA          3.8682  -17.6740  -43.9589 C.3       5 UNK         0.1400 
     48 CB          4.0551  -18.1544  -45.4048 C.3       5 UNK        -0.1800 
     49 N           4.1834  -16.2460  -43.9030 N.am      5 UNK        -0.5000 
     50 C           4.2354  -15.4824  -42.8019 C.2       4 UNK         0.5000 
     51 O           4.1056  -15.9230  -41.6594 O.2       4 UNK        -0.5000 
     52 CA          4.3791  -13.9609  -43.0256 C.3       4 UNK         0.1400 
     53 CB          5.8381  -13.5255  -42.8243 C.3       4 UNK        -0.1800 
     54 N           3.9162  -13.4966  -44.3431 N.am      4 UNK        -0.5000 
     55 C           2.6816  -13.6725  -44.8367 C.2       3 UNK         0.5000 
     56 O           1.7879  -14.2637  -44.2272 O.2       3 UNK        -0.5000 
     57 CA          2.4407  -13.1804  -46.2767 C.3       3 UNK         0.1400 
     58 CB          3.1646  -14.0930  -47.2817 C.3       3 UNK        -0.1800 
     59 N           1.0203  -13.1690  -46.6201 N.am      3 UNK        -0.5000 
     60 C           0.1073  -12.3173  -46.1360 C.2       2 UNK         0.5000 
     61 O           0.3809  -11.3715  -45.3939 O.2       2 UNK        -0.5000 
     62 CA         -1.3541  -12.5809  -46.5639 C.3       2 UNK         0.1400 
     63 CB         -2.2647  -11.3451  -46.4042 C.3       2 UNK        -0.1800 
     64 N          -1.4739  -13.1501  -47.9152 N.am      2 UNK        -0.5000 
     65 C          -1.0930  -12.5759  -49.0681 C.2       1 UNK         0.5000 
     66 O          -0.5691  -11.4614  -49.1335 O.2       1 UNK        -0.5000 
     67 C          -3.8441  -20.3092  -46.5597 C.2       11 UNK         0.5000 
     68 O          -4.7084  -20.1708  -47.4260 O.2       11 UNK        -0.5000 
     69 N          -3.8753  -21.2781  -45.6341 N.am      12 UNK        -0.5000 
     70 CA         -4.8340  -22.3758  -45.6250 C.3       12 UNK         0.1400 
     71 CB         -5.2156  -22.7197  -44.1757 C.3       12 UNK        -0.1800 
     72 C          -4.2439  -23.5931  -46.3522 C.2       12 UNK         0.5000 
     73 O          -4.8668  -24.0926  -47.2878 O.2       12 UNK        -0.5000 
     74 N          -3.0612  -24.0388  -45.9068 N.am      13 UNK        -0.5000 
     75 CA         -2.3905  -25.2580  -46.3520 C.3       13 UNK         0.1400 
     76 CB         -1.2990  -25.6299  -45.3308 C.3       13 UNK        -0.1800 
     77 C          -1.8459  -25.1605  -47.7897 C.2       13 UNK         0.5000 
     78 O          -2.4943  -25.6421  -48.7189 O.2       13 UNK        -0.5000 
     79 N          -0.6562  -24.5630  -47.9456 N.am      14 UNK        -0.5000 
     80 CA          0.0981  -24.4732  -49.2014 C.3       14 UNK         0.1400 
     81 CB          1.4514  -23.7993  -48.9282 C.3       14 UNK        -0.1800 
     82 C          -0.6450  -23.7350  -50.3288 C.2       14 UNK         0.5000 
     83 O          -0.5376  -24.1250  -51.4921 O.2       14 UNK        -0.5000 
     84 N          -1.4017  -22.6972  -49.9575 N.am      15 UNK        -0.5000 
     85 CA         -2.2172  -21.9020  -50.8670 C.3       15 UNK         0.1400 
     86 CB         -2.4559  -20.5256  -50.2401 C.3       15 UNK        -0.1800 
     87 C          -3.5543  -22.5667  -51.2394 C.2       15 UNK         0.5000 
     88 O          -4.2286  -22.0532  -52.1342 O.2       15 UNK        -0.5000 
     89 N          -3.9220  -23.6618  -50.5542 N.am      16 UNK        -0.5000 
     90 CA         -5.1602  -24.4355  -50.6994 C.3       16 UNK         0.1400 
     91 CB         -5.1682  -25.1921  -52.0429 C.3       16 UNK        -0.1800 
     92 C          -6.4077  -23.5534  -50.5037 C.2       16 UNK         0.5000 
     93 O          -7.2299  -23.4288  -51.4109 O.2       16 UNK        -0.5000 
     94 N          -6.4749  -22.8857  -49.3435 N.am      17 UNK        -0.5000 
     95 CA         -7.4725  -21.8727  -48.9687 C.3       17 UNK         0.1400 
     96 CB         -8.8448  -22.5329  -48.7248 C.3       17 UNK        -0.1800 
     97 C          -7.5377  -20.6948  -49.9694 C.2       17 UNK         0.5000 
     98 O          -8.6183  -20.1753  -50.2522 O.2       17 UNK        -0.5000 
     99 N          -6.3639  -20.3300  -50.5047 N.am      18 UNK        -0.5000 
    100 CA        -6.1045  -19.3276  -51.5420 C.3       18 UNK         0.1400 
    101 CB        -6.5813  -17.9284  -51.1006 C.3       18 UNK        -0.1800 
    102 C         -6.6080  -19.7052  -52.9531 C.2       18 UNK         0.5000 
    103 O         -6.5610  -18.8543  -53.8425 O.2       18 UNK        -0.5000 
    104 N         -7.0498  -20.9546  -53.1666 N.am      19 UNK        -0.5000 
    105 CA        -7.5043  -21.4404  -54.4720 C.3       19 UNK         0.1400 
    106 CB        -8.4128  -22.6654  -54.2899 C.3       19 UNK        -0.1800 
    107 C         -6.3359  -21.7740  -55.4169 C.2       19 UNK         0.5000 
    108 O         -6.4517  -21.5393  -56.6206 O.2       19 UNK        -0.5000 
    109 N         -5.2372  -22.3078  -54.8650 N.am      20 UNK        -0.5000 
    110 CA        -4.0137  -22.6200  -55.6084 C.3       20 UNK         0.1400 
    111 CB        -3.3679  -23.8889  -55.0296 C.3       20 UNK        -0.1800 
    112 C         -3.0148  -21.4524  -55.5710 C.2       20 UNK         0.5000 
    113 O         -2.2121  -21.3141  -56.4952 O.2       20 UNK        -0.5000 
    114 N         -3.0639  -20.6538  -54.4924 N.am      21 UNK        -0.5000 
    115 CA        -2.2507  -19.4581  -54.2315 C.3       21 UNK         0.1400 
    116 CB        -2.6919  -18.3004  -55.1477 C.3       21 UNK        -0.1800 
    117 C         -0.7271  -19.7176  -54.2759 C.2       21 UNK         0.5000 
    118 O          0.0435  -18.8374  -54.6604 O.2       21 UNK        -0.5000 
    119 N         -0.3370  -20.9353  -53.8792 N.am      22 UNK        -0.5000 
    120 CA         1.0322  -21.4754  -53.8621 C.3       22 UNK         0.1400 
    121 C          1.6094  -21.7961  -55.2753 C.2       22 UNK         0.5000 
    122 N          0.8129  -21.7994  -56.3394 N.am      22 UNK        -0.7600 
    123 O          2.7966  -22.0794  -55.4108 O.2       22 UNK        -0.5000 
    124 C124        2.0284  -20.6653  -52.9806 C.3       23 UNK        -0.0398 
    125 S125        1.3860  -20.2893  -51.3082 S.3       23 UNK        -0.2404 
    126 C126        1.4392  -18.4674  -51.3027 C.3       23 UNK        -0.0205 
    127 H127       -2.3974  -10.8269  -50.9188 H         1 UNK         0.0600 
    128 H128       -2.0442   -9.9081  -52.3670 H         1 UNK         0.0600 
    129 H129       -3.0517  -11.3467  -52.4814 H         1 UNK         0.0600 
    130 H130        0.1979  -13.3394  -51.7816 H         1 UNK         0.3000 
    131 H131       -0.7750  -14.3424  -50.1653 H         1 UNK         0.0600 
    132 H132       -3.4298  -12.9140  -50.7370 H         1 UNK         0.0800 
    133 H133       -3.2290  -14.2518  -49.6676 H         1 UNK         0.0800 
    134 H134       -3.4967  -17.3015  -51.8097 H         1 UNK         0.0800 
    135 H135       -4.0455  -16.4748  -50.3747 H         1 UNK         0.0800 
    136 H136       -0.9681  -17.5749  -52.1921 H         1 UNK         0.1150 
    137 H137        1.3328  -18.0431  -48.6128 H         1 UNK         0.1150 
    138 H138       -2.6302  -16.3908  -48.4398 H         1 UNK         0.1150 
    139 H139        0.3214  -16.2526  -46.6884 H         1 UNK         0.0800 
    140 H140        0.0485  -17.9386  -46.4294 H         1 UNK         0.0800 
    141 H141       -3.3794  -18.1668  -44.8457 H         1 UNK         0.0800 
    142 H142       -3.9574  -17.6144  -46.3858 H         1 UNK         0.0800 
    143 H143       -2.3761  -19.1459  -47.5646 H         1 UNK         0.0600 
    144 H144       -1.2028  -19.5377  -44.9800 H         1 UNK         0.3000 
    145 H145        0.4621  -22.5642  -45.6638 H         1 UNK         0.0600 
    146 H146        2.5367  -21.2126  -45.3064 H         1 UNK         0.0600 
    147 H147        1.9337  -21.0540  -46.9504 H         1 UNK         0.0600 
    148 H148        1.6623  -19.7582  -45.7984 H         1 UNK         0.0600 
    149 H149        0.8591  -20.7364  -43.5566 H         1 UNK         0.3000 
    150 H150       -1.5037  -20.6971  -41.7165 H         1 UNK         0.0600 
    151 H151       -2.6201  -22.8509  -41.3877 H         1 UNK         0.0600 
    152 H152       -1.6179  -22.5132  -39.9870 H         1 UNK         0.0600 
    153 H153       -1.0859  -23.6837  -41.1946 H         1 UNK         0.0600 
    154 H154        0.4818  -20.3165  -40.8873 H         1 UNK         0.3000 
    155 H155        2.9492  -21.9389  -39.5709 H         1 UNK         0.0600 
    156 H156        4.1956  -22.6919  -41.5612 H         1 UNK         0.0600 
    157 H157        4.8792  -21.1794  -40.9907 H         1 UNK         0.0600 
    158 H158        3.8359  -21.1962  -42.4117 H         1 UNK         0.0600 
    159 H159        2.6475  -19.4048  -41.1037 H         1 UNK         0.3000 
    160 H160        1.1558  -17.7100  -38.4370 H         1 UNK         0.0600 
    161 H161        4.0821  -17.3033  -39.2566 H         1 UNK         0.0600 
    162 H162        3.0260  -16.0639  -38.5801 H         1 UNK         0.0600 
    163 H163        3.4855  -17.4541  -37.6086 H         1 UNK         0.0600 
    164 H164        2.2979  -16.8139  -40.9142 H         1 UNK         0.3000 
    165 H165       -0.3145  -17.8843  -43.0742 H         1 UNK         0.0600 
    166 H166       -0.5647  -15.4309  -43.5222 H         1 UNK         0.0600 
    167 H167       -1.3941  -15.8919  -42.0450 H         1 UNK         0.0600 
    168 H168        0.1579  -15.0638  -41.9620 H         1 UNK         0.0600 
    169 H169        1.8252  -16.1029  -43.5365 H         1 UNK         0.3000 
    170 H170        4.5918  -18.1936  -43.3280 H         1 UNK         0.0600 
    171 H171        3.9972  -19.2408  -45.4623 H         1 UNK         0.0600 
    172 H172        3.2959  -17.7411  -46.0705 H         1 UNK         0.0600 
    173 H173        5.0333  -17.8710  -45.7938 H         1 UNK         0.0600 
    174 H174        4.2973  -15.7826  -44.7916 H         1 UNK         0.3000 
    175 H175        3.7657  -13.4664  -42.2698 H         1 UNK         0.0600 
    176 H176        6.4963  -13.9660  -43.5742 H         1 UNK         0.0600 
    177 H177        5.9388  -12.4416  -42.8823 H         1 UNK         0.0600 
    178 H178        6.2059  -13.8319  -41.8439 H         1 UNK         0.0600 
    179 H179        4.6008  -13.0148  -44.9082 H         1 UNK         0.3000 
    180 H180        2.8310  -12.1647  -46.3672 H         1 UNK         0.0600 
    181 H181        4.2419  -14.0962  -47.1119 H         1 UNK         0.0600 
    182 H182        2.8180  -15.1253  -47.2120 H         1 UNK         0.0600 
    183 H183        3.0039  -13.7557  -48.3060 H         1 UNK         0.0600 
    184 H184        0.6970  -13.9197  -47.2093 H         1 UNK         0.3000 
    185 H185       -1.7256  -13.3464  -45.8809 H         1 UNK         0.0600 
    186 H186       -2.2941  -11.0131  -45.3658 H         1 UNK         0.0600 
    187 H187       -1.9180  -10.5041  -47.0052 H         1 UNK         0.0600 
    188 H188       -3.2894  -11.5697  -46.7000 H         1 UNK         0.0600 
    189 H189       -1.8678  -14.0795  -47.9451 H         1 UNK         0.3000 
    190 H190       -3.1016  -21.3586  -44.9865 H         1 UNK         0.3000 
    191 H191       -5.7492  -22.0824  -46.1423 H         1 UNK         0.0600 
    192 H192       -5.9314  -23.5422  -44.1473 H         1 UNK         0.0600 
    193 H193       -5.6815  -21.8671  -43.6816 H         1 UNK         0.0600 
    194 H194       -4.3520  -23.0169  -43.5803 H         1 UNK         0.0600 
    195 H195       -2.6106  -23.5369  -45.1452 H         1 UNK         0.3000 
    196 H196       -3.1276  -26.0639  -46.3473 H         1 UNK         0.0600 
    197 H197       -0.7464  -26.5146  -45.6498 H         1 UNK         0.0600 
    198 H198       -1.7382  -25.8570  -44.3591 H         1 UNK         0.0600 
    199 H199       -0.5799  -24.8241  -45.1823 H         1 UNK         0.0600 
    200 H200       -0.2142  -24.1642  -47.1328 H         1 UNK         0.3000 
    201 H201        0.2855  -25.4925  -49.5447 H         1 UNK         0.0600 
    202 H202        1.3238  -22.7754  -48.5754 H         1 UNK         0.0600 
    203 H203        2.0561  -23.7572  -49.8351 H         1 UNK         0.0600 
    204 H204        2.0250  -24.3462  -48.1798 H         1 UNK         0.0600 
    205 H205       -1.3726  -22.3958  -48.9846 H         1 UNK         0.3000 
    206 H206       -1.6571  -21.7580  -51.7878 H         1 UNK         0.0600 
    207 H207       -3.1320  -20.5932  -49.3921 H         1 UNK         0.0600 
    208 H208       -1.5236  -20.0835  -49.8895 H         1 UNK         0.0600 
    209 H209       -2.8928  -19.8340  -50.9574 H         1 UNK         0.0600 
    210 H210       -3.2862  -24.0157  -49.8484 H         1 UNK         0.3000 
    211 H211       -5.1636  -25.1762  -49.8984 H         1 UNK         0.0600 
    212 H212       -5.2410  -24.5120  -52.8906 H         1 UNK         0.0600 
    213 H213       -6.0190  -25.8718  -52.0995 H         1 UNK         0.0600 
    214 H214       -4.2643  -25.7886  -52.1662 H         1 UNK         0.0600 
    215 H215       -5.7717  -23.1024  -48.6419 H         1 UNK         0.3000 
    216 H216       -7.1397  -21.4449  -48.0228 H         1 UNK         0.0600 
    217 H217       -9.2678  -22.9385  -49.6444 H         1 UNK         0.0600 
    218 H218       -9.5601  -21.8135  -48.3247 H         1 UNK         0.0600 
    219 H219       -8.7671  -23.3466  -48.0037 H         1 UNK         0.0600 
    220 H220       -5.5533  -20.8523  -50.2057 H         1 UNK         0.3000 
    221 H221       -5.0204  -19.2809  -51.6324 H         1 UNK         0.0600 
    222 H222       -7.6688  -17.8548  -51.0889 H         1 UNK         0.0600 
    223 H223       -6.2179  -17.6840  -50.1025 H         1 UNK         0.0600 
    224 H224       -6.2139  -17.1570  -51.7783 H         1 UNK         0.0600 
    225 H225       -7.0494  -21.6257  -52.4054 H         1 UNK         0.3000 
    226 H226       -8.1018  -20.6562  -54.9421 H         1 UNK         0.0600 
    227 H227       -9.2157  -22.4632  -53.5806 H         1 UNK         0.0600 
    228 H228       -8.8758  -22.9471  -55.2363 H         1 UNK         0.0600 
    229 H229       -7.8568  -23.5323  -53.9320 H         1 UNK         0.0600 
    230 H230       -5.2006  -22.4239  -53.8575 H         1 UNK         0.3000 
    231 H231       -4.2542  -22.8176  -56.6552 H         1 UNK         0.0600 
    232 H232       -3.0737  -23.7603  -53.9880 H         1 UNK         0.0600 
    233 H233       -4.0501  -24.7372  -55.0845 H         1 UNK         0.0600 
    234 H234       -2.4715  -24.1589  -55.5894 H         1 UNK         0.0600 
    235 H235       -3.7230  -20.9070  -53.7653 H         1 UNK         0.3000 
    236 H236       -2.4737  -19.1634  -53.2067 H         1 UNK         0.0600 
    237 H237       -3.7653  -18.1254  -55.0697 H         1 UNK         0.0600 
    238 H238       -2.1931  -17.3701  -54.8731 H         1 UNK         0.0600 
    239 H239       -2.4594  -18.5036  -56.1935 H         1 UNK         0.0600 
    240 H240       -1.0553  -21.5947  -53.6244 H         1 UNK         0.3000 
    241 H241        0.9303  -22.4529  -53.3894 H         1 UNK         0.0600 
    242 H242        1.2010  -22.0194  -57.2429 H         1 UNK         0.3800 
    243 H243       -0.1713  -21.5685  -56.2635 H         1 UNK         0.3800 
    244 H244        2.3203  -19.7467  -53.4900 H         1 UNK         0.0800 
    245 H245        2.9515  -21.2318  -52.8496 H         1 UNK         0.0800 
    246 H246        2.3990  -18.1373  -50.9031 H         1 UNK         0.0800 
    247 H247        1.3833  -18.0795  -52.3205 H         1 UNK         0.0800 
@<TRIPOS>BOND
     1    1    2 1    
     2    1  127 1    
     3    1  128 1    
     4    1  129 1    
     5    2    3 2    
     6    2    4 am   BACKBONE|DICT|INTERRES
     7    4    5 1    
     8    4  130 1    
     9    5    6 1    
    10    5   65 1    
    11    5  131 1    
    12    6    7 1    
    13    6  132 1    
    14    6  133 1    
    15    7    8 1    
    16    8    9 1    
    17    8  134 1    
    18    8  135 1    
    19    9   10 ar   
    20    9   14 ar   
    21   10   11 ar   
    22   10  136 1    
    23   11   12 ar   
    24   11  126 1    
    25   12   13 ar   
    26   12  137 1    
    27   13   14 ar   
    28   13   15 1    
    29   14  138 1    
    30   15   16 1    
    31   15  139 1    
    32   15  140 1    
    33   16   17 1    
    34   17   18 1    
    35   17  141 1    
    36   17  142 1    
    37   18   19 1    
    38   18   67 1    
    39   18  143 1    
    40   19   20 am   BACKBONE|DICT|INTERRES
    41   19  144 1    
    42   20   21 2    
    43   20   22 1    
    44   22   23 1    
    45   22   24 1    
    46   22  145 1    
    47   23  146 1    
    48   23  147 1    
    49   23  148 1    
    50   24   25 am   BACKBONE|DICT|INTERRES
    51   24  149 1    
    52   25   26 2    
    53   25   27 1    
    54   27   28 1    
    55   27   29 1    
    56   27  150 1    
    57   28  151 1    
    58   28  152 1    
    59   28  153 1    
    60   29   30 am   BACKBONE|DICT|INTERRES
    61   29  154 1    
    62   30   31 2    
    63   30   32 1    
    64   32   33 1    
    65   32   34 1    
    66   32  155 1    
    67   33  156 1    
    68   33  157 1    
    69   33  158 1    
    70   34   35 am   BACKBONE|DICT|INTERRES
    71   34  159 1    
    72   35   36 2    
    73   35   37 1    
    74   37   38 1    
    75   37   39 1    
    76   37  160 1    
    77   38  161 1    
    78   38  162 1    
    79   38  163 1    
    80   39   40 am   BACKBONE|DICT|INTERRES
    81   39  164 1    
    82   40   41 2    
    83   40   42 1    
    84   42   43 1    
    85   42   44 1    
    86   42  165 1    
    87   43  166 1    
    88   43  167 1    
    89   43  168 1    
    90   44   45 am   BACKBONE|DICT|INTERRES
    91   44  169 1    
    92   45   46 2    
    93   45   47 1    
    94   47   48 1    
    95   47   49 1    
    96   47  170 1    
    97   48  171 1    
    98   48  172 1    
    99   48  173 1    
   100   49   50 am   BACKBONE|DICT|INTERRES
   101   49  174 1    
   102   50   51 2    
   103   50   52 1    
   104   52   53 1    
   105   52   54 1    
   106   52  175 1    
   107   53  176 1    
   108   53  177 1    
   109   53  178 1    
   110   54   55 am   BACKBONE|DICT|INTERRES
   111   54  179 1    
   112   55   56 2    
   113   55   57 1    
   114   57   58 1    
   115   57   59 1    
   116   57  180 1    
   117   58  181 1    
   118   58  182 1    
   119   58  183 1    
   120   59   60 am   BACKBONE|DICT|INTERRES
   121   59  184 1    
   122   60   61 2    
   123   60   62 1    
   124   62   63 1    
   125   62   64 1    
   126   62  185 1    
   127   63  186 1    
   128   63  187 1    
   129   63  188 1    
   130   64   65 am   BACKBONE|DICT|INTERRES
   131   64  189 1    
   132   65   66 2    
   133   67   68 2    
   134   67   69 am   BACKBONE|DICT|INTERRES
   135   69   70 1    
   136   69  190 1    
   137   70   71 1    
   138   70   72 1    
   139   70  191 1    
   140   71  192 1    
   141   71  193 1    
   142   71  194 1    
   143   72   73 2    
   144   72   74 am   BACKBONE|DICT|INTERRES
   145   74   75 1    
   146   74  195 1    
   147   75   76 1    
   148   75   77 1    
   149   75  196 1    
   150   76  197 1    
   151   76  198 1    
   152   76  199 1    
   153   77   78 2    
   154   77   79 am   BACKBONE|DICT|INTERRES
   155   79   80 1    
   156   79  200 1    
   157   80   81 1    
   158   80   82 1    
   159   80  201 1    
   160   81  202 1    
   161   81  203 1    
   162   81  204 1    
   163   82   83 2    
   164   82   84 am   BACKBONE|DICT|INTERRES
   165   84   85 1    
   166   84  205 1    
   167   85   86 1    
   168   85   87 1    
   169   85  206 1    
   170   86  207 1    
   171   86  208 1    
   172   86  209 1    
   173   87   88 2    
   174   87   89 am   BACKBONE|DICT|INTERRES
   175   89   90 1    
   176   89  210 1    
   177   90   91 1    
   178   90   92 1    
   179   90  211 1    
   180   91  212 1    
   181   91  213 1    
   182   91  214 1    
   183   92   93 2    
   184   92   94 am   BACKBONE|DICT|INTERRES
   185   94   95 1    
   186   94  215 1    
   187   95   96 1    
   188   95   97 1    
   189   95  216 1    
   190   96  217 1    
   191   96  218 1    
   192   96  219 1    
   193   97   98 2    
   194   97   99 am   BACKBONE|DICT|INTERRES
   195   99  100 1    
   196   99  220 1    
   197  100  101 1    
   198  100  102 1    
   199  100  221 1    
   200  101  222 1    
   201  101  223 1    
   202  101  224 1    
   203  102  103 2    
   204  102  104 am   BACKBONE|DICT|INTERRES
   205  104  105 1    
   206  104  225 1    
   207  105  106 1    
   208  105  107 1    
   209  105  226 1    
   210  106  227 1    
   211  106  228 1    
   212  106  229 1    
   213  107  108 2    
   214  107  109 am   BACKBONE|DICT|INTERRES
   215  109  110 1    
   216  109  230 1    
   217  110  111 1    
   218  110  112 1    
   219  110  231 1    
   220  111  232 1    
   221  111  233 1    
   222  111  234 1    
   223  112  113 2    
   224  112  114 am   BACKBONE|DICT|INTERRES
   225  114  115 1    
   226  114  235 1    
   227  115  116 1    
   228  115  117 1    
   229  115  236 1    
   230  116  237 1    
   231  116  238 1    
   232  116  239 1    
   233  117  118 2    
   234  117  119 am   BACKBONE|DICT|INTERRES
   235  119  120 1    
   236  119  240 1    
   237  120  121 1    
   238  120  124 1    
   239  120  241 1    
   240  121  122 am   BACKBONE|DICT|INTERRES
   241  121  123 2    
   242  122  242 1    
   243  122  243 1    
   244  124  125 1    
   245  124  244 1    
   246  124  245 1    
   247  125  126 1    
   248  126  246 1    
   249  126  247 1    
@<TRIPOS>SUBSTRUCTURE
     1 UNK         1 GROUP             0       ****    0 ROOT    
