@<TRIPOS>MOLECULE
3R540
247   249    1
SMALL
USER_CHARGES


@<TRIPOS>ATOM
      1 CA         -1.1456  -15.6648  -53.4430 C.3       0 UNK        -0.1800 
      2 C          -0.4812  -15.8800  -52.0904 C.2       0 UNK         0.5000 
      3 O           0.6926  -16.2448  -52.0358 O.2       0 UNK        -0.5000 
      4 N          -1.2325  -15.6683  -51.0030 N.am      1 UNK        -0.5000 
      5 CA         -0.7675  -15.7902  -49.6179 C.3       1 UNK         0.1400 
      6 C6         -1.9592  -15.9358  -48.6361 C.3       23 UNK        -0.0398 
      7 S7         -3.0508  -14.4683  -48.5393 S.3       23 UNK        -0.2404 
      8 C8         -4.6805  -15.1482  -49.0041 C.3       23 UNK        -0.0205 
      9 C9         -5.1356  -16.3122  -48.1282 C.ar      23 UNK        -0.0193 
     10 C10        -5.7212  -17.4319  -48.7229 C.ar      23 UNK        -0.1150 
     11 C11        -6.1142  -18.5296  -47.9529 C.ar      23 UNK        -0.0193 
     12 C12        -5.9089  -18.5033  -46.5674 C.ar      23 UNK        -0.1150 
     13 C13        -5.3210  -17.3909  -45.9576 C.ar      23 UNK        -0.0193 
     14 C14        -4.9620  -16.2901  -46.7405 C.ar      23 UNK        -0.1150 
     15 C15        -5.0376  -17.3774  -44.4597 C.3       23 UNK        -0.0205 
     16 S16        -3.7569  -18.5761  -43.9413 S.3       23 UNK        -0.2404 
     17 C17        -2.3884  -18.2997  -45.1296 C.3       23 UNK        -0.0398 
     18 CA         -1.8209  -19.6043  -45.7393 C.3       11 UNK         0.1400 
     19 N          -1.1867  -20.4604  -44.7281 N.am      11 UNK        -0.5000 
     20 C          -0.4955  -21.5885  -44.9583 C.2       10 UNK         0.5000 
     21 O          -0.3748  -22.0922  -46.0764 O.2       10 UNK        -0.5000 
     22 CA          0.1703  -22.2707  -43.7472 C.3       10 UNK         0.1400 
     23 CB          1.6938  -22.3383  -43.9434 C.3       10 UNK        -0.1800 
     24 N          -0.0928  -21.5512  -42.5019 N.am      10 UNK        -0.5000 
     25 C          -0.9224  -21.9246  -41.5211 C.2       9 UNK         0.5000 
     26 O          -1.6036  -22.9505  -41.5559 O.2       9 UNK        -0.5000 
     27 CA         -0.9973  -20.9718  -40.3054 C.3       9 UNK         0.1400 
     28 CB         -1.5488  -21.6483  -39.0334 C.3       9 UNK        -0.1800 
     29 N           0.2777  -20.2928  -40.0385 N.am      9 UNK        -0.5000 
     30 C           1.4480  -20.8534  -39.6938 C.2       8 UNK         0.5000 
     31 O           1.5852  -22.0498  -39.4357 O.2       8 UNK        -0.5000 
     32 CA          2.6916  -19.9394  -39.6658 C.3       8 UNK         0.1400 
     33 CB          3.6356  -20.2968  -40.8254 C.3       8 UNK        -0.1800 
     34 N           2.3774  -18.5109  -39.7444 N.am      8 UNK        -0.5000 
     35 C           1.9222  -17.7683  -38.7263 C.2       7 UNK         0.5000 
     36 O           1.7594  -18.2001  -37.5847 O.2       7 UNK        -0.5000 
     37 CA          1.5573  -16.3049  -39.0459 C.3       7 UNK         0.1400 
     38 CB          2.7951  -15.4015  -38.9401 C.3       7 UNK        -0.1800 
     39 N           0.9476  -16.1409  -40.3681 N.am      7 UNK        -0.5000 
     40 C          -0.2295  -16.6661  -40.7363 C.2       6 UNK         0.5000 
     41 O          -0.9527  -17.3187  -39.9839 O.2       6 UNK        -0.5000 
     42 CA         -0.6368  -16.4970  -42.2105 C.3       6 UNK         0.1400 
     43 CB         -1.2552  -15.1167  -42.4729 C.3       6 UNK        -0.1800 
     44 N           0.4791  -16.7254  -43.1316 N.am      6 UNK        -0.5000 
     45 C           1.1069  -17.9007  -43.2770 C.2       5 UNK         0.5000 
     46 O           0.7698  -18.9277  -42.6924 O.2       5 UNK        -0.5000 
     47 CA          2.3355  -17.9327  -44.1983 C.3       5 UNK         0.1400 
     48 CB          1.9188  -18.1323  -45.6635 C.3       5 UNK        -0.1800 
     49 N           3.1430  -16.7218  -44.0597 N.am      5 UNK        -0.5000 
     50 C           3.8724  -16.4302  -42.9722 C.2       4 UNK         0.5000 
     51 O           3.9729  -17.1751  -41.9976 O.2       4 UNK        -0.5000 
     52 CA          4.5646  -15.0551  -42.9521 C.3       4 UNK         0.1400 
     53 CB          5.9026  -15.1105  -43.7040 C.3       4 UNK        -0.1800 
     54 N           3.7281  -14.0000  -43.5260 N.am      4 UNK        -0.5000 
     55 C           2.5725  -13.5760  -42.9948 C.2       3 UNK         0.5000 
     56 O           2.1154  -13.9959  -41.9324 O.2       3 UNK        -0.5000 
     57 CA          1.7673  -12.5508  -43.8153 C.3       3 UNK         0.1400 
     58 CB          2.1876  -11.1196  -43.4504 C.3       3 UNK        -0.1800 
     59 N           1.8893  -12.7397  -45.2645 N.am      3 UNK        -0.5000 
     60 C           1.4927  -13.8341  -45.9267 C.2       2 UNK         0.5000 
     61 O           0.9955  -14.8240  -45.3812 O.2       2 UNK        -0.5000 
     62 CA          1.7426  -13.8420  -47.4404 C.3       2 UNK         0.1400 
     63 CB          3.2013  -14.2212  -47.7462 C.3       2 UNK        -0.1800 
     64 N           0.8554  -14.8200  -48.0608 N.am      2 UNK        -0.5000 
     65 C           0.1950  -14.6473  -49.2108 C.2       1 UNK         0.5000 
     66 O           0.3049  -13.6381  -49.9134 O.2       1 UNK        -0.5000 
     67 C          -2.8674  -20.3192  -46.6189 C.2       11 UNK         0.5000 
     68 O          -3.1138  -19.8597  -47.7313 O.2       11 UNK        -0.5000 
     69 N          -3.4199  -21.4439  -46.1378 N.am      12 UNK        -0.5000 
     70 CA         -4.3546  -22.3168  -46.8506 C.3       12 UNK         0.1400 
     71 CB         -4.7067  -23.5138  -45.9563 C.3       12 UNK        -0.1800 
     72 C          -3.8351  -22.8028  -48.2204 C.2       12 UNK         0.5000 
     73 O          -4.6220  -22.9206  -49.1613 O.2       12 UNK        -0.5000 
     74 N          -2.5172  -23.0352  -48.3078 N.am      13 UNK        -0.5000 
     75 CA         -1.8088  -23.4126  -49.5323 C.3       13 UNK         0.1400 
     76 CB         -0.5551  -24.2116  -49.1422 C.3       13 UNK        -0.1800 
     77 C          -1.4227  -22.2038  -50.4098 C.2       13 UNK         0.5000 
     78 O          -0.9359  -22.4100  -51.5215 O.2       13 UNK        -0.5000 
     79 N          -1.6227  -20.9806  -49.8958 N.am      14 UNK        -0.5000 
     80 CA         -1.3777  -19.6759  -50.5107 C.3       14 UNK         0.1400 
     81 CB         -2.5246  -19.3384  -51.4781 C.3       14 UNK        -0.1800 
     82 C           0.0268  -19.5517  -51.1292 C.2       14 UNK         0.5000 
     83 O           1.0002  -19.4188  -50.3870 O.2       14 UNK        -0.5000 
     84 N           0.1058  -19.6174  -52.4635 N.am      15 UNK        -0.5000 
     85 CA          1.3370  -19.5318  -53.2486 C.3       15 UNK         0.1400 
     86 CB          0.9464  -19.1893  -54.6960 C.3       15 UNK        -0.1800 
     87 C           2.2027  -20.8114  -53.2148 C.2       15 UNK         0.5000 
     88 O           3.2509  -20.8307  -53.8613 O.2       15 UNK        -0.5000 
     89 N           1.7409  -21.8596  -52.5135 N.am      16 UNK        -0.5000 
     90 CA          2.2264  -23.2453  -52.5521 C.3       16 UNK         0.1400 
     91 CB          3.7024  -23.3637  -52.1175 C.3       16 UNK        -0.1800 
     92 C           1.9217  -23.8850  -53.9220 C.2       16 UNK         0.5000 
     93 O           2.7485  -24.5984  -54.4929 O.2       16 UNK        -0.5000 
     94 N           0.7211  -23.5808  -54.4203 N.am      17 UNK        -0.5000 
     95 CA          0.1509  -23.9401  -55.7095 C.3       17 UNK         0.1400 
     96 CB          0.8301  -23.1280  -56.8305 C.3       17 UNK        -0.1800 
     97 C          -1.3529  -23.6318  -55.6253 C.2       17 UNK         0.5000 
     98 O          -1.8105  -23.1091  -54.6069 O.2       17 UNK        -0.5000 
     99 N          -2.1018  -23.9333  -56.6932 N.am      18 UNK        -0.5000 
    100 CA        -3.5480  -23.6933  -56.7796 C.3       18 UNK         0.1400 
    101 CB        -4.0885  -24.3603  -58.0538 C.3       18 UNK        -0.1800 
    102 C         -3.9506  -22.2026  -56.7409 C.2       18 UNK         0.5000 
    103 O         -5.0889  -21.8960  -56.3828 O.2       18 UNK        -0.5000 
    104 N         -3.0191  -21.3110  -57.1099 N.am      19 UNK        -0.5000 
    105 CA        -3.1698  -19.8565  -57.1203 C.3       19 UNK         0.1400 
    106 CB        -1.8792  -19.2233  -57.6654 C.3       19 UNK        -0.1800 
    107 C         -3.5279  -19.2923  -55.7311 C.2       19 UNK         0.5000 
    108 O         -2.6719  -19.2552  -54.8453 O.2       19 UNK        -0.5000 
    109 N         -4.7972  -18.8849  -55.5864 N.am      20 UNK        -0.5000 
    110 CA        -5.4363  -18.3169  -54.3933 C.3       20 UNK         0.1400 
    111 CB        -4.7575  -16.9925  -53.9826 C.3       20 UNK        -0.1800 
    112 C         -5.5750  -19.2949  -53.2058 C.2       20 UNK         0.5000 
    113 O         -5.8364  -18.8432  -52.0902 O.2       20 UNK        -0.5000 
    114 N         -5.4141  -20.6046  -53.4467 N.am      21 UNK        -0.5000 
    115 CA        -5.5198  -21.6502  -52.4269 C.3       21 UNK         0.1400 
    116 CB        -5.0253  -22.9805  -53.0092 C.3       21 UNK        -0.1800 
    117 C         -6.9518  -21.8015  -51.8822 C.2       21 UNK         0.5000 
    118 O         -7.9216  -21.5982  -52.6177 O.2       21 UNK        -0.5000 
    119 N         -7.0480  -22.1728  -50.6037 N.am      22 UNK        -0.5000 
    120 CA        -8.3088  -22.4171  -49.8936 C.3       22 UNK         0.1400 
    121 C         -8.8542  -23.8389  -50.2011 C.2       22 UNK         0.5000 
    122 N        -10.1678  -23.9989  -50.2861 N.am      22 UNK        -0.7600 
    123 O         -8.1050  -24.8058  -50.3225 O.2       22 UNK        -0.5000 
    124 C124       -8.1373  -22.2086  -48.3656 C.3       23 UNK        -0.0398 
    125 S125       -8.1497  -20.4573  -47.8367 S.3       23 UNK        -0.2404 
    126 C126       -6.6718  -19.7645  -48.6487 C.3       23 UNK        -0.0205 
    127 H127       -2.1172  -15.1803  -53.3440 H         1 UNK         0.0600 
    128 H128       -1.2910  -16.6214  -53.9451 H         1 UNK         0.0600 
    129 H129       -0.5179  -15.0376  -54.0759 H         1 UNK         0.0600 
    130 H130       -2.1717  -15.3146  -51.1107 H         1 UNK         0.3000 
    131 H131       -0.1865  -16.7130  -49.5572 H         1 UNK         0.0600 
    132 H132       -1.5988  -16.1484  -47.6288 H         1 UNK         0.0800 
    133 H133       -2.5474  -16.8105  -48.9172 H         1 UNK         0.0800 
    134 H134       -4.6406  -15.4507  -50.0518 H         1 UNK         0.0800 
    135 H135       -5.4240  -14.3530  -48.9399 H         1 UNK         0.0800 
    136 H136       -5.8494  -17.4605  -49.7961 H         1 UNK         0.1150 
    137 H137       -6.1729  -19.3621  -45.9668 H         1 UNK         0.1150 
    138 H138       -4.5089  -15.4276  -46.2728 H         1 UNK         0.1150 
    139 H139       -5.9608  -17.5954  -43.9214 H         1 UNK         0.0800 
    140 H140       -4.7279  -16.3819  -44.1378 H         1 UNK         0.0800 
    141 H141       -1.5923  -17.7604  -44.6233 H         1 UNK         0.0800 
    142 H142       -2.7030  -17.6306  -45.9287 H         1 UNK         0.0800 
    143 H143       -1.0206  -19.3112  -46.4220 H         1 UNK         0.0600 
    144 H144       -1.2400  -20.1312  -43.7751 H         1 UNK         0.3000 
    145 H145       -0.2186  -23.2890  -43.6881 H         1 UNK         0.0600 
    146 H146        2.1772  -22.8306  -43.0992 H         1 UNK         0.0600 
    147 H147        1.9512  -22.9039  -44.8398 H         1 UNK         0.0600 
    148 H148        2.1305  -21.3438  -44.0442 H         1 UNK         0.0600 
    149 H149        0.3811  -20.6540  -42.4057 H         1 UNK         0.3000 
    150 H150       -1.6990  -20.1849  -40.5862 H         1 UNK         0.0600 
    151 H151       -2.5645  -22.0111  -39.1942 H         1 UNK         0.0600 
    152 H152       -1.5838  -20.9477  -38.1991 H         1 UNK         0.0600 
    153 H153       -0.9428  -22.5023  -38.7304 H         1 UNK         0.0600 
    154 H154        0.2839  -19.3012  -40.2397 H         1 UNK         0.3000 
    155 H155        3.2170  -20.1304  -38.7279 H         1 UNK         0.0600 
    156 H156        3.1624  -20.1309  -41.7934 H         1 UNK         0.0600 
    157 H157        3.9337  -21.3450  -40.7820 H         1 UNK         0.0600 
    158 H158        4.5469  -19.6993  -40.7912 H         1 UNK         0.0600 
    159 H159        2.5422  -18.0613  -40.6376 H         1 UNK         0.3000 
    160 H160        0.8307  -15.9749  -38.3007 H         1 UNK         0.0600 
    161 H161        3.5494  -15.6636  -39.6826 H         1 UNK         0.0600 
    162 H162        3.2582  -15.4856  -37.9562 H         1 UNK         0.0600 
    163 H163        2.5318  -14.3539  -39.0875 H         1 UNK         0.0600 
    164 H164        1.4556  -15.5656  -41.0346 H         1 UNK         0.3000 
    165 H165       -1.4010  -17.2486  -42.4129 H         1 UNK         0.0600 
    166 H166       -1.5696  -15.0168  -43.5121 H         1 UNK         0.0600 
    167 H167       -2.1362  -14.9617  -41.8492 H         1 UNK         0.0600 
    168 H168       -0.5545  -14.3116  -42.2548 H         1 UNK         0.0600 
    169 H169        0.7871  -15.9368  -43.6905 H         1 UNK         0.3000 
    170 H170        2.9512  -18.7859  -43.9062 H         1 UNK         0.0600 
    171 H171        1.4189  -19.0927  -45.7937 H         1 UNK         0.0600 
    172 H172        1.2317  -17.3587  -46.0042 H         1 UNK         0.0600 
    173 H173        2.7852  -18.1281  -46.3251 H         1 UNK         0.0600 
    174 H174        3.0610  -16.0323  -44.7917 H         1 UNK         0.3000 
    175 H175        4.7670  -14.7993  -41.9098 H         1 UNK         0.0600 
    176 H176        5.7632  -15.3366  -44.7619 H         1 UNK         0.0600 
    177 H177        6.5528  -15.8804  -43.2862 H         1 UNK         0.0600 
    178 H178        6.4354  -14.1622  -43.6304 H         1 UNK         0.0600 
    179 H179        4.0333  -13.5968  -44.3991 H         1 UNK         0.3000 
    180 H180        0.7148  -12.6733  -43.5527 H         1 UNK         0.0600 
    181 H181        3.2266  -10.9233  -43.7184 H         1 UNK         0.0600 
    182 H182        2.0862  -10.9444  -42.3784 H         1 UNK         0.0600 
    183 H183        1.5642  -10.3835  -43.9584 H         1 UNK         0.0600 
    184 H184        2.2971  -11.9744  -45.7825 H         1 UNK         0.3000 
    185 H185        1.5357  -12.8404  -47.8234 H         1 UNK         0.0600 
    186 H186        3.4501  -15.2107  -47.3602 H         1 UNK         0.0600 
    187 H187        3.3872  -14.2269  -48.8205 H         1 UNK         0.0600 
    188 H188        3.8970  -13.5085  -47.3019 H         1 UNK         0.0600 
    189 H189        0.6660  -15.6259  -47.4810 H         1 UNK         0.3000 
    190 H190       -3.1524  -21.7352  -45.2095 H         1 UNK         0.3000 
    191 H191       -5.2665  -21.7447  -47.0101 H         1 UNK         0.0600 
    192 H192       -5.4212  -24.1737  -46.4505 H         1 UNK         0.0600 
    193 H193       -5.1620  -23.1873  -45.0210 H         1 UNK         0.0600 
    194 H194       -3.8248  -24.1075  -45.7122 H         1 UNK         0.0600 
    195 H195       -1.9406  -22.8750  -47.4898 H         1 UNK         0.3000 
    196 H196       -2.4524  -24.0582  -50.1336 H         1 UNK         0.0600 
    197 H197       -0.0210  -24.5616  -50.0262 H         1 UNK         0.0600 
    198 H198       -0.8157  -25.0913  -48.5534 H         1 UNK         0.0600 
    199 H199        0.1386  -23.6083  -48.5549 H         1 UNK         0.0600 
    200 H200       -2.0603  -20.9222  -48.9831 H         1 UNK         0.3000 
    201 H201       -1.4126  -18.9457  -49.7018 H         1 UNK         0.0600 
    202 H202       -3.4654  -19.2645  -50.9329 H         1 UNK         0.0600 
    203 H203       -2.6473  -20.0992  -52.2497 H         1 UNK         0.0600 
    204 H204       -2.3645  -18.3799  -51.9717 H         1 UNK         0.0600 
    205 H205       -0.7477  -19.7571  -52.9887 H         1 UNK         0.3000 
    206 H206        1.9444  -18.7156  -52.8524 H         1 UNK         0.0600 
    207 H207        0.3726  -18.2639  -54.7435 H         1 UNK         0.0600 
    208 H208        1.8275  -19.0546  -55.3245 H         1 UNK         0.0600 
    209 H209        0.3422  -19.9814  -55.1398 H         1 UNK         0.0600 
    210 H210        0.8419  -21.7462  -52.0543 H         1 UNK         0.3000 
    211 H211        1.6294  -23.7929  -51.8218 H         1 UNK         0.0600 
    212 H212        4.3841  -22.9359  -52.8526 H         1 UNK         0.0600 
    213 H213        3.9831  -24.4095  -51.9891 H         1 UNK         0.0600 
    214 H214        3.8744  -22.8617  -51.1655 H         1 UNK         0.0600 
    215 H215        0.0723  -23.0493  -53.8471 H         1 UNK         0.3000 
    216 H216        0.2838  -25.0100  -55.8799 H         1 UNK         0.0600 
    217 H217        0.4275  -23.3875  -57.8099 H         1 UNK         0.0600 
    218 H218        1.9025  -23.3200  -56.8671 H         1 UNK         0.0600 
    219 H219        0.6903  -22.0554  -56.6890 H         1 UNK         0.0600 
    220 H220       -1.6662  -24.3609  -57.4978 H         1 UNK         0.3000 
    221 H221       -4.0177  -24.1747  -55.9191 H         1 UNK         0.0600 
    222 H222       -3.6363  -23.9375  -58.9518 H         1 UNK         0.0600 
    223 H223       -3.8940  -25.4330  -58.0514 H         1 UNK         0.0600 
    224 H224       -5.1682  -24.2283  -58.1366 H         1 UNK         0.0600 
    225 H225       -2.1101  -21.6656  -57.3637 H         1 UNK         0.3000 
    226 H226       -3.9764  -19.6140  -57.8151 H         1 UNK         0.0600 
    227 H227       -1.0114  -19.4925  -57.0634 H         1 UNK         0.0600 
    228 H228       -1.6863  -19.5404  -58.6904 H         1 UNK         0.0600 
    229 H229       -1.9500  -18.1348  -57.6700 H         1 UNK         0.0600 
    230 H230       -5.4181  -19.0154  -56.3733 H         1 UNK         0.3000 
    231 H231       -6.4573  -18.0769  -54.6930 H         1 UNK         0.0600 
    232 H232       -3.7595  -17.1608  -53.5799 H         1 UNK         0.0600 
    233 H233       -5.3339  -16.4772  -53.2135 H         1 UNK         0.0600 
    234 H234       -4.6686  -16.3124  -54.8296 H         1 UNK         0.0600 
    235 H235       -5.2454  -20.9083  -54.3977 H         1 UNK         0.3000 
    236 H236       -4.8630  -21.3755  -51.5983 H         1 UNK         0.0600 
    237 H237       -3.9831  -22.9049  -53.3121 H         1 UNK         0.0600 
    238 H238       -5.0884  -23.7798  -52.2696 H         1 UNK         0.0600 
    239 H239       -5.6114  -23.2843  -53.8773 H         1 UNK         0.0600 
    240 H240       -6.1993  -22.4112  -50.0966 H         1 UNK         0.3000 
    241 H241       -9.0489  -21.6978  -50.2509 H         1 UNK         0.0600 
    242 H242      -10.5379  -24.9188  -50.4706 H         1 UNK         0.3800 
    243 H243      -10.8045  -23.2236  -50.1816 H         1 UNK         0.3800 
    244 H244       -8.9574  -22.6833  -47.8235 H         1 UNK         0.0800 
    245 H245       -7.2314  -22.6965  -48.0051 H         1 UNK         0.0800 
    246 H246       -5.8772  -20.5037  -48.7123 H         1 UNK         0.0800 
    247 H247       -6.9418  -19.5240  -49.6777 H         1 UNK         0.0800 
@<TRIPOS>BOND
     1    1    2 1    
     2    1  127 1    
     3    1  128 1    
     4    1  129 1    
     5    2    3 2    
     6    2    4 am   BACKBONE|DICT|INTERRES
     7    4    5 1    
     8    4  130 1    
     9    5    6 1    
    10    5   65 1    
    11    5  131 1    
    12    6    7 1    
    13    6  132 1    
    14    6  133 1    
    15    7    8 1    
    16    8    9 1    
    17    8  134 1    
    18    8  135 1    
    19    9   10 ar   
    20    9   14 ar   
    21   10   11 ar   
    22   10  136 1    
    23   11   12 ar   
    24   11  126 1    
    25   12   13 ar   
    26   12  137 1    
    27   13   14 ar   
    28   13   15 1    
    29   14  138 1    
    30   15   16 1    
    31   15  139 1    
    32   15  140 1    
    33   16   17 1    
    34   17   18 1    
    35   17  141 1    
    36   17  142 1    
    37   18   19 1    
    38   18   67 1    
    39   18  143 1    
    40   19   20 am   BACKBONE|DICT|INTERRES
    41   19  144 1    
    42   20   21 2    
    43   20   22 1    
    44   22   23 1    
    45   22   24 1    
    46   22  145 1    
    47   23  146 1    
    48   23  147 1    
    49   23  148 1    
    50   24   25 am   BACKBONE|DICT|INTERRES
    51   24  149 1    
    52   25   26 2    
    53   25   27 1    
    54   27   28 1    
    55   27   29 1    
    56   27  150 1    
    57   28  151 1    
    58   28  152 1    
    59   28  153 1    
    60   29   30 am   BACKBONE|DICT|INTERRES
    61   29  154 1    
    62   30   31 2    
    63   30   32 1    
    64   32   33 1    
    65   32   34 1    
    66   32  155 1    
    67   33  156 1    
    68   33  157 1    
    69   33  158 1    
    70   34   35 am   BACKBONE|DICT|INTERRES
    71   34  159 1    
    72   35   36 2    
    73   35   37 1    
    74   37   38 1    
    75   37   39 1    
    76   37  160 1    
    77   38  161 1    
    78   38  162 1    
    79   38  163 1    
    80   39   40 am   BACKBONE|DICT|INTERRES
    81   39  164 1    
    82   40   41 2    
    83   40   42 1    
    84   42   43 1    
    85   42   44 1    
    86   42  165 1    
    87   43  166 1    
    88   43  167 1    
    89   43  168 1    
    90   44   45 am   BACKBONE|DICT|INTERRES
    91   44  169 1    
    92   45   46 2    
    93   45   47 1    
    94   47   48 1    
    95   47   49 1    
    96   47  170 1    
    97   48  171 1    
    98   48  172 1    
    99   48  173 1    
   100   49   50 am   BACKBONE|DICT|INTERRES
   101   49  174 1    
   102   50   51 2    
   103   50   52 1    
   104   52   53 1    
   105   52   54 1    
   106   52  175 1    
   107   53  176 1    
   108   53  177 1    
   109   53  178 1    
   110   54   55 am   BACKBONE|DICT|INTERRES
   111   54  179 1    
   112   55   56 2    
   113   55   57 1    
   114   57   58 1    
   115   57   59 1    
   116   57  180 1    
   117   58  181 1    
   118   58  182 1    
   119   58  183 1    
   120   59   60 am   BACKBONE|DICT|INTERRES
   121   59  184 1    
   122   60   61 2    
   123   60   62 1    
   124   62   63 1    
   125   62   64 1    
   126   62  185 1    
   127   63  186 1    
   128   63  187 1    
   129   63  188 1    
   130   64   65 am   BACKBONE|DICT|INTERRES
   131   64  189 1    
   132   65   66 2    
   133   67   68 2    
   134   67   69 am   BACKBONE|DICT|INTERRES
   135   69   70 1    
   136   69  190 1    
   137   70   71 1    
   138   70   72 1    
   139   70  191 1    
   140   71  192 1    
   141   71  193 1    
   142   71  194 1    
   143   72   73 2    
   144   72   74 am   BACKBONE|DICT|INTERRES
   145   74   75 1    
   146   74  195 1    
   147   75   76 1    
   148   75   77 1    
   149   75  196 1    
   150   76  197 1    
   151   76  198 1    
   152   76  199 1    
   153   77   78 2    
   154   77   79 am   BACKBONE|DICT|INTERRES
   155   79   80 1    
   156   79  200 1    
   157   80   81 1    
   158   80   82 1    
   159   80  201 1    
   160   81  202 1    
   161   81  203 1    
   162   81  204 1    
   163   82   83 2    
   164   82   84 am   BACKBONE|DICT|INTERRES
   165   84   85 1    
   166   84  205 1    
   167   85   86 1    
   168   85   87 1    
   169   85  206 1    
   170   86  207 1    
   171   86  208 1    
   172   86  209 1    
   173   87   88 2    
   174   87   89 am   BACKBONE|DICT|INTERRES
   175   89   90 1    
   176   89  210 1    
   177   90   91 1    
   178   90   92 1    
   179   90  211 1    
   180   91  212 1    
   181   91  213 1    
   182   91  214 1    
   183   92   93 2    
   184   92   94 am   BACKBONE|DICT|INTERRES
   185   94   95 1    
   186   94  215 1    
   187   95   96 1    
   188   95   97 1    
   189   95  216 1    
   190   96  217 1    
   191   96  218 1    
   192   96  219 1    
   193   97   98 2    
   194   97   99 am   BACKBONE|DICT|INTERRES
   195   99  100 1    
   196   99  220 1    
   197  100  101 1    
   198  100  102 1    
   199  100  221 1    
   200  101  222 1    
   201  101  223 1    
   202  101  224 1    
   203  102  103 2    
   204  102  104 am   BACKBONE|DICT|INTERRES
   205  104  105 1    
   206  104  225 1    
   207  105  106 1    
   208  105  107 1    
   209  105  226 1    
   210  106  227 1    
   211  106  228 1    
   212  106  229 1    
   213  107  108 2    
   214  107  109 am   BACKBONE|DICT|INTERRES
   215  109  110 1    
   216  109  230 1    
   217  110  111 1    
   218  110  112 1    
   219  110  231 1    
   220  111  232 1    
   221  111  233 1    
   222  111  234 1    
   223  112  113 2    
   224  112  114 am   BACKBONE|DICT|INTERRES
   225  114  115 1    
   226  114  235 1    
   227  115  116 1    
   228  115  117 1    
   229  115  236 1    
   230  116  237 1    
   231  116  238 1    
   232  116  239 1    
   233  117  118 2    
   234  117  119 am   BACKBONE|DICT|INTERRES
   235  119  120 1    
   236  119  240 1    
   237  120  121 1    
   238  120  124 1    
   239  120  241 1    
   240  121  122 am   BACKBONE|DICT|INTERRES
   241  121  123 2    
   242  122  242 1    
   243  122  243 1    
   244  124  125 1    
   245  124  244 1    
   246  124  245 1    
   247  125  126 1    
   248  126  246 1    
   249  126  247 1    
@<TRIPOS>SUBSTRUCTURE
     1 UNK         1 GROUP             0       ****    0 ROOT    
