@<TRIPOS>MOLECULE
3R540
247   249    1
SMALL
USER_CHARGES


@<TRIPOS>ATOM
      1 CA         -2.8760  -19.6463  -48.1049 C.3       0 UNK        -0.1800 
      2 C          -3.4867  -18.2720  -47.8944 C.2       0 UNK         0.5000 
      3 O          -4.5126  -18.1665  -47.2225 O.2       0 UNK        -0.5000 
      4 N          -2.8928  -17.2293  -48.4901 N.am      1 UNK        -0.5000 
      5 CA         -3.3888  -15.8522  -48.4131 C.3       1 UNK         0.1400 
      6 C6         -2.8335  -14.9606  -49.5579 C.3       23 UNK        -0.0398 
      7 S7         -1.0857  -14.4499  -49.3897 S.3       23 UNK        -0.2404 
      8 C8         -0.3196  -15.1454  -50.8864 C.3       23 UNK        -0.0205 
      9 C9         -0.2449  -16.6625  -50.8385 C.ar      23 UNK        -0.0193 
     10 C10        -0.9633  -17.4384  -51.7503 C.ar      23 UNK        -0.1150 
     11 C11        -0.8829  -18.8325  -51.7159 C.ar      23 UNK        -0.0193 
     12 C12        -0.0966  -19.4527  -50.7397 C.ar      23 UNK        -0.1150 
     13 C13         0.6108  -18.6856  -49.8088 C.ar      23 UNK        -0.0193 
     14 C14         0.5508  -17.2926  -49.8802 C.ar      23 UNK        -0.1150 
     15 C15         1.4094  -19.3496  -48.7002 C.3       23 UNK        -0.0205 
     16 S16         0.4995  -19.2468  -47.1305 S.3       23 UNK        -0.2404 
     17 C17         1.5731  -20.2064  -46.0162 C.3       23 UNK        -0.0398 
     18 CA          1.2262  -21.7139  -45.9170 C.3       11 UNK         0.1400 
     19 N           2.1355  -22.4069  -45.0024 N.am      11 UNK        -0.5000 
     20 C           2.3165  -23.7352  -44.9722 C.2       10 UNK         0.5000 
     21 O           1.7645  -24.5146  -45.7468 O.2       10 UNK        -0.5000 
     22 CA          3.2351  -24.2916  -43.8672 C.3       10 UNK         0.1400 
     23 CB          4.6946  -24.3162  -44.3443 C.3       10 UNK        -0.1800 
     24 N           3.1494  -23.5327  -42.6188 N.am      10 UNK        -0.5000 
     25 C           2.0499  -23.4337  -41.8573 C.2       9 UNK         0.5000 
     26 O           1.0043  -24.0362  -42.0939 O.2       9 UNK        -0.5000 
     27 CA          2.1112  -22.4549  -40.6676 C.3       9 UNK         0.1400 
     28 CB          2.5086  -23.1939  -39.3817 C.3       9 UNK        -0.1800 
     29 N           3.0324  -21.3351  -40.8890 N.am      9 UNK        -0.5000 
     30 C           2.8881  -20.4162  -41.8528 C.2       8 UNK         0.5000 
     31 O           1.9428  -20.4017  -42.6435 O.2       8 UNK        -0.5000 
     32 CA          4.0220  -19.3956  -41.9986 C.3       8 UNK         0.1400 
     33 CB          4.5835  -19.4031  -43.4306 C.3       8 UNK        -0.1800 
     34 N           3.5224  -18.0616  -41.6897 N.am      8 UNK        -0.5000 
     35 C           3.9814  -17.2844  -40.7013 C.2       7 UNK         0.5000 
     36 O           4.8624  -17.6268  -39.9109 O.2       7 UNK        -0.5000 
     37 CA          3.3637  -15.8813  -40.5727 C.3       7 UNK         0.1400 
     38 CB          3.9675  -14.9274  -41.6154 C.3       7 UNK        -0.1800 
     39 N           1.9087  -15.8802  -40.7036 N.am      7 UNK        -0.5000 
     40 C           1.0558  -16.3751  -39.7962 C.2       6 UNK         0.5000 
     41 O           1.4058  -16.8912  -38.7343 O.2       6 UNK        -0.5000 
     42 CA         -0.4426  -16.2775  -40.1359 C.3       6 UNK         0.1400 
     43 CB         -0.9932  -14.8780  -39.8195 C.3       6 UNK        -0.1800 
     44 N          -0.6959  -16.6039  -41.5392 N.am      6 UNK        -0.5000 
     45 C          -0.7175  -17.8561  -42.0164 C.2       5 UNK         0.5000 
     46 O          -0.6274  -18.8506  -41.2984 O.2       5 UNK        -0.5000 
     47 CA         -0.8557  -18.0307  -43.5427 C.3       5 UNK         0.1400 
     48 CB         -2.3147  -18.3050  -43.9344 C.3       5 UNK        -0.1800 
     49 N          -0.3641  -16.8825  -44.3082 N.am      5 UNK        -0.5000 
     50 C           0.9245  -16.5198  -44.3785 C.2       4 UNK         0.5000 
     51 O           1.8383  -17.1234  -43.8177 O.2       4 UNK        -0.5000 
     52 CA          1.2357  -15.2246  -45.1469 C.3       4 UNK         0.1400 
     53 CB          1.1880  -15.4652  -46.6605 C.3       4 UNK        -0.1800 
     54 N           0.3335  -14.1287  -44.7861 N.am      4 UNK        -0.5000 
     55 C           0.2506  -13.5790  -43.5673 C.2       3 UNK         0.5000 
     56 O           0.9411  -13.9459  -42.6181 O.2       3 UNK        -0.5000 
     57 CA         -0.8044  -12.4795  -43.3340 C.3       3 UNK         0.1400 
     58 CB         -0.2757  -11.0914  -43.7430 C.3       3 UNK        -0.1800 
     59 N          -2.1129  -12.7792  -43.9304 N.am      3 UNK        -0.5000 
     60 C          -2.4475  -12.8192  -45.2258 C.2       2 UNK         0.5000 
     61 O          -1.6904  -12.5046  -46.1468 O.2       2 UNK        -0.5000 
     62 CA         -3.8673  -13.3295  -45.5368 C.3       2 UNK         0.1400 
     63 CB         -4.8471  -12.1528  -45.6592 C.3       2 UNK        -0.1800 
     64 N          -3.9222  -14.1254  -46.7641 N.am      2 UNK        -0.5000 
     65 C          -3.2045  -15.2324  -47.0060 C.2       1 UNK         0.5000 
     66 O          -2.4329  -15.7416  -46.1846 O.2       1 UNK        -0.5000 
     67 C          -0.2439  -22.0005  -45.5365 C.2       11 UNK         0.5000 
     68 O          -1.0486  -22.3014  -46.4188 O.2       11 UNK        -0.5000 
     69 N          -0.5545  -21.9832  -44.2307 N.am      12 UNK        -0.5000 
     70 CA         -1.8661  -22.3685  -43.7008 C.3       12 UNK         0.1400 
     71 CB         -1.9420  -22.0511  -42.2010 C.3       12 UNK        -0.1800 
     72 C          -2.2075  -23.8493  -43.9549 C.2       12 UNK         0.5000 
     73 O          -3.3525  -24.1561  -44.2867 O.2       12 UNK        -0.5000 
     74 N          -1.2084  -24.7320  -43.8132 N.am      13 UNK        -0.5000 
     75 CA         -1.3161  -26.1643  -44.0916 C.3       13 UNK         0.1400 
     76 CB         -0.0696  -26.8876  -43.5598 C.3       13 UNK        -0.1800 
     77 C          -1.5280  -26.4687  -45.5863 C.2       13 UNK         0.5000 
     78 O          -2.3231  -27.3507  -45.9138 O.2       13 UNK        -0.5000 
     79 N          -0.8284  -25.7322  -46.4623 N.am      14 UNK        -0.5000 
     80 CA         -0.9826  -25.8060  -47.9162 C.3       14 UNK         0.1400 
     81 CB          0.1557  -25.0306  -48.5982 C.3       14 UNK        -0.1800 
     82 C          -2.3542  -25.2887  -48.3867 C.2       14 UNK         0.5000 
     83 O          -2.9866  -25.9323  -49.2259 O.2       14 UNK        -0.5000 
     84 N          -2.7885  -24.1573  -47.8116 N.am      15 UNK        -0.5000 
     85 CA         -4.0480  -23.4578  -48.0717 C.3       15 UNK         0.1400 
     86 CB         -5.2443  -24.2910  -47.5584 C.3       15 UNK        -0.1800 
     87 C          -4.1738  -23.0059  -49.5451 C.2       15 UNK         0.5000 
     88 O          -3.1654  -22.6224  -50.1419 O.2       15 UNK        -0.5000 
     89 N          -5.4026  -23.0333  -50.0877 N.am      16 UNK        -0.5000 
     90 CA         -5.7841  -22.6379  -51.4493 C.3       16 UNK         0.1400 
     91 CB         -5.1956  -23.6170  -52.4857 C.3       16 UNK        -0.1800 
     92 C          -5.4246  -21.1678  -51.7399 C.2       16 UNK         0.5000 
     93 O          -4.5831  -20.8896  -52.5904 O.2       16 UNK        -0.5000 
     94 N          -6.0677  -20.2540  -51.0008 N.am      17 UNK        -0.5000 
     95 CA         -5.7944  -18.8112  -50.9340 C.3       17 UNK         0.1400 
     96 CB         -6.6986  -18.2089  -49.8461 C.3       17 UNK        -0.1800 
     97 C          -5.9292  -18.0013  -52.2448 C.2       17 UNK         0.5000 
     98 O          -5.6647  -16.7975  -52.2284 O.2       17 UNK        -0.5000 
     99 N          -6.3365  -18.6424  -53.3477 N.am      18 UNK        -0.5000 
    100 CA        -6.4198  -18.0819  -54.6962 C.3       18 UNK         0.1400 
    101 CB        -7.2512  -19.0362  -55.5716 C.3       18 UNK        -0.1800 
    102 C         -5.0164  -17.8276  -55.2852 C.2       18 UNK         0.5000 
    103 O         -4.5526  -18.5871  -56.1377 O.2       18 UNK        -0.5000 
    104 N         -4.3627  -16.7637  -54.8018 N.am      19 UNK        -0.5000 
    105 CA        -2.9676  -16.3747  -55.0439 C.3       19 UNK         0.1400 
    106 CB        -2.6929  -15.0733  -54.2730 C.3       19 UNK        -0.1800 
    107 C         -2.5369  -16.2199  -56.5167 C.2       19 UNK         0.5000 
    108 O         -1.3371  -16.2044  -56.7933 O.2       19 UNK        -0.5000 
    109 N         -3.5062  -16.1234  -57.4348 N.am      20 UNK        -0.5000 
    110 CA        -3.2988  -16.1280  -58.8819 C.3       20 UNK         0.1400 
    111 CB        -4.6257  -15.7727  -59.5706 C.3       20 UNK        -0.1800 
    112 C         -2.7513  -17.4645  -59.4281 C.2       20 UNK         0.5000 
    113 O         -2.1488  -17.4605  -60.5030 O.2       20 UNK        -0.5000 
    114 N         -2.9650  -18.5730  -58.7028 N.am      21 UNK        -0.5000 
    115 CA        -2.5132  -19.9090  -59.1007 C.3       21 UNK         0.1400 
    116 CB        -3.5781  -20.5651  -59.9979 C.3       21 UNK        -0.1800 
    117 C         -2.1662  -20.8269  -57.9153 C.2       21 UNK         0.5000 
    118 O         -1.3478  -21.7307  -58.0903 O.2       21 UNK        -0.5000 
    119 N         -2.7926  -20.6109  -56.7504 N.am      22 UNK        -0.5000 
    120 CA        -2.7109  -21.4620  -55.5489 C.3       22 UNK         0.1400 
    121 C         -3.2848  -22.8995  -55.7532 C.2       22 UNK         0.5000 
    122 N         -4.2579  -23.0902  -56.6369 N.am      22 UNK        -0.7600 
    123 O         -2.8608  -23.8542  -55.1077 O.2       22 UNK        -0.5000 
    124 C124       -1.3139  -21.4544  -54.8656 C.3       23 UNK        -0.0398 
    125 S125       -0.7830  -19.7985  -54.3101 S.3       23 UNK        -0.2404 
    126 C126       -1.6612  -19.6667  -52.7191 C.3       23 UNK        -0.0205 
    127 H127       -2.5668  -20.0749  -47.1518 H         1 UNK         0.0600 
    128 H128       -2.0105  -19.6112  -48.7629 H         1 UNK         0.0600 
    129 H129       -3.6134  -20.3064  -48.5576 H         1 UNK         0.0600 
    130 H130       -2.0188  -17.3572  -48.9817 H         1 UNK         0.3000 
    131 H131       -4.4676  -15.9106  -48.5747 H         1 UNK         0.0600 
    132 H132       -3.4261  -14.0475  -49.6292 H         1 UNK         0.0800 
    133 H133       -2.9788  -15.4642  -50.5147 H         1 UNK         0.0800 
    134 H134        0.6915  -14.7466  -50.9793 H         1 UNK         0.0800 
    135 H135       -0.8648  -14.8023  -51.7664 H         1 UNK         0.0800 
    136 H136       -1.5799  -16.9592  -52.4929 H         1 UNK         0.1150 
    137 H137       -0.0527  -20.5319  -50.6922 H         1 UNK         0.1150 
    138 H138        1.1025  -16.6955  -49.1695 H         1 UNK         0.1150 
    139 H139        1.6056  -20.3953  -48.9419 H         1 UNK         0.0800 
    140 H140        2.3789  -18.8602  -48.5969 H         1 UNK         0.0800 
    141 H141        1.5157  -19.7360  -45.0367 H         1 UNK         0.0800 
    142 H142        2.6084  -20.0853  -46.3373 H         1 UNK         0.0800 
    143 H143        1.3798  -22.1396  -46.9112 H         1 UNK         0.0600 
    144 H144        2.5642  -21.8400  -44.2839 H         1 UNK         0.3000 
    145 H145        2.9250  -25.3177  -43.6602 H         1 UNK         0.0600 
    146 H146        5.3448  -24.7781  -43.6012 H         1 UNK         0.0600 
    147 H147        4.7941  -24.8933  -45.2647 H         1 UNK         0.0600 
    148 H148        5.0713  -23.3122  -44.5438 H         1 UNK         0.0600 
    149 H149        3.9703  -23.0147  -42.3434 H         1 UNK         0.3000 
    150 H150        1.1096  -22.0414  -40.5311 H         1 UNK         0.0600 
    151 H151        1.8247  -24.0194  -39.1792 H         1 UNK         0.0600 
    152 H152        2.4769  -22.5288  -38.5185 H         1 UNK         0.0600 
    153 H153        3.5145  -23.6101  -39.4499 H         1 UNK         0.0600 
    154 H154        3.8322  -21.2820  -40.2744 H         1 UNK         0.3000 
    155 H155        4.8330  -19.6774  -41.3240 H         1 UNK         0.0600 
    156 H156        3.8357  -19.0916  -44.1607 H         1 UNK         0.0600 
    157 H157        4.9280  -20.3985  -43.7137 H         1 UNK         0.0600 
    158 H158        5.4335  -18.7266  -43.5200 H         1 UNK         0.0600 
    159 H159        2.7902  -17.7133  -42.3062 H         1 UNK         0.3000 
    160 H160        3.6135  -15.4973  -39.5814 H         1 UNK         0.0600 
    161 H161        3.7180  -15.2330  -42.6323 H         1 UNK         0.0600 
    162 H162        5.0550  -14.8984  -41.5370 H         1 UNK         0.0600 
    163 H163        3.6036  -13.9095  -41.4748 H         1 UNK         0.0600 
    164 H164        1.5339  -15.4149  -41.5248 H         1 UNK         0.3000 
    165 H165       -0.9768  -16.9926  -39.5064 H         1 UNK         0.0600 
    166 H166       -2.0571  -14.8112  -40.0473 H         1 UNK         0.0600 
    167 H167       -0.8728  -14.6465  -38.7605 H         1 UNK         0.0600 
    168 H168       -0.4789  -14.0991  -40.3815 H         1 UNK         0.0600 
    169 H169       -0.7430  -15.8372  -42.1927 H         1 UNK         0.3000 
    170 H170       -0.2642  -18.9044  -43.8194 H         1 UNK         0.0600 
    171 H171       -2.7192  -19.1547  -43.3840 H         1 UNK         0.0600 
    172 H172       -2.9540  -17.4448  -43.7319 H         1 UNK         0.0600 
    173 H173       -2.3956  -18.5385  -44.9960 H         1 UNK         0.0600 
    174 H174       -1.0520  -16.3605  -44.8443 H         1 UNK         0.3000 
    175 H175        2.2505  -14.9178  -44.8853 H         1 UNK         0.0600 
    176 H176        0.2008  -15.7974  -46.9832 H         1 UNK         0.0600 
    177 H177        1.4370  -14.5612  -47.2163 H         1 UNK         0.0600 
    178 H178        1.9031  -16.2360  -46.9500 H         1 UNK         0.0600 
    179 H179       -0.2823  -13.7734  -45.5107 H         1 UNK         0.3000 
    180 H180       -0.9816  -12.4463  -42.2579 H         1 UNK         0.0600 
    181 H181       -1.0167  -10.3150  -43.5530 H         1 UNK         0.0600 
    182 H182       -0.0042  -11.0472  -44.7977 H         1 UNK         0.0600 
    183 H183        0.6170  -10.8361  -43.1708 H         1 UNK         0.0600 
    184 H184       -2.8167  -13.0627  -43.2627 H         1 UNK         0.3000 
    185 H185       -4.1948  -13.9730  -44.7178 H         1 UNK         0.0600 
    186 H186       -5.8669  -12.5019  -45.8224 H         1 UNK         0.0600 
    187 H187       -4.8529  -11.5517  -44.7490 H         1 UNK         0.0600 
    188 H188       -4.5804  -11.4929  -46.4858 H         1 UNK         0.0600 
    189 H189       -4.5135  -13.7597  -47.4951 H         1 UNK         0.3000 
    190 H190        0.1602  -21.7346  -43.5592 H         1 UNK         0.3000 
    191 H191       -2.6196  -21.7650  -44.2117 H         1 UNK         0.0600 
    192 H192       -2.9139  -22.3299  -41.7920 H         1 UNK         0.0600 
    193 H193       -1.8114  -20.9874  -42.0183 H         1 UNK         0.0600 
    194 H194       -1.1823  -22.5854  -41.6314 H         1 UNK         0.0600 
    195 H195       -0.3199  -24.4050  -43.4450 H         1 UNK         0.3000 
    196 H196       -2.1839  -26.5447  -43.5488 H         1 UNK         0.0600 
    197 H197        0.8367  -26.5492  -44.0616 H         1 UNK         0.0600 
    198 H198        0.0573  -26.7212  -42.4899 H         1 UNK         0.0600 
    199 H199       -0.1478  -27.9643  -43.7151 H         1 UNK         0.0600 
    200 H200       -0.1400  -25.0746  -46.1118 H         1 UNK         0.3000 
    201 H201       -0.9011  -26.8542  -48.2113 H         1 UNK         0.0600 
    202 H202        0.1547  -23.9781  -48.3131 H         1 UNK         0.0600 
    203 H203        0.0632  -25.0764  -49.6839 H         1 UNK         0.0600 
    204 H204        1.1284  -25.4472  -48.3362 H         1 UNK         0.0600 
    205 H205       -2.1490  -23.6652  -47.1929 H         1 UNK         0.3000 
    206 H206       -4.0046  -22.5451  -47.4763 H         1 UNK         0.0600 
    207 H207       -5.0763  -24.6200  -46.5325 H         1 UNK         0.0600 
    208 H208       -6.1652  -23.7074  -47.5551 H         1 UNK         0.0600 
    209 H209       -5.4123  -25.1812  -48.1657 H         1 UNK         0.0600 
    210 H210       -6.1601  -23.3602  -49.5048 H         1 UNK         0.3000 
    211 H211       -6.8708  -22.7149  -51.5085 H         1 UNK         0.0600 
    212 H212       -5.5382  -23.3718  -53.4916 H         1 UNK         0.0600 
    213 H213       -5.5019  -24.6421  -52.2783 H         1 UNK         0.0600 
    214 H214       -4.1054  -23.5912  -52.4989 H         1 UNK         0.0600 
    215 H215       -6.7570  -20.5897  -50.3440 H         1 UNK         0.3000 
    216 H216       -4.7564  -18.7008  -50.6155 H         1 UNK         0.0600 
    217 H217       -7.7513  -18.2631  -50.1260 H         1 UNK         0.0600 
    218 H218       -6.4591  -17.1597  -49.6685 H         1 UNK         0.0600 
    219 H219       -6.5788  -18.7291  -48.8958 H         1 UNK         0.0600 
    220 H220       -6.4608  -19.6414  -53.2755 H         1 UNK         0.3000 
    221 H221       -6.9437  -17.1251  -54.6479 H         1 UNK         0.0600 
    222 H222       -8.2626  -19.1489  -55.1806 H         1 UNK         0.0600 
    223 H223       -6.8015  -20.0286  -55.6278 H         1 UNK         0.0600 
    224 H224       -7.3379  -18.6564  -56.5904 H         1 UNK         0.0600 
    225 H225       -4.8283  -16.2599  -54.0550 H         1 UNK         0.3000 
    226 H226       -2.3456  -17.1666  -54.6260 H         1 UNK         0.0600 
    227 H227       -3.2709  -14.2415  -54.6774 H         1 UNK         0.0600 
    228 H228       -2.9489  -15.1715  -53.2180 H         1 UNK         0.0600 
    229 H229       -1.6386  -14.7988  -54.3285 H         1 UNK         0.0600 
    230 H230       -4.4626  -16.1500  -57.1141 H         1 UNK         0.3000 
    231 H231       -2.5689  -15.3518  -59.1210 H         1 UNK         0.0600 
    232 H232       -5.4014  -16.5076  -59.3512 H         1 UNK         0.0600 
    233 H233       -4.5062  -15.7352  -60.6542 H         1 UNK         0.0600 
    234 H234       -4.9875  -14.7952  -59.2512 H         1 UNK         0.0600 
    235 H235       -3.4673  -18.4921  -57.8256 H         1 UNK         0.3000 
    236 H236       -1.5917  -19.8137  -59.6794 H         1 UNK         0.0600 
    237 H237       -3.7341  -19.9908  -60.9112 H         1 UNK         0.0600 
    238 H238       -3.2768  -21.5703  -60.2957 H         1 UNK         0.0600 
    239 H239       -4.5372  -20.6461  -59.4852 H         1 UNK         0.0600 
    240 H240       -3.4612  -19.8490  -56.6667 H         1 UNK         0.3000 
    241 H241       -3.4029  -21.0053  -54.8438 H         1 UNK         0.0600 
    242 H242       -4.6290  -24.0175  -56.7709 H         1 UNK         0.3800 
    243 H243       -4.6238  -22.3208  -57.1739 H         1 UNK         0.3800 
    244 H244       -0.5570  -21.8480  -55.5445 H         1 UNK         0.0800 
    245 H245       -1.3021  -22.1173  -53.9991 H         1 UNK         0.0800 
    246 H246       -1.8553  -20.6561  -52.3014 H         1 UNK         0.0800 
    247 H247       -2.6368  -19.2119  -52.8951 H         1 UNK         0.0800 
@<TRIPOS>BOND
     1    1    2 1    
     2    1  127 1    
     3    1  128 1    
     4    1  129 1    
     5    2    3 2    
     6    2    4 am   BACKBONE|DICT|INTERRES
     7    4    5 1    
     8    4  130 1    
     9    5    6 1    
    10    5   65 1    
    11    5  131 1    
    12    6    7 1    
    13    6  132 1    
    14    6  133 1    
    15    7    8 1    
    16    8    9 1    
    17    8  134 1    
    18    8  135 1    
    19    9   10 ar   
    20    9   14 ar   
    21   10   11 ar   
    22   10  136 1    
    23   11   12 ar   
    24   11  126 1    
    25   12   13 ar   
    26   12  137 1    
    27   13   14 ar   
    28   13   15 1    
    29   14  138 1    
    30   15   16 1    
    31   15  139 1    
    32   15  140 1    
    33   16   17 1    
    34   17   18 1    
    35   17  141 1    
    36   17  142 1    
    37   18   19 1    
    38   18   67 1    
    39   18  143 1    
    40   19   20 am   BACKBONE|DICT|INTERRES
    41   19  144 1    
    42   20   21 2    
    43   20   22 1    
    44   22   23 1    
    45   22   24 1    
    46   22  145 1    
    47   23  146 1    
    48   23  147 1    
    49   23  148 1    
    50   24   25 am   BACKBONE|DICT|INTERRES
    51   24  149 1    
    52   25   26 2    
    53   25   27 1    
    54   27   28 1    
    55   27   29 1    
    56   27  150 1    
    57   28  151 1    
    58   28  152 1    
    59   28  153 1    
    60   29   30 am   BACKBONE|DICT|INTERRES
    61   29  154 1    
    62   30   31 2    
    63   30   32 1    
    64   32   33 1    
    65   32   34 1    
    66   32  155 1    
    67   33  156 1    
    68   33  157 1    
    69   33  158 1    
    70   34   35 am   BACKBONE|DICT|INTERRES
    71   34  159 1    
    72   35   36 2    
    73   35   37 1    
    74   37   38 1    
    75   37   39 1    
    76   37  160 1    
    77   38  161 1    
    78   38  162 1    
    79   38  163 1    
    80   39   40 am   BACKBONE|DICT|INTERRES
    81   39  164 1    
    82   40   41 2    
    83   40   42 1    
    84   42   43 1    
    85   42   44 1    
    86   42  165 1    
    87   43  166 1    
    88   43  167 1    
    89   43  168 1    
    90   44   45 am   BACKBONE|DICT|INTERRES
    91   44  169 1    
    92   45   46 2    
    93   45   47 1    
    94   47   48 1    
    95   47   49 1    
    96   47  170 1    
    97   48  171 1    
    98   48  172 1    
    99   48  173 1    
   100   49   50 am   BACKBONE|DICT|INTERRES
   101   49  174 1    
   102   50   51 2    
   103   50   52 1    
   104   52   53 1    
   105   52   54 1    
   106   52  175 1    
   107   53  176 1    
   108   53  177 1    
   109   53  178 1    
   110   54   55 am   BACKBONE|DICT|INTERRES
   111   54  179 1    
   112   55   56 2    
   113   55   57 1    
   114   57   58 1    
   115   57   59 1    
   116   57  180 1    
   117   58  181 1    
   118   58  182 1    
   119   58  183 1    
   120   59   60 am   BACKBONE|DICT|INTERRES
   121   59  184 1    
   122   60   61 2    
   123   60   62 1    
   124   62   63 1    
   125   62   64 1    
   126   62  185 1    
   127   63  186 1    
   128   63  187 1    
   129   63  188 1    
   130   64   65 am   BACKBONE|DICT|INTERRES
   131   64  189 1    
   132   65   66 2    
   133   67   68 2    
   134   67   69 am   BACKBONE|DICT|INTERRES
   135   69   70 1    
   136   69  190 1    
   137   70   71 1    
   138   70   72 1    
   139   70  191 1    
   140   71  192 1    
   141   71  193 1    
   142   71  194 1    
   143   72   73 2    
   144   72   74 am   BACKBONE|DICT|INTERRES
   145   74   75 1    
   146   74  195 1    
   147   75   76 1    
   148   75   77 1    
   149   75  196 1    
   150   76  197 1    
   151   76  198 1    
   152   76  199 1    
   153   77   78 2    
   154   77   79 am   BACKBONE|DICT|INTERRES
   155   79   80 1    
   156   79  200 1    
   157   80   81 1    
   158   80   82 1    
   159   80  201 1    
   160   81  202 1    
   161   81  203 1    
   162   81  204 1    
   163   82   83 2    
   164   82   84 am   BACKBONE|DICT|INTERRES
   165   84   85 1    
   166   84  205 1    
   167   85   86 1    
   168   85   87 1    
   169   85  206 1    
   170   86  207 1    
   171   86  208 1    
   172   86  209 1    
   173   87   88 2    
   174   87   89 am   BACKBONE|DICT|INTERRES
   175   89   90 1    
   176   89  210 1    
   177   90   91 1    
   178   90   92 1    
   179   90  211 1    
   180   91  212 1    
   181   91  213 1    
   182   91  214 1    
   183   92   93 2    
   184   92   94 am   BACKBONE|DICT|INTERRES
   185   94   95 1    
   186   94  215 1    
   187   95   96 1    
   188   95   97 1    
   189   95  216 1    
   190   96  217 1    
   191   96  218 1    
   192   96  219 1    
   193   97   98 2    
   194   97   99 am   BACKBONE|DICT|INTERRES
   195   99  100 1    
   196   99  220 1    
   197  100  101 1    
   198  100  102 1    
   199  100  221 1    
   200  101  222 1    
   201  101  223 1    
   202  101  224 1    
   203  102  103 2    
   204  102  104 am   BACKBONE|DICT|INTERRES
   205  104  105 1    
   206  104  225 1    
   207  105  106 1    
   208  105  107 1    
   209  105  226 1    
   210  106  227 1    
   211  106  228 1    
   212  106  229 1    
   213  107  108 2    
   214  107  109 am   BACKBONE|DICT|INTERRES
   215  109  110 1    
   216  109  230 1    
   217  110  111 1    
   218  110  112 1    
   219  110  231 1    
   220  111  232 1    
   221  111  233 1    
   222  111  234 1    
   223  112  113 2    
   224  112  114 am   BACKBONE|DICT|INTERRES
   225  114  115 1    
   226  114  235 1    
   227  115  116 1    
   228  115  117 1    
   229  115  236 1    
   230  116  237 1    
   231  116  238 1    
   232  116  239 1    
   233  117  118 2    
   234  117  119 am   BACKBONE|DICT|INTERRES
   235  119  120 1    
   236  119  240 1    
   237  120  121 1    
   238  120  124 1    
   239  120  241 1    
   240  121  122 am   BACKBONE|DICT|INTERRES
   241  121  123 2    
   242  122  242 1    
   243  122  243 1    
   244  124  125 1    
   245  124  244 1    
   246  124  245 1    
   247  125  126 1    
   248  126  246 1    
   249  126  247 1    
@<TRIPOS>SUBSTRUCTURE
     1 UNK         1 GROUP             0       ****    0 ROOT    
