@<TRIPOS>MOLECULE
3R540
247   249    1
SMALL
USER_CHARGES


@<TRIPOS>ATOM
      1 CA          4.7022  -11.9545  -50.2101 C.3       0 UNK        -0.1800 
      2 C           3.7903  -12.8868  -49.4259 C.2       0 UNK         0.5000 
      3 O           3.3436  -12.5351  -48.3337 O.2       0 UNK        -0.5000 
      4 N           3.5000  -14.0695  -49.9805 N.am      1 UNK        -0.5000 
      5 CA          2.6442  -15.1145  -49.4050 C.3       1 UNK         0.1400 
      6 C6          3.0312  -16.5291  -49.9189 C.3       23 UNK        -0.0398 
      7 S7          3.1381  -16.6711  -51.7403 S.3       23 UNK        -0.2404 
      8 C8          4.4815  -17.8841  -51.9416 C.3       23 UNK        -0.0205 
      9 C9          4.0430  -19.2931  -51.5670 C.ar      23 UNK        -0.0193 
     10 C10         3.2816  -20.0502  -52.4620 C.ar      23 UNK        -0.1150 
     11 C11         2.8840  -21.3516  -52.1381 C.ar      23 UNK        -0.0193 
     12 C12         3.2666  -21.8987  -50.9106 C.ar      23 UNK        -0.1150 
     13 C13         4.0232  -21.1502  -50.0036 C.ar      23 UNK        -0.0193 
     14 C14         4.4120  -19.8495  -50.3390 C.ar      23 UNK        -0.1150 
     15 C15         4.4204  -21.7497  -48.6619 C.3       23 UNK        -0.0205 
     16 S16         3.6060  -20.9201  -47.2595 S.3       23 UNK        -0.2404 
     17 C17         1.8442  -21.2646  -47.5819 C.3       23 UNK        -0.0398 
     18 CA          1.2963  -22.4765  -46.7948 C.3       11 UNK         0.1400 
     19 N           1.4984  -22.3546  -45.3465 N.am      11 UNK        -0.5000 
     20 C           1.2920  -23.3236  -44.4445 C.2       10 UNK         0.5000 
     21 O           1.0103  -24.4819  -44.7537 O.2       10 UNK        -0.5000 
     22 CA          1.3237  -22.9093  -42.9571 C.3       10 UNK         0.1400 
     23 CB          1.8262  -24.0348  -42.0296 C.3       10 UNK        -0.1800 
     24 N           2.0276  -21.6450  -42.7116 N.am      10 UNK        -0.5000 
     25 C           3.3403  -21.3973  -42.8298 C.2       9 UNK         0.5000 
     26 O           4.1770  -22.2519  -43.1224 O.2       9 UNK        -0.5000 
     27 CA          3.8032  -19.9427  -42.6096 C.3       9 UNK         0.1400 
     28 CB          4.2753  -19.3278  -43.9364 C.3       9 UNK        -0.1800 
     29 N           2.7716  -19.0745  -42.0363 N.am      9 UNK        -0.5000 
     30 C           2.4150  -19.0469  -40.7458 C.2       8 UNK         0.5000 
     31 O           2.9236  -19.7604  -39.8806 O.2       8 UNK        -0.5000 
     32 CA          1.2861  -18.0702  -40.3627 C.3       8 UNK         0.1400 
     33 CB          1.8301  -16.6428  -40.1976 C.3       8 UNK        -0.1800 
     34 N           0.1824  -18.0610  -41.3257 N.am      8 UNK        -0.5000 
     35 C          -0.6521  -19.0895  -41.5346 C.2       7 UNK         0.5000 
     36 O          -0.5781  -20.1640  -40.9384 O.2       7 UNK        -0.5000 
     37 CA         -1.7302  -18.8997  -42.6168 C.3       7 UNK         0.1400 
     38 CB         -2.9049  -18.0652  -42.0860 C.3       7 UNK        -0.1800 
     39 N          -1.1938  -18.2847  -43.8302 N.am      7 UNK        -0.5000 
     40 C          -0.3058  -18.8772  -44.6395 C.2       6 UNK         0.5000 
     41 O           0.0729  -20.0389  -44.4981 O.2       6 UNK        -0.5000 
     42 CA          0.2877  -18.0322  -45.7778 C.3       6 UNK         0.1400 
     43 CB         -0.6123  -18.0860  -47.0217 C.3       6 UNK        -0.1800 
     44 N           0.5122  -16.6422  -45.3933 N.am      6 UNK        -0.5000 
     45 C           1.3561  -16.2272  -44.4405 C.2       5 UNK         0.5000 
     46 O           2.0709  -16.9809  -43.7841 O.2       5 UNK        -0.5000 
     47 CA          1.3619  -14.7216  -44.1355 C.3       5 UNK         0.1400 
     48 CB          2.2242  -13.9573  -45.1522 C.3       5 UNK        -0.1800 
     49 N           0.0072  -14.1711  -44.1220 N.am      5 UNK        -0.5000 
     50 C          -0.8997  -14.4154  -43.1667 C.2       4 UNK         0.5000 
     51 O          -0.6745  -15.1066  -42.1722 O.2       4 UNK        -0.5000 
     52 CA         -2.3005  -13.8083  -43.3764 C.3       4 UNK         0.1400 
     53 CB         -2.3279  -12.3408  -42.9238 C.3       4 UNK        -0.1800 
     54 N          -2.7582  -13.8961  -44.7658 N.am      4 UNK        -0.5000 
     55 C          -3.0825  -15.0446  -45.3752 C.2       3 UNK         0.5000 
     56 O          -3.0397  -16.1434  -44.8223 O.2       3 UNK        -0.5000 
     57 CA         -3.4766  -14.9634  -46.8651 C.3       3 UNK         0.1400 
     58 CB         -4.9561  -14.5814  -47.0115 C.3       3 UNK        -0.1800 
     59 N          -2.6591  -14.0684  -47.6972 N.am      3 UNK        -0.5000 
     60 C          -1.3207  -14.0705  -47.7516 C.2       2 UNK         0.5000 
     61 O          -0.6154  -14.7160  -46.9779 O.2       2 UNK        -0.5000 
     62 CA         -0.6488  -13.1938  -48.8267 C.3       2 UNK         0.1400 
     63 CB         -0.6626  -11.7177  -48.4009 C.3       2 UNK        -0.1800 
     64 N           0.7417  -13.6004  -49.0467 N.am      2 UNK        -0.5000 
     65 C           1.1356  -14.7847  -49.5345 C.2       1 UNK         0.5000 
     66 O           0.3559  -15.5942  -50.0394 O.2       1 UNK        -0.5000 
     67 C          -0.1948  -22.6753  -47.1361 C.2       11 UNK         0.5000 
     68 O          -0.5042  -23.3243  -48.1339 O.2       11 UNK        -0.5000 
     69 N          -1.0847  -22.1619  -46.2704 N.am      12 UNK        -0.5000 
     70 CA         -2.5420  -22.3058  -46.3310 C.3       12 UNK         0.1400 
     71 CB         -3.1616  -21.5674  -45.1356 C.3       12 UNK        -0.1800 
     72 C          -3.0406  -23.7675  -46.3810 C.2       12 UNK         0.5000 
     73 O          -4.1449  -24.0141  -46.8661 O.2       12 UNK        -0.5000 
     74 N          -2.2216  -24.7091  -45.8892 N.am      13 UNK        -0.5000 
     75 CA         -2.4728  -26.1474  -45.9528 C.3       13 UNK         0.1400 
     76 CB         -1.5943  -26.8527  -44.9083 C.3       13 UNK        -0.1800 
     77 C          -2.2304  -26.7471  -47.3532 C.2       13 UNK         0.5000 
     78 O          -2.8178  -27.7847  -47.6622 O.2       13 UNK        -0.5000 
     79 N          -1.3791  -26.1093  -48.1722 N.am      14 UNK        -0.5000 
     80 CA         -1.1059  -26.5222  -49.5508 C.3       14 UNK         0.1400 
     81 CB          0.2659  -25.9915  -50.0007 C.3       14 UNK        -0.1800 
     82 C          -2.2231  -26.0446  -50.4921 C.2       14 UNK         0.5000 
     83 O          -2.7422  -26.8381  -51.2782 O.2       14 UNK        -0.5000 
     84 N          -2.6001  -24.7700  -50.3552 N.am      15 UNK        -0.5000 
     85 CA         -3.7356  -24.1331  -51.0094 C.3       15 UNK         0.1400 
     86 CB         -3.4262  -23.8389  -52.4854 C.3       15 UNK        -0.1800 
     87 C          -4.0720  -22.8634  -50.2165 C.2       15 UNK         0.5000 
     88 O          -3.1732  -22.2590  -49.6321 O.2       15 UNK        -0.5000 
     89 N          -5.3635  -22.5155  -50.1717 N.am      16 UNK        -0.5000 
     90 CA         -5.9567  -21.5806  -49.2098 C.3       16 UNK         0.1400 
     91 CB         -7.4875  -21.6377  -49.3487 C.3       16 UNK        -0.1800 
     92 C          -5.4774  -20.1158  -49.2604 C.2       16 UNK         0.5000 
     93 O          -5.7334  -19.3917  -48.2975 O.2       16 UNK        -0.5000 
     94 N          -4.8387  -19.6854  -50.3590 N.am      17 UNK        -0.5000 
     95 CA         -4.2737  -18.3519  -50.6271 C.3       17 UNK         0.1400 
     96 CB         -3.1750  -18.0051  -49.6033 C.3       17 UNK        -0.1800 
     97 C          -5.2970  -17.2021  -50.7498 C.2       17 UNK         0.5000 
     98 O          -5.1495  -16.3535  -51.6290 O.2       17 UNK        -0.5000 
     99 N          -6.3139  -17.1811  -49.8803 N.am      18 UNK        -0.5000 
    100 CA        -7.3634  -16.1619  -49.8213 C.3       18 UNK         0.1400 
    101 CB        -8.1298  -16.3161  -48.4987 C.3       18 UNK        -0.1800 
    102 C         -8.3401  -16.2130  -51.0107 C.2       18 UNK         0.5000 
    103 O         -8.8559  -15.1706  -51.4164 O.2       18 UNK        -0.5000 
    104 N         -8.5799  -17.4179  -51.5398 N.am      19 UNK        -0.5000 
    105 CA        -9.4933  -17.6871  -52.6505 C.3       19 UNK         0.1400 
    106 CB       -10.9427  -17.7748  -52.1309 C.3       19 UNK        -0.1800 
    107 C         -9.0467  -18.9494  -53.4092 C.2       19 UNK         0.5000 
    108 O         -9.8830  -19.7480  -53.8348 O.2       19 UNK        -0.5000 
    109 N         -7.7278  -19.1220  -53.5430 N.am      20 UNK        -0.5000 
    110 CA        -7.0699  -20.2561  -54.1831 C.3       20 UNK         0.1400 
    111 CB        -7.1126  -21.4842  -53.2494 C.3       20 UNK        -0.1800 
    112 C         -5.6264  -19.8541  -54.5270 C.2       20 UNK         0.5000 
    113 O         -5.2604  -18.6847  -54.3779 O.2       20 UNK        -0.5000 
    114 N         -4.8292  -20.8371  -54.9619 N.am      21 UNK        -0.5000 
    115 CA        -3.3823  -20.7268  -55.1541 C.3       21 UNK         0.1400 
    116 CB        -2.8939  -21.9928  -55.8799 C.3       21 UNK        -0.1800 
    117 C         -2.6212  -20.5244  -53.8252 C.2       21 UNK         0.5000 
    118 O         -3.2075  -20.6583  -52.7483 O.2       21 UNK        -0.5000 
    119 N         -1.3208  -20.2329  -53.9433 N.am      22 UNK        -0.5000 
    120 CA        -0.3959  -19.9002  -52.8465 C.3       22 UNK         0.1400 
    121 C         -0.6587  -18.5003  -52.2144 C.2       22 UNK         0.5000 
    122 N          0.0157  -18.1682  -51.1224 N.am      22 UNK        -0.7600 
    123 O         -1.4100  -17.6820  -52.7400 O.2       22 UNK        -0.5000 
    124 C124       -0.2293  -21.0375  -51.7911 C.3       23 UNK        -0.0398 
    125 S125        0.3955  -22.6123  -52.4746 S.3       23 UNK        -0.2404 
    126 C126        2.0467  -22.1655  -53.1180 C.3       23 UNK        -0.0205 
    127 H127        4.1857  -11.0193  -50.4263 H         1 UNK         0.0600 
    128 H128        5.0171  -12.3964  -51.1559 H         1 UNK         0.0600 
    129 H129        5.5947  -11.7258  -49.6275 H         1 UNK         0.0600 
    130 H130        3.8672  -14.2883  -50.8963 H         1 UNK         0.3000 
    131 H131        2.8320  -15.1306  -48.3290 H         1 UNK         0.0600 
    132 H132        4.0032  -16.7907  -49.4995 H         1 UNK         0.0800 
    133 H133        2.3446  -17.2878  -49.5401 H         1 UNK         0.0800 
    134 H134        5.3491  -17.5772  -51.3554 H         1 UNK         0.0800 
    135 H135        4.8050  -17.8757  -52.9835 H         1 UNK         0.0800 
    136 H136        3.0002  -19.6196  -53.4126 H         1 UNK         0.1150 
    137 H137        2.9600  -22.9045  -50.6589 H         1 UNK         0.1150 
    138 H138        4.9996  -19.2717  -49.6395 H         1 UNK         0.1150 
    139 H139        4.1905  -22.8158  -48.6270 H         1 UNK         0.0800 
    140 H140        5.5012  -21.6660  -48.5411 H         1 UNK         0.0800 
    141 H141        1.6879  -21.4085  -48.6512 H         1 UNK         0.0800 
    142 H142        1.2869  -20.3651  -47.3267 H         1 UNK         0.0800 
    143 H143        1.8288  -23.3690  -47.1301 H         1 UNK         0.0600 
    144 H144        1.6447  -21.4173  -44.9951 H         1 UNK         0.3000 
    145 H145        0.2843  -22.7136  -42.6894 H         1 UNK         0.0600 
    146 H146        1.8395  -23.7116  -40.9887 H         1 UNK         0.0600 
    147 H147        1.1752  -24.9078  -42.0886 H         1 UNK         0.0600 
    148 H148        2.8314  -24.3632  -42.2940 H         1 UNK         0.0600 
    149 H149        1.4302  -20.8594  -42.4903 H         1 UNK         0.3000 
    150 H150        4.6541  -19.9717  -41.9261 H         1 UNK         0.0600 
    151 H151        5.0637  -19.9276  -44.3929 H         1 UNK         0.0600 
    152 H152        4.6757  -18.3251  -43.7862 H         1 UNK         0.0600 
    153 H153        3.4587  -19.2563  -44.6558 H         1 UNK         0.0600 
    154 H154        2.3495  -18.3998  -42.6723 H         1 UNK         0.3000 
    155 H155        0.8852  -18.3906  -39.3988 H         1 UNK         0.0600 
    156 H156        2.6333  -16.6137  -39.4604 H         1 UNK         0.0600 
    157 H157        1.0504  -15.9611  -39.8572 H         1 UNK         0.0600 
    158 H158        2.2291  -16.2513  -41.1337 H         1 UNK         0.0600 
    159 H159        0.0428  -17.2050  -41.8490 H         1 UNK         0.3000 
    160 H160       -2.1120  -19.8884  -42.8770 H         1 UNK         0.0600 
    161 H161       -2.6022  -17.0453  -41.8479 H         1 UNK         0.0600 
    162 H162       -3.3200  -18.5064  -41.1790 H         1 UNK         0.0600 
    163 H163       -3.7101  -18.0115  -42.8190 H         1 UNK         0.0600 
    164 H164       -1.5218  -17.3522  -44.0559 H         1 UNK         0.3000 
    165 H165        1.2599  -18.4572  -46.0324 H         1 UNK         0.0600 
    166 H166       -0.1543  -17.5677  -47.8646 H         1 UNK         0.0600 
    167 H167       -0.8008  -19.1142  -47.3329 H         1 UNK         0.0600 
    168 H168       -1.5803  -17.6220  -46.8330 H         1 UNK         0.0600 
    169 H169       -0.0100  -15.9359  -45.9125 H         1 UNK         0.3000 
    170 H170        1.8007  -14.5816  -43.1453 H         1 UNK         0.0600 
    171 H171        3.2458  -14.3392  -45.1617 H         1 UNK         0.0600 
    172 H172        1.8346  -14.0451  -46.1664 H         1 UNK         0.0600 
    173 H173        2.2765  -12.8967  -44.9067 H         1 UNK         0.0600 
    174 H174       -0.2874  -13.6810  -44.9547 H         1 UNK         0.3000 
    175 H175       -2.9996  -14.3685  -42.7516 H         1 UNK         0.0600 
    176 H176       -2.0066  -12.2470  -41.8855 H         1 UNK         0.0600 
    177 H177       -1.6678  -11.7185  -43.5293 H         1 UNK         0.0600 
    178 H178       -3.3342  -11.9268  -42.9900 H         1 UNK         0.0600 
    179 H179       -2.8044  -13.0369  -45.2934 H         1 UNK         0.3000 
    180 H180       -3.3527  -15.9665  -47.2743 H         1 UNK         0.0600 
    181 H181       -5.1420  -13.5572  -46.6862 H         1 UNK         0.0600 
    182 H182       -5.5895  -15.2368  -46.4123 H         1 UNK         0.0600 
    183 H183       -5.2838  -14.6708  -48.0467 H         1 UNK         0.0600 
    184 H184       -3.1658  -13.4847  -48.3467 H         1 UNK         0.3000 
    185 H185       -1.1971  -13.3072  -49.7638 H         1 UNK         0.0600 
    186 H186       -1.6818  -11.3568  -48.2574 H         1 UNK         0.0600 
    187 H187       -0.1242  -11.5652  -47.4644 H         1 UNK         0.0600 
    188 H188       -0.2000  -11.0854  -49.1590 H         1 UNK         0.0600 
    189 H189        1.4595  -13.0113  -48.6372 H         1 UNK         0.3000 
    190 H190       -0.7218  -21.6151  -45.4967 H         1 UNK         0.3000 
    191 H191       -2.8825  -21.8034  -47.2342 H         1 UNK         0.0600 
    192 H192       -2.8016  -21.9658  -44.1864 H         1 UNK         0.0600 
    193 H193       -4.2488  -21.6562  -45.1404 H         1 UNK         0.0600 
    194 H194       -2.9278  -20.5033  -45.1685 H         1 UNK         0.0600 
    195 H195       -1.3270  -24.4258  -45.5133 H         1 UNK         0.3000 
    196 H196       -3.5181  -26.3273  -45.6925 H         1 UNK         0.0600 
    197 H197       -1.7993  -27.9237  -44.8853 H         1 UNK         0.0600 
    198 H198       -1.7805  -26.4647  -43.9067 H         1 UNK         0.0600 
    199 H199       -0.5328  -26.7274  -45.1251 H         1 UNK         0.0600 
    200 H200       -0.9849  -25.2196  -47.8853 H         1 UNK         0.3000 
    201 H201       -1.0685  -27.6130  -49.5926 H         1 UNK         0.0600 
    202 H202        1.0562  -26.3133  -49.3226 H         1 UNK         0.0600 
    203 H203        0.2897  -24.9027  -50.0511 H         1 UNK         0.0600 
    204 H204        0.5165  -26.3645  -50.9943 H         1 UNK         0.0600 
    205 H205       -2.1234  -24.1734  -49.6856 H         1 UNK         0.3000 
    206 H206       -4.5916  -24.8086  -50.9513 H         1 UNK         0.0600 
    207 H207       -3.2984  -24.7575  -53.0576 H         1 UNK         0.0600 
    208 H208       -4.2357  -23.2762  -52.9509 H         1 UNK         0.0600 
    209 H209       -2.5126  -23.2552  -52.5879 H         1 UNK         0.0600 
    210 H210       -6.0218  -23.0621  -50.7069 H         1 UNK         0.3000 
    211 H211       -5.6998  -21.9505  -48.2148 H         1 UNK         0.0600 
    212 H212       -7.9734  -21.0156  -48.5957 H         1 UNK         0.0600 
    213 H213       -7.8605  -22.6530  -49.2126 H         1 UNK         0.0600 
    214 H214       -7.8200  -21.2844  -50.3248 H         1 UNK         0.0600 
    215 H215       -4.6286  -20.3686  -51.0780 H         1 UNK         0.3000 
    216 H216       -3.7944  -18.4266  -51.6028 H         1 UNK         0.0600 
    217 H217       -2.6817  -17.0665  -49.8600 H         1 UNK         0.0600 
    218 H218       -2.4076  -18.7788  -49.5787 H         1 UNK         0.0600 
    219 H219       -3.5732  -17.9015  -48.5948 H         1 UNK         0.0600 
    220 H220       -6.3252  -17.9072  -49.1671 H         1 UNK         0.3000 
    221 H221       -6.8851  -15.1806  -49.8300 H         1 UNK         0.0600 
    222 H222       -8.6289  -17.2839  -48.4343 H         1 UNK         0.0600 
    223 H223       -7.4636  -16.2283  -47.6411 H         1 UNK         0.0600 
    224 H224       -8.8939  -15.5443  -48.3970 H         1 UNK         0.0600 
    225 H225       -8.1058  -18.2201  -51.1498 H         1 UNK         0.3000 
    226 H226       -9.4338  -16.8658  -53.3676 H         1 UNK         0.0600 
    227 H227      -11.2433  -16.8524  -51.6339 H         1 UNK         0.0600 
    228 H228      -11.6451  -17.9412  -52.9485 H         1 UNK         0.0600 
    229 H229      -11.0626  -18.5926  -51.4196 H         1 UNK         0.0600 
    230 H230       -7.0923  -18.3848  -53.2616 H         1 UNK         0.3000 
    231 H231       -7.5853  -20.4864  -55.1177 H         1 UNK         0.0600 
    232 H232       -8.1286  -21.7152  -52.9297 H         1 UNK         0.0600 
    233 H233       -6.5107  -21.3138  -52.3583 H         1 UNK         0.0600 
    234 H234       -6.7276  -22.3769  -53.7425 H         1 UNK         0.0600 
    235 H235       -5.2127  -21.7667  -55.0409 H         1 UNK         0.3000 
    236 H236       -3.1885  -19.8596  -55.7888 H         1 UNK         0.0600 
    237 H237       -1.8280  -21.9380  -56.1035 H         1 UNK         0.0600 
    238 H238       -3.0549  -22.8886  -55.2794 H         1 UNK         0.0600 
    239 H239       -3.4129  -22.1282  -56.8290 H         1 UNK         0.0600 
    240 H240       -0.9349  -20.1360  -54.8705 H         1 UNK         0.3000 
    241 H241        0.5636  -19.7698  -53.3431 H         1 UNK         0.0600 
    242 H242       -0.0709  -17.2208  -50.7593 H         1 UNK         0.3800 
    243 H243        0.6990  -18.7840  -50.7186 H         1 UNK         0.3800 
    244 H244        0.4565  -20.7464  -50.9963 H         1 UNK         0.0800 
    245 H245       -1.1759  -21.2359  -51.2874 H         1 UNK         0.0800 
    246 H246        2.5839  -23.0824  -53.3635 H         1 UNK         0.0800 
    247 H247        1.9236  -21.6295  -54.0600 H         1 UNK         0.0800 
@<TRIPOS>BOND
     1    1    2 1    
     2    1  127 1    
     3    1  128 1    
     4    1  129 1    
     5    2    3 2    
     6    2    4 am   BACKBONE|DICT|INTERRES
     7    4    5 1    
     8    4  130 1    
     9    5    6 1    
    10    5   65 1    
    11    5  131 1    
    12    6    7 1    
    13    6  132 1    
    14    6  133 1    
    15    7    8 1    
    16    8    9 1    
    17    8  134 1    
    18    8  135 1    
    19    9   10 ar   
    20    9   14 ar   
    21   10   11 ar   
    22   10  136 1    
    23   11   12 ar   
    24   11  126 1    
    25   12   13 ar   
    26   12  137 1    
    27   13   14 ar   
    28   13   15 1    
    29   14  138 1    
    30   15   16 1    
    31   15  139 1    
    32   15  140 1    
    33   16   17 1    
    34   17   18 1    
    35   17  141 1    
    36   17  142 1    
    37   18   19 1    
    38   18   67 1    
    39   18  143 1    
    40   19   20 am   BACKBONE|DICT|INTERRES
    41   19  144 1    
    42   20   21 2    
    43   20   22 1    
    44   22   23 1    
    45   22   24 1    
    46   22  145 1    
    47   23  146 1    
    48   23  147 1    
    49   23  148 1    
    50   24   25 am   BACKBONE|DICT|INTERRES
    51   24  149 1    
    52   25   26 2    
    53   25   27 1    
    54   27   28 1    
    55   27   29 1    
    56   27  150 1    
    57   28  151 1    
    58   28  152 1    
    59   28  153 1    
    60   29   30 am   BACKBONE|DICT|INTERRES
    61   29  154 1    
    62   30   31 2    
    63   30   32 1    
    64   32   33 1    
    65   32   34 1    
    66   32  155 1    
    67   33  156 1    
    68   33  157 1    
    69   33  158 1    
    70   34   35 am   BACKBONE|DICT|INTERRES
    71   34  159 1    
    72   35   36 2    
    73   35   37 1    
    74   37   38 1    
    75   37   39 1    
    76   37  160 1    
    77   38  161 1    
    78   38  162 1    
    79   38  163 1    
    80   39   40 am   BACKBONE|DICT|INTERRES
    81   39  164 1    
    82   40   41 2    
    83   40   42 1    
    84   42   43 1    
    85   42   44 1    
    86   42  165 1    
    87   43  166 1    
    88   43  167 1    
    89   43  168 1    
    90   44   45 am   BACKBONE|DICT|INTERRES
    91   44  169 1    
    92   45   46 2    
    93   45   47 1    
    94   47   48 1    
    95   47   49 1    
    96   47  170 1    
    97   48  171 1    
    98   48  172 1    
    99   48  173 1    
   100   49   50 am   BACKBONE|DICT|INTERRES
   101   49  174 1    
   102   50   51 2    
   103   50   52 1    
   104   52   53 1    
   105   52   54 1    
   106   52  175 1    
   107   53  176 1    
   108   53  177 1    
   109   53  178 1    
   110   54   55 am   BACKBONE|DICT|INTERRES
   111   54  179 1    
   112   55   56 2    
   113   55   57 1    
   114   57   58 1    
   115   57   59 1    
   116   57  180 1    
   117   58  181 1    
   118   58  182 1    
   119   58  183 1    
   120   59   60 am   BACKBONE|DICT|INTERRES
   121   59  184 1    
   122   60   61 2    
   123   60   62 1    
   124   62   63 1    
   125   62   64 1    
   126   62  185 1    
   127   63  186 1    
   128   63  187 1    
   129   63  188 1    
   130   64   65 am   BACKBONE|DICT|INTERRES
   131   64  189 1    
   132   65   66 2    
   133   67   68 2    
   134   67   69 am   BACKBONE|DICT|INTERRES
   135   69   70 1    
   136   69  190 1    
   137   70   71 1    
   138   70   72 1    
   139   70  191 1    
   140   71  192 1    
   141   71  193 1    
   142   71  194 1    
   143   72   73 2    
   144   72   74 am   BACKBONE|DICT|INTERRES
   145   74   75 1    
   146   74  195 1    
   147   75   76 1    
   148   75   77 1    
   149   75  196 1    
   150   76  197 1    
   151   76  198 1    
   152   76  199 1    
   153   77   78 2    
   154   77   79 am   BACKBONE|DICT|INTERRES
   155   79   80 1    
   156   79  200 1    
   157   80   81 1    
   158   80   82 1    
   159   80  201 1    
   160   81  202 1    
   161   81  203 1    
   162   81  204 1    
   163   82   83 2    
   164   82   84 am   BACKBONE|DICT|INTERRES
   165   84   85 1    
   166   84  205 1    
   167   85   86 1    
   168   85   87 1    
   169   85  206 1    
   170   86  207 1    
   171   86  208 1    
   172   86  209 1    
   173   87   88 2    
   174   87   89 am   BACKBONE|DICT|INTERRES
   175   89   90 1    
   176   89  210 1    
   177   90   91 1    
   178   90   92 1    
   179   90  211 1    
   180   91  212 1    
   181   91  213 1    
   182   91  214 1    
   183   92   93 2    
   184   92   94 am   BACKBONE|DICT|INTERRES
   185   94   95 1    
   186   94  215 1    
   187   95   96 1    
   188   95   97 1    
   189   95  216 1    
   190   96  217 1    
   191   96  218 1    
   192   96  219 1    
   193   97   98 2    
   194   97   99 am   BACKBONE|DICT|INTERRES
   195   99  100 1    
   196   99  220 1    
   197  100  101 1    
   198  100  102 1    
   199  100  221 1    
   200  101  222 1    
   201  101  223 1    
   202  101  224 1    
   203  102  103 2    
   204  102  104 am   BACKBONE|DICT|INTERRES
   205  104  105 1    
   206  104  225 1    
   207  105  106 1    
   208  105  107 1    
   209  105  226 1    
   210  106  227 1    
   211  106  228 1    
   212  106  229 1    
   213  107  108 2    
   214  107  109 am   BACKBONE|DICT|INTERRES
   215  109  110 1    
   216  109  230 1    
   217  110  111 1    
   218  110  112 1    
   219  110  231 1    
   220  111  232 1    
   221  111  233 1    
   222  111  234 1    
   223  112  113 2    
   224  112  114 am   BACKBONE|DICT|INTERRES
   225  114  115 1    
   226  114  235 1    
   227  115  116 1    
   228  115  117 1    
   229  115  236 1    
   230  116  237 1    
   231  116  238 1    
   232  116  239 1    
   233  117  118 2    
   234  117  119 am   BACKBONE|DICT|INTERRES
   235  119  120 1    
   236  119  240 1    
   237  120  121 1    
   238  120  124 1    
   239  120  241 1    
   240  121  122 am   BACKBONE|DICT|INTERRES
   241  121  123 2    
   242  122  242 1    
   243  122  243 1    
   244  124  125 1    
   245  124  244 1    
   246  124  245 1    
   247  125  126 1    
   248  126  246 1    
   249  126  247 1    
@<TRIPOS>SUBSTRUCTURE
     1 UNK         1 GROUP             0       ****    0 ROOT    
