@<TRIPOS>MOLECULE
3R540
247   249    1
SMALL
USER_CHARGES


@<TRIPOS>ATOM
      1 CA         -2.1684  -13.3901  -44.6679 C.3       0 UNK        -0.1800 
      2 C          -2.1953  -13.0293  -46.1462 C.2       0 UNK         0.5000 
      3 O          -3.2444  -13.1188  -46.7841 O.2       0 UNK        -0.5000 
      4 N          -1.0476  -12.6185  -46.6872 N.am      1 UNK        -0.5000 
      5 CA         -0.8675  -12.1795  -48.0701 C.3       1 UNK         0.1400 
      6 C6         -0.6838  -13.3673  -49.0611 C.3       23 UNK        -0.0398 
      7 S7          0.7185  -14.4703  -48.6429 S.3       23 UNK        -0.2404 
      8 C8         -0.1035  -16.0488  -48.2715 C.3       23 UNK        -0.0205 
      9 C9          0.1218  -17.0579  -49.3860 C.ar      23 UNK        -0.0193 
     10 C10        -0.4704  -16.8738  -50.6399 C.ar      23 UNK        -0.1150 
     11 C11        -0.2228  -17.7766  -51.6790 C.ar      23 UNK        -0.0193 
     12 C12         0.6041  -18.8790  -51.4493 C.ar      23 UNK        -0.1150 
     13 C13         1.1890  -19.0814  -50.1972 C.ar      23 UNK        -0.0193 
     14 C14         0.9467  -18.1661  -49.1693 C.ar      23 UNK        -0.1150 
     15 C15         2.1014  -20.2766  -49.9699 C.3       23 UNK        -0.0205 
     16 S16         1.1586  -21.7726  -49.5444 S.3       23 UNK        -0.2404 
     17 C17         0.6606  -21.3991  -47.8315 C.3       23 UNK        -0.0398 
     18 CA          0.3052  -22.6761  -47.0351 C.3       11 UNK         0.1400 
     19 N           0.5485  -22.5117  -45.6002 N.am      11 UNK        -0.5000 
     20 C           0.5768  -23.5195  -44.7180 C.2       10 UNK         0.5000 
     21 O           0.4266  -24.7009  -45.0294 O.2       10 UNK        -0.5000 
     22 CA          0.7545  -23.1411  -43.2359 C.3       10 UNK         0.1400 
     23 CB          2.2273  -22.8484  -42.9135 C.3       10 UNK        -0.1800 
     24 N          -0.0740  -21.9985  -42.8483 N.am      10 UNK        -0.5000 
     25 C          -1.4147  -22.0073  -42.8533 C.2       9 UNK         0.5000 
     26 O          -2.0891  -22.9992  -43.1308 O.2       9 UNK        -0.5000 
     27 CA         -2.1225  -20.6757  -42.5432 C.3       9 UNK         0.1400 
     28 CB         -2.1987  -20.4402  -41.0275 C.3       9 UNK        -0.1800 
     29 N          -1.4908  -19.5262  -43.1949 N.am      9 UNK        -0.5000 
     30 C          -1.3802  -19.3728  -44.5223 C.2       8 UNK         0.5000 
     31 O          -1.8215  -20.1778  -45.3369 O.2       8 UNK        -0.5000 
     32 CA         -0.5901  -18.1566  -45.0336 C.3       8 UNK         0.1400 
     33 CB         -1.4338  -16.8768  -44.9628 C.3       8 UNK        -0.1800 
     34 N           0.6646  -17.9669  -44.3092 N.am      8 UNK        -0.5000 
     35 C           1.6665  -18.8572  -44.2847 C.2       7 UNK         0.5000 
     36 O           1.6679  -19.9052  -44.9300 O.2       7 UNK        -0.5000 
     37 CA          2.8343  -18.5520  -43.3335 C.3       7 UNK         0.1400 
     38 CB          3.8309  -17.5775  -43.9777 C.3       7 UNK        -0.1800 
     39 N           2.3618  -18.0077  -42.0606 N.am      7 UNK        -0.5000 
     40 C           1.7022  -18.7184  -41.1348 C.2       6 UNK         0.5000 
     41 O           1.4637  -19.9220  -41.2390 O.2       6 UNK        -0.5000 
     42 CA          1.1909  -17.9425  -39.9062 C.3       6 UNK         0.1400 
     43 CB          2.3087  -17.7765  -38.8660 C.3       6 UNK        -0.1800 
     44 N           0.6535  -16.6256  -40.2556 N.am      6 UNK        -0.5000 
     45 C          -0.4623  -16.4333  -40.9732 C.2       5 UNK         0.5000 
     46 O          -1.1778  -17.3484  -41.3751 O.2       5 UNK        -0.5000 
     47 CA         -0.8181  -14.9817  -41.3473 C.3       5 UNK         0.1400 
     48 CB         -1.7064  -14.3479  -40.2672 C.3       5 UNK        -0.1800 
     49 N           0.3469  -14.1238  -41.5827 N.am      5 UNK        -0.5000 
     50 C           1.2891  -14.3443  -42.5090 C.2       4 UNK         0.5000 
     51 O           1.2986  -15.3300  -43.2500 O.2       4 UNK        -0.5000 
     52 CA          2.4381  -13.3190  -42.5579 C.3       4 UNK         0.1400 
     53 CB          3.4213  -13.5765  -41.4043 C.3       4 UNK        -0.1800 
     54 N           3.1877  -13.3457  -43.8144 N.am      4 UNK        -0.5000 
     55 C           2.6964  -13.0363  -45.0200 C.2       3 UNK         0.5000 
     56 O           1.5320  -12.6741  -45.2194 O.2       3 UNK        -0.5000 
     57 CA          3.6863  -13.1701  -46.1930 C.3       3 UNK         0.1400 
     58 CB          3.9031  -14.6493  -46.5535 C.3       3 UNK        -0.1800 
     59 N           3.1772  -12.4743  -47.3698 N.am      3 UNK        -0.5000 
     60 C           3.3890  -11.1841  -47.6646 C.2       2 UNK         0.5000 
     61 O           4.1760  -10.4591  -47.0547 O.2       2 UNK        -0.5000 
     62 CA          2.5553  -10.6013  -48.8266 C.3       2 UNK         0.1400 
     63 CB          3.3140  -10.7293  -50.1562 C.3       2 UNK        -0.1800 
     64 N           1.2586  -11.2726  -48.9460 N.am      2 UNK        -0.5000 
     65 C           0.2606  -11.1266  -48.0632 C.2       1 UNK         0.5000 
     66 O           0.2299  -10.2184  -47.2288 O.2       1 UNK        -0.5000 
     67 C          -1.1291  -23.1717  -47.3252 C.2       11 UNK         0.5000 
     68 O          -1.3066  -24.0594  -48.1587 O.2       11 UNK        -0.5000 
     69 N          -2.1197  -22.6463  -46.5897 N.am      12 UNK        -0.5000 
     70 CA         -3.5189  -23.0696  -46.6451 C.3       12 UNK         0.1400 
     71 CB         -4.3917  -22.1129  -45.8207 C.3       12 UNK        -0.1800 
     72 C          -3.7307  -24.5262  -46.2002 C.2       12 UNK         0.5000 
     73 O          -4.5486  -25.2250  -46.7975 O.2       12 UNK        -0.5000 
     74 N          -2.9774  -24.9664  -45.1835 N.am      13 UNK        -0.5000 
     75 CA         -2.9453  -26.3562  -44.7300 C.3       13 UNK         0.1400 
     76 CB         -2.2435  -26.4359  -43.3657 C.3       13 UNK        -0.1800 
     77 C          -2.2726  -27.2927  -45.7523 C.2       13 UNK         0.5000 
     78 O          -2.7265  -28.4249  -45.9235 O.2       13 UNK        -0.5000 
     79 N          -1.2127  -26.8070  -46.4140 N.am      14 UNK        -0.5000 
     80 CA         -0.4734  -27.5339  -47.4454 C.3       14 UNK         0.1400 
     81 CB          0.8750  -26.8415  -47.6987 C.3       14 UNK        -0.1800 
     82 C          -1.2641  -27.6909  -48.7582 C.2       14 UNK         0.5000 
     83 O          -1.2712  -28.7837  -49.3273 O.2       14 UNK        -0.5000 
     84 N          -1.9102  -26.6113  -49.2159 N.am      15 UNK        -0.5000 
     85 CA         -2.6814  -26.5699  -50.4550 C.3       15 UNK         0.1400 
     86 CB         -1.7467  -26.3273  -51.6582 C.3       15 UNK        -0.1800 
     87 C          -3.7976  -25.5209  -50.3530 C.2       15 UNK         0.5000 
     88 O          -4.9561  -25.8842  -50.1475 O.2       15 UNK        -0.5000 
     89 N          -3.4330  -24.2453  -50.5114 N.am      16 UNK        -0.5000 
     90 CA         -4.3100  -23.0798  -50.4905 C.3       16 UNK         0.1400 
     91 CB         -5.1467  -23.0080  -51.7797 C.3       16 UNK        -0.1800 
     92 C          -3.4310  -21.8295  -50.3464 C.2       16 UNK         0.5000 
     93 O          -2.2489  -21.8781  -50.6930 O.2       16 UNK        -0.5000 
     94 N          -4.0234  -20.7376  -49.8547 N.am      17 UNK        -0.5000 
     95 CA         -3.3817  -19.4342  -49.7267 C.3       17 UNK         0.1400 
     96 CB         -2.9552  -19.2055  -48.2699 C.3       17 UNK        -0.1800 
     97 C          -4.3801  -18.3634  -50.1775 C.2       17 UNK         0.5000 
     98 O          -5.5486  -18.4202  -49.7877 O.2       17 UNK        -0.5000 
     99 N          -3.8943  -17.4216  -50.9952 N.am      18 UNK        -0.5000 
    100 CA        -4.6084  -16.2906  -51.6003 C.3       18 UNK         0.1400 
    101 CB        -5.0309  -15.2816  -50.5126 C.3       18 UNK        -0.1800 
    102 C         -5.7796  -16.6860  -52.5320 C.2       18 UNK         0.5000 
    103 O         -6.6309  -15.8442  -52.8242 O.2       18 UNK        -0.5000 
    104 N         -5.8035  -17.9405  -52.9988 N.am      19 UNK        -0.5000 
    105 CA        -6.8470  -18.5348  -53.8296 C.3       19 UNK         0.1400 
    106 CB        -8.1306  -18.7385  -52.9977 C.3       19 UNK        -0.1800 
    107 C         -6.3478  -19.8789  -54.3825 C.2       19 UNK         0.5000 
    108 O         -5.3043  -20.3698  -53.9424 O.2       19 UNK        -0.5000 
    109 N         -7.1227  -20.4526  -55.3155 N.am      20 UNK        -0.5000 
    110 CA        -6.9822  -21.7859  -55.9141 C.3       20 UNK         0.1400 
    111 CB        -7.4173  -22.8695  -54.9050 C.3       20 UNK        -0.1800 
    112 C         -5.5852  -22.0331  -56.5166 C.2       20 UNK         0.5000 
    113 O         -5.3269  -21.5896  -57.6369 O.2       20 UNK        -0.5000 
    114 N         -4.7031  -22.6972  -55.7548 N.am      21 UNK        -0.5000 
    115 CA        -3.3053  -22.9827  -56.0960 C.3       21 UNK         0.1400 
    116 CB        -2.6691  -23.7961  -54.9569 C.3       21 UNK        -0.1800 
    117 C         -2.4606  -21.7264  -56.3943 C.2       21 UNK         0.5000 
    118 O         -1.4810  -21.8200  -57.1352 O.2       21 UNK        -0.5000 
    119 N         -2.8695  -20.5773  -55.8422 N.am      22 UNK        -0.5000 
    120 CA        -2.3096  -19.2511  -56.1440 C.3       22 UNK         0.1400 
    121 C         -2.6677  -18.7047  -57.5594 C.2       22 UNK         0.5000 
    122 N         -3.5984  -19.2971  -58.2995 N.am      22 UNK        -0.7600 
    123 O         -2.0818  -17.7191  -57.9987 O.2       22 UNK        -0.5000 
    124 C124       -2.6852  -18.2141  -55.0575 C.3       23 UNK        -0.0398 
    125 S125       -2.1634  -18.7322  -53.3895 S.3       23 UNK        -0.2404 
    126 C126       -0.8199  -17.5556  -53.0591 C.3       23 UNK        -0.0205 
    127 H127       -2.6122  -12.5889  -44.0773 H         1 UNK         0.0600 
    128 H128       -1.1489  -13.5511  -44.3165 H         1 UNK         0.0600 
    129 H129       -2.7388  -14.3012  -44.4890 H         1 UNK         0.0600 
    130 H130       -0.2098  -12.5501  -46.1121 H         1 UNK         0.3000 
    131 H131       -1.7621  -11.6328  -48.3755 H         1 UNK         0.0600 
    132 H132       -1.6071  -13.9461  -49.0947 H         1 UNK         0.0800 
    133 H133       -0.5507  -13.0015  -50.0802 H         1 UNK         0.0800 
    134 H134       -1.1706  -15.9149  -48.0918 H         1 UNK         0.0800 
    135 H135        0.3184  -16.4210  -47.3382 H         1 UNK         0.0800 
    136 H136       -1.0974  -16.0100  -50.8104 H         1 UNK         0.1150 
    137 H137        0.7923  -19.5819  -52.2490 H         1 UNK         0.1150 
    138 H138        1.4103  -18.3126  -48.2037 H         1 UNK         0.1150 
    139 H139        2.6761  -20.4724  -50.8764 H         1 UNK         0.0800 
    140 H140        2.8336  -20.0614  -49.1902 H         1 UNK         0.0800 
    141 H141       -0.1543  -20.6757  -47.8296 H         1 UNK         0.0800 
    142 H142        1.5051  -20.8978  -47.3584 H         1 UNK         0.0800 
    143 H143        0.9842  -23.4677  -47.3595 H         1 UNK         0.0600 
    144 H144        0.7188  -21.5656  -45.2706 H         1 UNK         0.3000 
    145 H145        0.4417  -23.9984  -42.6361 H         1 UNK         0.0600 
    146 H146        2.3647  -22.6468  -41.8510 H         1 UNK         0.0600 
    147 H147        2.8588  -23.7003  -43.1681 H         1 UNK         0.0600 
    148 H148        2.5998  -21.9864  -43.4669 H         1 UNK         0.0600 
    149 H149        0.4110  -21.1539  -42.5656 H         1 UNK         0.3000 
    150 H150       -3.1430  -20.7489  -42.9236 H         1 UNK         0.0600 
    151 H151       -2.6703  -21.2847  -40.5236 H         1 UNK         0.0600 
    152 H152       -2.7892  -19.5536  -40.7965 H         1 UNK         0.0600 
    153 H153       -1.2092  -20.3064  -40.5899 H         1 UNK         0.0600 
    154 H154       -1.1507  -18.7892  -42.5826 H         1 UNK         0.3000 
    155 H155       -0.3405  -18.3438  -46.0797 H         1 UNK         0.0600 
    156 H156       -1.7966  -16.6885  -43.9531 H         1 UNK         0.0600 
    157 H157       -2.3050  -16.9498  -45.6150 H         1 UNK         0.0600 
    158 H158       -0.8598  -16.0055  -45.2776 H         1 UNK         0.0600 
    159 H159        0.7728  -17.1010  -43.7879 H         1 UNK         0.3000 
    160 H160        3.3575  -19.4895  -43.1338 H         1 UNK         0.0600 
    161 H161        4.6879  -17.4021  -43.3275 H         1 UNK         0.0600 
    162 H162        3.3705  -16.6138  -44.1923 H         1 UNK         0.0600 
    163 H163        4.2115  -17.9752  -44.9193 H         1 UNK         0.0600 
    164 H164        2.4530  -17.0105  -41.9344 H         1 UNK         0.3000 
    165 H165        0.3883  -18.5285  -39.4533 H         1 UNK         0.0600 
    166 H166        1.9359  -17.2984  -37.9599 H         1 UNK         0.0600 
    167 H167        2.7183  -18.7451  -38.5761 H         1 UNK         0.0600 
    168 H168        3.1324  -17.1731  -39.2498 H         1 UNK         0.0600 
    169 H169        1.1828  -15.8190  -39.9600 H         1 UNK         0.3000 
    170 H170       -1.3907  -15.0182  -42.2750 H         1 UNK         0.0600 
    171 H171       -2.5940  -14.9556  -40.0856 H         1 UNK         0.0600 
    172 H172       -1.1778  -14.2466  -39.3186 H         1 UNK         0.0600 
    173 H173       -2.0493  -13.3581  -40.5694 H         1 UNK         0.0600 
    174 H174        0.4188  -13.3016  -41.0007 H         1 UNK         0.3000 
    175 H175        2.0102  -12.3209  -42.4440 H         1 UNK         0.0600 
    176 H176        3.8804  -14.5633  -41.4798 H         1 UNK         0.0600 
    177 H177        4.2208  -12.8353  -41.3947 H         1 UNK         0.0600 
    178 H178        2.9220  -13.5202  -40.4362 H         1 UNK         0.0600 
    179 H179        4.1436  -13.6620  -43.7500 H         1 UNK         0.3000 
    180 H180        4.6445  -12.7365  -45.8992 H         1 UNK         0.0600 
    181 H181        2.9590  -15.1731  -46.7089 H         1 UNK         0.0600 
    182 H182        4.4392  -15.1678  -45.7590 H         1 UNK         0.0600 
    183 H183        4.4977  -14.7537  -47.4612 H         1 UNK         0.0600 
    184 H184        2.4693  -12.9718  -47.8914 H         1 UNK         0.3000 
    185 H185        2.3887   -9.5408  -48.6259 H         1 UNK         0.0600 
    186 H186        4.2777  -10.2211  -50.1050 H         1 UNK         0.0600 
    187 H187        3.5057  -11.7720  -50.4129 H         1 UNK         0.0600 
    188 H188        2.7528  -10.2790  -50.9753 H         1 UNK         0.0600 
    189 H189        1.2112  -12.0350  -49.6067 H         1 UNK         0.3000 
    190 H190       -1.9097  -21.8713  -45.9632 H         1 UNK         0.3000 
    191 H191       -3.8369  -22.9993  -47.6825 H         1 UNK         0.0600 
    192 H192       -4.1054  -22.1128  -44.7693 H         1 UNK         0.0600 
    193 H193       -5.4429  -22.3982  -45.8750 H         1 UNK         0.0600 
    194 H194       -4.3139  -21.0906  -46.1890 H         1 UNK         0.0600 
    195 H195       -2.3815  -24.3079  -44.6927 H         1 UNK         0.3000 
    196 H196       -3.9755  -26.6936  -44.5978 H         1 UNK         0.0600 
    197 H197       -2.2357  -27.4599  -42.9904 H         1 UNK         0.0600 
    198 H198       -2.7536  -25.8208  -42.6242 H         1 UNK         0.0600 
    199 H199       -1.2083  -26.0994  -43.4223 H         1 UNK         0.0600 
    200 H200       -0.8686  -25.8851  -46.1702 H         1 UNK         0.3000 
    201 H201       -0.2644  -28.5355  -47.0635 H         1 UNK         0.0600 
    202 H202        1.4636  -26.7770  -46.7834 H         1 UNK         0.0600 
    203 H203        0.7453  -25.8306  -48.0846 H         1 UNK         0.0600 
    204 H204        1.4663  -27.3962  -48.4281 H         1 UNK         0.0600 
    205 H205       -1.8331  -25.7325  -48.7052 H         1 UNK         0.3000 
    206 H206       -3.1752  -27.5332  -50.6004 H         1 UNK         0.0600 
    207 H207       -2.3174  -26.1959  -52.5784 H         1 UNK         0.0600 
    208 H208       -1.1279  -25.4395  -51.5218 H         1 UNK         0.0600 
    209 H209       -1.0779  -27.1743  -51.8116 H         1 UNK         0.0600 
    210 H210       -2.4526  -24.0084  -50.6161 H         1 UNK         0.3000 
    211 H211       -4.9797  -23.1516  -49.6320 H         1 UNK         0.0600 
    212 H212       -4.5133  -22.9147  -52.6611 H         1 UNK         0.0600 
    213 H213       -5.8114  -22.1434  -51.7640 H         1 UNK         0.0600 
    214 H214       -5.7713  -23.8922  -51.9050 H         1 UNK         0.0600 
    215 H215       -5.0131  -20.7437  -49.6458 H         1 UNK         0.3000 
    216 H216       -2.4946  -19.3852  -50.3623 H         1 UNK         0.0600 
    217 H217       -2.3952  -18.2761  -48.1661 H         1 UNK         0.0600 
    218 H218       -2.3157  -20.0147  -47.9249 H         1 UNK         0.0600 
    219 H219       -3.8126  -19.1514  -47.5985 H         1 UNK         0.0600 
    220 H220       -2.9332  -17.5215  -51.2930 H         1 UNK         0.3000 
    221 H221       -3.8809  -15.7918  -52.2421 H         1 UNK         0.0600 
    222 H222       -5.8072  -15.6890  -49.8644 H         1 UNK         0.0600 
    223 H223       -4.1848  -14.9993  -49.8856 H         1 UNK         0.0600 
    224 H224       -5.4228  -14.3654  -50.9556 H         1 UNK         0.0600 
    225 H225       -5.0540  -18.5796  -52.7624 H         1 UNK         0.3000 
    226 H226       -7.0503  -17.8715  -54.6725 H         1 UNK         0.0600 
    227 H227       -8.9205  -19.2042  -53.5879 H         1 UNK         0.0600 
    228 H228       -7.9460  -19.3778  -52.1332 H         1 UNK         0.0600 
    229 H229       -8.5270  -17.7918  -52.6314 H         1 UNK         0.0600 
    230 H230       -7.9321  -19.9365  -55.6307 H         1 UNK         0.3000 
    231 H231       -7.6814  -21.8247  -56.7509 H         1 UNK         0.0600 
    232 H232       -8.4690  -22.7537  -54.6432 H         1 UNK         0.0600 
    233 H233       -6.8459  -22.8245  -53.9798 H         1 UNK         0.0600 
    234 H234       -7.2990  -23.8701  -55.3231 H         1 UNK         0.0600 
    235 H235       -4.9999  -22.9701  -54.8301 H         1 UNK         0.3000 
    236 H236       -3.3091  -23.5969  -56.9985 H         1 UNK         0.0600 
    237 H237       -3.2396  -24.7006  -54.7452 H         1 UNK         0.0600 
    238 H238       -1.6567  -24.1057  -55.2192 H         1 UNK         0.0600 
    239 H239       -2.6017  -23.2151  -54.0362 H         1 UNK         0.0600 
    240 H240       -3.6676  -20.5950  -55.2164 H         1 UNK         0.3000 
    241 H241       -1.2226  -19.3515  -56.1329 H         1 UNK         0.0600 
    242 H242       -4.1002  -20.1157  -57.9688 H         1 UNK         0.3800 
    243 H243       -3.8076  -18.9272  -59.2131 H         1 UNK         0.3800 
    244 H244       -2.2446  -17.2417  -55.2846 H         1 UNK         0.0800 
    245 H245       -3.7645  -18.0581  -55.0439 H         1 UNK         0.0800 
    246 H246       -0.0417  -17.6731  -53.8149 H         1 UNK         0.0800 
    247 H247       -1.1954  -16.5355  -53.1546 H         1 UNK         0.0800 
@<TRIPOS>BOND
     1    1    2 1    
     2    1  127 1    
     3    1  128 1    
     4    1  129 1    
     5    2    3 2    
     6    2    4 am   BACKBONE|DICT|INTERRES
     7    4    5 1    
     8    4  130 1    
     9    5    6 1    
    10    5   65 1    
    11    5  131 1    
    12    6    7 1    
    13    6  132 1    
    14    6  133 1    
    15    7    8 1    
    16    8    9 1    
    17    8  134 1    
    18    8  135 1    
    19    9   10 ar   
    20    9   14 ar   
    21   10   11 ar   
    22   10  136 1    
    23   11   12 ar   
    24   11  126 1    
    25   12   13 ar   
    26   12  137 1    
    27   13   14 ar   
    28   13   15 1    
    29   14  138 1    
    30   15   16 1    
    31   15  139 1    
    32   15  140 1    
    33   16   17 1    
    34   17   18 1    
    35   17  141 1    
    36   17  142 1    
    37   18   19 1    
    38   18   67 1    
    39   18  143 1    
    40   19   20 am   BACKBONE|DICT|INTERRES
    41   19  144 1    
    42   20   21 2    
    43   20   22 1    
    44   22   23 1    
    45   22   24 1    
    46   22  145 1    
    47   23  146 1    
    48   23  147 1    
    49   23  148 1    
    50   24   25 am   BACKBONE|DICT|INTERRES
    51   24  149 1    
    52   25   26 2    
    53   25   27 1    
    54   27   28 1    
    55   27   29 1    
    56   27  150 1    
    57   28  151 1    
    58   28  152 1    
    59   28  153 1    
    60   29   30 am   BACKBONE|DICT|INTERRES
    61   29  154 1    
    62   30   31 2    
    63   30   32 1    
    64   32   33 1    
    65   32   34 1    
    66   32  155 1    
    67   33  156 1    
    68   33  157 1    
    69   33  158 1    
    70   34   35 am   BACKBONE|DICT|INTERRES
    71   34  159 1    
    72   35   36 2    
    73   35   37 1    
    74   37   38 1    
    75   37   39 1    
    76   37  160 1    
    77   38  161 1    
    78   38  162 1    
    79   38  163 1    
    80   39   40 am   BACKBONE|DICT|INTERRES
    81   39  164 1    
    82   40   41 2    
    83   40   42 1    
    84   42   43 1    
    85   42   44 1    
    86   42  165 1    
    87   43  166 1    
    88   43  167 1    
    89   43  168 1    
    90   44   45 am   BACKBONE|DICT|INTERRES
    91   44  169 1    
    92   45   46 2    
    93   45   47 1    
    94   47   48 1    
    95   47   49 1    
    96   47  170 1    
    97   48  171 1    
    98   48  172 1    
    99   48  173 1    
   100   49   50 am   BACKBONE|DICT|INTERRES
   101   49  174 1    
   102   50   51 2    
   103   50   52 1    
   104   52   53 1    
   105   52   54 1    
   106   52  175 1    
   107   53  176 1    
   108   53  177 1    
   109   53  178 1    
   110   54   55 am   BACKBONE|DICT|INTERRES
   111   54  179 1    
   112   55   56 2    
   113   55   57 1    
   114   57   58 1    
   115   57   59 1    
   116   57  180 1    
   117   58  181 1    
   118   58  182 1    
   119   58  183 1    
   120   59   60 am   BACKBONE|DICT|INTERRES
   121   59  184 1    
   122   60   61 2    
   123   60   62 1    
   124   62   63 1    
   125   62   64 1    
   126   62  185 1    
   127   63  186 1    
   128   63  187 1    
   129   63  188 1    
   130   64   65 am   BACKBONE|DICT|INTERRES
   131   64  189 1    
   132   65   66 2    
   133   67   68 2    
   134   67   69 am   BACKBONE|DICT|INTERRES
   135   69   70 1    
   136   69  190 1    
   137   70   71 1    
   138   70   72 1    
   139   70  191 1    
   140   71  192 1    
   141   71  193 1    
   142   71  194 1    
   143   72   73 2    
   144   72   74 am   BACKBONE|DICT|INTERRES
   145   74   75 1    
   146   74  195 1    
   147   75   76 1    
   148   75   77 1    
   149   75  196 1    
   150   76  197 1    
   151   76  198 1    
   152   76  199 1    
   153   77   78 2    
   154   77   79 am   BACKBONE|DICT|INTERRES
   155   79   80 1    
   156   79  200 1    
   157   80   81 1    
   158   80   82 1    
   159   80  201 1    
   160   81  202 1    
   161   81  203 1    
   162   81  204 1    
   163   82   83 2    
   164   82   84 am   BACKBONE|DICT|INTERRES
   165   84   85 1    
   166   84  205 1    
   167   85   86 1    
   168   85   87 1    
   169   85  206 1    
   170   86  207 1    
   171   86  208 1    
   172   86  209 1    
   173   87   88 2    
   174   87   89 am   BACKBONE|DICT|INTERRES
   175   89   90 1    
   176   89  210 1    
   177   90   91 1    
   178   90   92 1    
   179   90  211 1    
   180   91  212 1    
   181   91  213 1    
   182   91  214 1    
   183   92   93 2    
   184   92   94 am   BACKBONE|DICT|INTERRES
   185   94   95 1    
   186   94  215 1    
   187   95   96 1    
   188   95   97 1    
   189   95  216 1    
   190   96  217 1    
   191   96  218 1    
   192   96  219 1    
   193   97   98 2    
   194   97   99 am   BACKBONE|DICT|INTERRES
   195   99  100 1    
   196   99  220 1    
   197  100  101 1    
   198  100  102 1    
   199  100  221 1    
   200  101  222 1    
   201  101  223 1    
   202  101  224 1    
   203  102  103 2    
   204  102  104 am   BACKBONE|DICT|INTERRES
   205  104  105 1    
   206  104  225 1    
   207  105  106 1    
   208  105  107 1    
   209  105  226 1    
   210  106  227 1    
   211  106  228 1    
   212  106  229 1    
   213  107  108 2    
   214  107  109 am   BACKBONE|DICT|INTERRES
   215  109  110 1    
   216  109  230 1    
   217  110  111 1    
   218  110  112 1    
   219  110  231 1    
   220  111  232 1    
   221  111  233 1    
   222  111  234 1    
   223  112  113 2    
   224  112  114 am   BACKBONE|DICT|INTERRES
   225  114  115 1    
   226  114  235 1    
   227  115  116 1    
   228  115  117 1    
   229  115  236 1    
   230  116  237 1    
   231  116  238 1    
   232  116  239 1    
   233  117  118 2    
   234  117  119 am   BACKBONE|DICT|INTERRES
   235  119  120 1    
   236  119  240 1    
   237  120  121 1    
   238  120  124 1    
   239  120  241 1    
   240  121  122 am   BACKBONE|DICT|INTERRES
   241  121  123 2    
   242  122  242 1    
   243  122  243 1    
   244  124  125 1    
   245  124  244 1    
   246  124  245 1    
   247  125  126 1    
   248  126  246 1    
   249  126  247 1    
@<TRIPOS>SUBSTRUCTURE
     1 UNK         1 GROUP             0       ****    0 ROOT    
