@<TRIPOS>MOLECULE
3R540
247   249    1
SMALL
USER_CHARGES


@<TRIPOS>ATOM
      1 CA          3.8596  -16.0794  -47.0218 C.3       0 UNK        -0.1800 
      2 C           4.0510  -15.2463  -48.2876 C.2       0 UNK         0.5000 
      3 O           4.9211  -15.5647  -49.0952 O.2       0 UNK        -0.5000 
      4 N           3.2703  -14.1815  -48.5103 N.am      1 UNK        -0.5000 
      5 CA          2.2544  -13.6373  -47.6077 C.3       1 UNK         0.1400 
      6 C6          1.0691  -13.0079  -48.3834 C.3       23 UNK        -0.0398 
      7 S7         -0.1690  -14.2702  -48.8149 S.3       23 UNK        -0.2404 
      8 C8          0.3275  -14.7535  -50.4942 C.3       23 UNK        -0.0205 
      9 C9         -0.0917  -16.1897  -50.7531 C.ar      23 UNK        -0.0193 
     10 C10        -1.4171  -16.4894  -51.0824 C.ar      23 UNK        -0.1150 
     11 C11        -1.8226  -17.8166  -51.2450 C.ar      23 UNK        -0.0193 
     12 C12        -0.8893  -18.8437  -51.0797 C.ar      23 UNK        -0.1150 
     13 C13         0.4428  -18.5579  -50.7666 C.ar      23 UNK        -0.0193 
     14 C14         0.8372  -17.2247  -50.6155 C.ar      23 UNK        -0.1150 
     15 C15         1.4408  -19.7004  -50.6081 C.3       23 UNK        -0.0205 
     16 S16         2.5342  -19.5662  -49.1504 S.3       23 UNK        -0.2404 
     17 C17         1.3904  -19.2265  -47.7689 C.3       23 UNK        -0.0398 
     18 CA          0.7411  -20.4936  -47.1591 C.3       11 UNK         0.1400 
     19 N           0.5196  -20.3626  -45.7165 N.am      11 UNK        -0.5000 
     20 C           0.1154  -21.3533  -44.9081 C.2       10 UNK         0.5000 
     21 O          -0.0734  -22.5104  -45.2844 O.2       10 UNK        -0.5000 
     22 CA         -0.1765  -20.9758  -43.4435 C.3       10 UNK         0.1400 
     23 CB          1.1228  -20.8651  -42.6325 C.3       10 UNK        -0.1800 
     24 N          -0.9381  -19.7315  -43.3257 N.am      10 UNK        -0.5000 
     25 C          -2.1776  -19.5534  -43.8048 C.2       9 UNK         0.5000 
     26 O          -2.8295  -20.4333  -44.3647 O.2       9 UNK        -0.5000 
     27 CA         -2.7726  -18.1418  -43.6823 C.3       9 UNK         0.1400 
     28 CB         -3.3808  -17.9194  -42.2897 C.3       9 UNK        -0.1800 
     29 N          -1.7825  -17.1038  -43.9638 N.am      9 UNK        -0.5000 
     30 C          -1.2479  -16.8815  -45.1721 C.2       8 UNK         0.5000 
     31 O          -1.5370  -17.5258  -46.1811 O.2       8 UNK        -0.5000 
     32 CA         -0.1749  -15.7812  -45.2507 C.3       8 UNK         0.1400 
     33 CB         -0.8269  -14.3896  -45.2224 C.3       8 UNK        -0.1800 
     34 N           0.8248  -15.8721  -44.1829 N.am      8 UNK        -0.5000 
     35 C           1.6190  -16.9320  -43.9740 C.2       7 UNK         0.5000 
     36 O           1.6364  -17.9234  -44.7000 O.2       7 UNK        -0.5000 
     37 CA          2.5092  -16.9104  -42.7195 C.3       7 UNK         0.1400 
     38 CB          3.8380  -16.2030  -43.0168 C.3       7 UNK        -0.1800 
     39 N           1.8763  -16.3055  -41.5448 N.am      7 UNK        -0.5000 
     40 C           0.7169  -16.7070  -40.9988 C.2       6 UNK         0.5000 
     41 O           0.0188  -17.6056  -41.4736 O.2       6 UNK        -0.5000 
     42 CA          0.2728  -15.9842  -39.7079 C.3       6 UNK         0.1400 
     43 CB         -0.8505  -16.7259  -38.9547 C.3       6 UNK        -0.1800 
     44 N           1.3926  -15.6870  -38.8095 N.am      6 UNK        -0.5000 
     45 C           2.2618  -16.5611  -38.2737 C.2       5 UNK         0.5000 
     46 O           2.1543  -17.7837  -38.3826 O.2       5 UNK        -0.5000 
     47 CA          3.4603  -15.9722  -37.4914 C.3       5 UNK         0.1400 
     48 CB          4.7387  -16.8204  -37.6587 C.3       5 UNK        -0.1800 
     49 N           3.7424  -14.5608  -37.7905 N.am      5 UNK        -0.5000 
     50 C           4.0501  -14.0322  -38.9835 C.2       4 UNK         0.5000 
     51 O           4.1555  -14.6802  -40.0265 O.2       4 UNK        -0.5000 
     52 CA          4.1924  -12.5016  -39.0282 C.3       4 UNK         0.1400 
     53 CB          5.6103  -12.0956  -39.4595 C.3       4 UNK        -0.1800 
     54 N           3.2235  -11.9019  -39.9450 N.am      4 UNK        -0.5000 
     55 C           1.8892  -12.0291  -39.8799 C.2       3 UNK         0.5000 
     56 O           1.3007  -12.6550  -38.9965 O.2       3 UNK        -0.5000 
     57 CA          1.0752  -11.3488  -40.9969 C.3       3 UNK         0.1400 
     58 CB          0.5830   -9.9679  -40.5378 C.3       3 UNK        -0.1800 
     59 N           1.8435  -11.1978  -42.2356 N.am      3 UNK        -0.5000 
     60 C           2.0793  -12.1975  -43.0921 C.2       2 UNK         0.5000 
     61 O           1.6162  -13.3363  -42.9672 O.2       2 UNK        -0.5000 
     62 CA          2.9957  -11.8761  -44.2803 C.3       2 UNK         0.1400 
     63 CB          4.4779  -12.0382  -43.8967 C.3       2 UNK        -0.1800 
     64 N           2.6438  -12.7851  -45.3613 N.am      2 UNK        -0.5000 
     65 C           2.9019  -12.6138  -46.6605 C.2       1 UNK         0.5000 
     66 O           3.5787  -11.6916  -47.1198 O.2       1 UNK        -0.5000 
     67 C          -0.5610  -20.8650  -47.8935 C.2       11 UNK         0.5000 
     68 O          -0.5612  -21.8065  -48.6857 O.2       11 UNK        -0.5000 
     69 N          -1.6567  -20.1558  -47.5844 N.am      12 UNK        -0.5000 
     70 CA         -2.9818  -20.4099  -48.1483 C.3       12 UNK         0.1400 
     71 CB         -3.9514  -19.3000  -47.7196 C.3       12 UNK        -0.1800 
     72 C          -3.5343  -21.8019  -47.7937 C.2       12 UNK         0.5000 
     73 O          -4.0824  -22.4697  -48.6692 O.2       12 UNK        -0.5000 
     74 N          -3.3429  -22.2338  -46.5393 N.am      13 UNK        -0.5000 
     75 CA         -3.7112  -23.5647  -46.0538 C.3       13 UNK         0.1400 
     76 CB         -3.5408  -23.6241  -44.5285 C.3       13 UNK        -0.1800 
     77 C          -2.9167  -24.6947  -46.7338 C.2       13 UNK         0.5000 
     78 O          -3.4919  -25.7426  -47.0275 O.2       13 UNK        -0.5000 
     79 N          -1.6231  -24.4600  -46.9947 N.am      14 UNK        -0.5000 
     80 CA         -0.7569  -25.3755  -47.7379 C.3       14 UNK         0.1400 
     81 CB          0.7106  -24.9582  -47.5554 C.3       14 UNK        -0.1800 
     82 C          -1.1280  -25.4468  -49.2312 C.2       14 UNK         0.5000 
     83 O          -1.1590  -26.5387  -49.8004 O.2       14 UNK        -0.5000 
     84 N          -1.4193  -24.2854  -49.8327 N.am      15 UNK        -0.5000 
     85 CA         -1.7971  -24.1415  -51.2390 C.3       15 UNK         0.1400 
     86 CB         -1.7274  -22.6589  -51.6332 C.3       15 UNK        -0.1800 
     87 C          -3.1859  -24.7102  -51.5786 C.2       15 UNK         0.5000 
     88 O          -3.4117  -25.0550  -52.7364 O.2       15 UNK        -0.5000 
     89 N          -4.0824  -24.8009  -50.5842 N.am      16 UNK        -0.5000 
     90 CA         -5.5012  -25.1659  -50.7004 C.3       16 UNK         0.1400 
     91 CB         -6.1153  -25.2433  -49.2941 C.3       16 UNK        -0.1800 
     92 C          -5.8170  -26.4601  -51.4795 C.2       16 UNK         0.5000 
     93 O          -6.9107  -26.5733  -52.0342 O.2       16 UNK        -0.5000 
     94 N          -4.8619  -27.3987  -51.5293 N.am      17 UNK        -0.5000 
     95 CA         -4.9379  -28.6405  -52.3028 C.3       17 UNK         0.1400 
     96 CB         -3.7433  -29.5296  -51.9246 C.3       17 UNK        -0.1800 
     97 C          -4.9878  -28.4291  -53.8325 C.2       17 UNK         0.5000 
     98 O          -5.4964  -29.2982  -54.5420 O.2       17 UNK        -0.5000 
     99 N          -4.4725  -27.2915  -54.3140 N.am      18 UNK        -0.5000 
    100 CA        -4.4583  -26.8874  -55.7174 C.3       18 UNK         0.1400 
    101 CB        -3.2785  -27.5569  -56.4500 C.3       18 UNK        -0.1800 
    102 C         -4.4152  -25.3524  -55.7617 C.2       18 UNK         0.5000 
    103 O         -3.4439  -24.7721  -56.2497 O.2       18 UNK        -0.5000 
    104 N         -5.4485  -24.7342  -55.1694 N.am      19 UNK        -0.5000 
    105 CA        -5.5207  -23.3090  -54.8353 C.3       19 UNK         0.1400 
    106 CB        -6.8614  -23.0263  -54.1388 C.3       19 UNK        -0.1800 
    107 C         -5.3228  -22.3535  -56.0244 C.2       19 UNK         0.5000 
    108 O         -4.6060  -21.3618  -55.8839 O.2       19 UNK        -0.5000 
    109 N         -5.9583  -22.6707  -57.1634 N.am      20 UNK        -0.5000 
    110 CA        -5.9377  -21.9133  -58.4199 C.3       20 UNK         0.1400 
    111 CB        -4.5746  -22.0945  -59.1248 C.3       20 UNK        -0.1800 
    112 C         -6.3421  -20.4388  -58.2001 C.2       20 UNK         0.5000 
    113 O         -7.5045  -20.1755  -57.8856 O.2       20 UNK        -0.5000 
    114 N         -5.3765  -19.5155  -58.3092 N.am      21 UNK        -0.5000 
    115 CA        -5.5289  -18.0806  -58.0533 C.3       21 UNK         0.1400 
    116 CB        -4.2150  -17.3702  -58.4129 C.3       21 UNK        -0.1800 
    117 C         -5.9514  -17.7331  -56.6098 C.2       21 UNK         0.5000 
    118 O         -6.5650  -16.6850  -56.4032 O.2       21 UNK        -0.5000 
    119 N         -5.6453  -18.6141  -55.6477 N.am      22 UNK        -0.5000 
    120 CA        -6.1169  -18.5249  -54.2560 C.3       22 UNK         0.1400 
    121 C         -7.6014  -18.9622  -54.0643 C.2       22 UNK         0.5000 
    122 N         -8.2851  -19.5077  -55.0651 N.am      22 UNK        -0.7600 
    123 O         -8.1508  -18.7958  -52.9791 O.2       22 UNK        -0.5000 
    124 C124       -5.1905  -19.2910  -53.2754 C.3       23 UNK        -0.0398 
    125 S125       -3.4641  -18.6960  -53.2937 S.3       23 UNK        -0.2404 
    126 C126       -3.2708  -18.1496  -51.5693 C.3       23 UNK        -0.0205 
    127 H127        2.8623  -16.5170  -46.9966 H         1 UNK         0.0600 
    128 H128        4.0018  -15.4707  -46.1292 H         1 UNK         0.0600 
    129 H129        4.5800  -16.8969  -46.9865 H         1 UNK         0.0600 
    130 H130        3.4527  -13.6208  -49.3300 H         1 UNK         0.3000 
    131 H131        1.8550  -14.4385  -46.9886 H         1 UNK         0.0600 
    132 H132        1.4037  -12.4750  -49.2751 H         1 UNK         0.0800 
    133 H133        0.5449  -12.2692  -47.7734 H         1 UNK         0.0800 
    134 H134        1.4067  -14.6504  -50.6143 H         1 UNK         0.0800 
    135 H135       -0.1344  -14.0843  -51.2215 H         1 UNK         0.0800 
    136 H136       -2.1361  -15.6888  -51.1854 H         1 UNK         0.1150 
    137 H137       -1.2055  -19.8693  -51.1999 H         1 UNK         0.1150 
    138 H138        1.8628  -16.9941  -50.3628 H         1 UNK         0.1150 
    139 H139        0.9238  -20.6589  -50.5622 H         1 UNK         0.0800 
    140 H140        2.0631  -19.7387  -51.5029 H         1 UNK         0.0800 
    141 H141        0.6531  -18.4680  -48.0375 H         1 UNK         0.0800 
    142 H142        2.0208  -18.7522  -47.0198 H         1 UNK         0.0800 
    143 H143        1.4342  -21.3286  -47.2829 H         1 UNK         0.0600 
    144 H144        0.6978  -19.4461  -45.3135 H         1 UNK         0.3000 
    145 H145       -0.7804  -21.7747  -43.0084 H         1 UNK         0.0600 
    146 H146        0.9186  -20.6202  -41.5898 H         1 UNK         0.0600 
    147 H147        1.7841  -20.0974  -43.0328 H         1 UNK         0.0600 
    148 H148        1.6706  -21.8081  -42.6458 H         1 UNK         0.0600 
    149 H149       -0.4902  -18.9577  -42.8436 H         1 UNK         0.3000 
    150 H150       -3.5739  -18.0517  -44.4188 H         1 UNK         0.0600 
    151 H151       -4.1685  -18.6472  -42.0908 H         1 UNK         0.0600 
    152 H152       -3.8253  -16.9277  -42.2054 H         1 UNK         0.0600 
    153 H153       -2.6357  -18.0231  -41.5012 H         1 UNK         0.0600 
    154 H154       -1.4290  -16.5865  -43.1721 H         1 UNK         0.3000 
    155 H155        0.3372  -15.9105  -46.2049 H         1 UNK         0.0600 
    156 H156       -1.5984  -14.3040  -45.9888 H         1 UNK         0.0600 
    157 H157       -0.0996  -13.6017  -45.4106 H         1 UNK         0.0600 
    158 H158       -1.2969  -14.1840  -44.2599 H         1 UNK         0.0600 
    159 H159        0.8955  -15.0879  -43.5406 H         1 UNK         0.3000 
    160 H160        2.7326  -17.9471  -42.4624 H         1 UNK         0.0600 
    161 H161        3.6895  -15.1429  -43.2185 H         1 UNK         0.0600 
    162 H162        4.3301  -16.6404  -43.8863 H         1 UNK         0.0600 
    163 H163        4.5280  -16.2919  -42.1780 H         1 UNK         0.0600 
    164 H164        2.4073  -15.5780  -41.0807 H         1 UNK         0.3000 
    165 H165       -0.1253  -15.0195  -40.0254 H         1 UNK         0.0600 
    166 H166       -1.1342  -16.1940  -38.0466 H         1 UNK         0.0600 
    167 H167       -1.7451  -16.8093  -39.5720 H         1 UNK         0.0600 
    168 H168       -0.5520  -17.7361  -38.6733 H         1 UNK         0.0600 
    169 H169        1.5652  -14.6982  -38.6610 H         1 UNK         0.3000 
    170 H170        3.1760  -16.0084  -36.4389 H         1 UNK         0.0600 
    171 H171        5.0420  -16.8928  -38.7036 H         1 UNK         0.0600 
    172 H172        5.5705  -16.3960  -37.0965 H         1 UNK         0.0600 
    173 H173        4.5878  -17.8363  -37.2919 H         1 UNK         0.0600 
    174 H174        3.6398  -13.9311  -37.0064 H         1 UNK         0.3000 
    175 H175        4.0061  -12.0933  -38.0328 H         1 UNK         0.0600 
    176 H176        5.8389  -12.4419  -40.4686 H         1 UNK         0.0600 
    177 H177        5.7349  -11.0128  -39.4397 H         1 UNK         0.0600 
    178 H178        6.3584  -12.5208  -38.7893 H         1 UNK         0.0600 
    179 H179        3.6084  -11.3901  -40.7235 H         1 UNK         0.3000 
    180 H180        0.2008  -11.9725  -41.1963 H         1 UNK         0.0600 
    181 H181       -0.0454   -9.5012  -41.2966 H         1 UNK         0.0600 
    182 H182        1.4132   -9.2927  -40.3265 H         1 UNK         0.0600 
    183 H183       -0.0139  -10.0490  -39.6283 H         1 UNK         0.0600 
    184 H184        2.2386  -10.2857  -42.4153 H         1 UNK         0.3000 
    185 H185        2.8075  -10.8494  -44.6016 H         1 UNK         0.0600 
    186 H186        4.7029  -13.0529  -43.5685 H         1 UNK         0.0600 
    187 H187        5.1331  -11.8074  -44.7366 H         1 UNK         0.0600 
    188 H188        4.7484  -11.3640  -43.0834 H         1 UNK         0.0600 
    189 H189        2.0687  -13.5570  -45.0495 H         1 UNK         0.3000 
    190 H190       -1.5797  -19.3749  -46.9394 H         1 UNK         0.3000 
    191 H191       -2.8830  -20.3718  -49.2336 H         1 UNK         0.0600 
    192 H192       -4.0645  -19.2617  -46.6358 H         1 UNK         0.0600 
    193 H193       -4.9411  -19.4574  -48.1500 H         1 UNK         0.0600 
    194 H194       -3.6019  -18.3229  -48.0544 H         1 UNK         0.0600 
    195 H195       -2.9337  -21.5998  -45.8575 H         1 UNK         0.3000 
    196 H196       -4.7673  -23.7211  -46.2830 H         1 UNK         0.0600 
    197 H197       -4.1749  -22.8890  -44.0328 H         1 UNK         0.0600 
    198 H198       -2.5097  -23.4308  -44.2312 H         1 UNK         0.0600 
    199 H199       -3.8172  -24.6056  -44.1414 H         1 UNK         0.0600 
    200 H200       -1.2065  -23.5920  -46.6752 H         1 UNK         0.3000 
    201 H201       -0.8769  -26.3757  -47.3164 H         1 UNK         0.0600 
    202 H202        0.9946  -24.9708  -46.5029 H         1 UNK         0.0600 
    203 H203        0.8978  -23.9547  -47.9381 H         1 UNK         0.0600 
    204 H204        1.3788  -25.6407  -48.0817 H         1 UNK         0.0600 
    205 H205       -1.3079  -23.4228  -49.3049 H         1 UNK         0.3000 
    206 H206       -1.0671  -24.6865  -51.8408 H         1 UNK         0.0600 
    207 H207       -0.7205  -22.2654  -51.4972 H         1 UNK         0.0600 
    208 H208       -1.9927  -22.5158  -52.6818 H         1 UNK         0.0600 
    209 H209       -2.4108  -22.0541  -51.0363 H         1 UNK         0.0600 
    210 H210       -3.8020  -24.4326  -49.6836 H         1 UNK         0.3000 
    211 H211       -5.9870  -24.3476  -51.2330 H         1 UNK         0.0600 
    212 H212       -5.6399  -26.0192  -48.6934 H         1 UNK         0.0600 
    213 H213       -7.1806  -25.4733  -49.3425 H         1 UNK         0.0600 
    214 H214       -6.0160  -24.2978  -48.7619 H         1 UNK         0.0600 
    215 H215       -3.9900  -27.2115  -51.0547 H         1 UNK         0.3000 
    216 H216       -5.8551  -29.1582  -52.0151 H         1 UNK         0.0600 
    217 H217       -3.7761  -30.4789  -52.4610 H         1 UNK         0.0600 
    218 H218       -3.7438  -29.7597  -50.8589 H         1 UNK         0.0600 
    219 H219       -2.7939  -29.0488  -52.1642 H         1 UNK         0.0600 
    220 H220       -4.0956  -26.6032  -53.6647 H         1 UNK         0.3000 
    221 H221       -5.3887  -27.1981  -56.1973 H         1 UNK         0.0600 
    222 H222       -2.3235  -27.2986  -55.9908 H         1 UNK         0.0600 
    223 H223       -3.3709  -28.6429  -56.4402 H         1 UNK         0.0600 
    224 H224       -3.2392  -27.2447  -57.4942 H         1 UNK         0.0600 
    225 H225       -6.1830  -25.3129  -54.7879 H         1 UNK         0.3000 
    226 H226       -4.7199  -23.1053  -54.1219 H         1 UNK         0.0600 
    227 H227       -6.9853  -23.6431  -53.2496 H         1 UNK         0.0600 
    228 H228       -6.9304  -21.9858  -53.8221 H         1 UNK         0.0600 
    229 H229       -7.7071  -23.2222  -54.7990 H         1 UNK         0.0600 
    230 H230       -6.5372  -23.4982  -57.1604 H         1 UNK         0.3000 
    231 H231       -6.7038  -22.3482  -59.0634 H         1 UNK         0.0600 
    232 H232       -4.5477  -21.5614  -60.0762 H         1 UNK         0.0600 
    233 H233       -4.3904  -23.1466  -59.3427 H         1 UNK         0.0600 
    234 H234       -3.7420  -21.7392  -58.5165 H         1 UNK         0.0600 
    235 H235       -4.4432  -19.8331  -58.5269 H         1 UNK         0.3000 
    236 H236       -6.3117  -17.7098  -58.7181 H         1 UNK         0.0600 
    237 H237       -3.3873  -17.7216  -57.7953 H         1 UNK         0.0600 
    238 H238       -3.9496  -17.5337  -59.4576 H         1 UNK         0.0600 
    239 H239       -4.2998  -16.2926  -58.2656 H         1 UNK         0.0600 
    240 H240       -5.1455  -19.4644  -55.8910 H         1 UNK         0.3000 
    241 H241       -6.0846  -17.4734  -53.9645 H         1 UNK         0.0600 
    242 H242       -9.2453  -19.7722  -54.9132 H         1 UNK         0.3800 
    243 H243       -7.8734  -19.6425  -55.9819 H         1 UNK         0.3800 
    244 H244       -5.5778  -19.2186  -52.2577 H         1 UNK         0.0800 
    245 H245       -5.1798  -20.3549  -53.5099 H         1 UNK         0.0800 
    246 H246       -3.6155  -18.9364  -50.8988 H         1 UNK         0.0800 
    247 H247       -3.9152  -17.2873  -51.3910 H         1 UNK         0.0800 
@<TRIPOS>BOND
     1    1    2 1    
     2    1  127 1    
     3    1  128 1    
     4    1  129 1    
     5    2    3 2    
     6    2    4 am   BACKBONE|DICT|INTERRES
     7    4    5 1    
     8    4  130 1    
     9    5    6 1    
    10    5   65 1    
    11    5  131 1    
    12    6    7 1    
    13    6  132 1    
    14    6  133 1    
    15    7    8 1    
    16    8    9 1    
    17    8  134 1    
    18    8  135 1    
    19    9   10 ar   
    20    9   14 ar   
    21   10   11 ar   
    22   10  136 1    
    23   11   12 ar   
    24   11  126 1    
    25   12   13 ar   
    26   12  137 1    
    27   13   14 ar   
    28   13   15 1    
    29   14  138 1    
    30   15   16 1    
    31   15  139 1    
    32   15  140 1    
    33   16   17 1    
    34   17   18 1    
    35   17  141 1    
    36   17  142 1    
    37   18   19 1    
    38   18   67 1    
    39   18  143 1    
    40   19   20 am   BACKBONE|DICT|INTERRES
    41   19  144 1    
    42   20   21 2    
    43   20   22 1    
    44   22   23 1    
    45   22   24 1    
    46   22  145 1    
    47   23  146 1    
    48   23  147 1    
    49   23  148 1    
    50   24   25 am   BACKBONE|DICT|INTERRES
    51   24  149 1    
    52   25   26 2    
    53   25   27 1    
    54   27   28 1    
    55   27   29 1    
    56   27  150 1    
    57   28  151 1    
    58   28  152 1    
    59   28  153 1    
    60   29   30 am   BACKBONE|DICT|INTERRES
    61   29  154 1    
    62   30   31 2    
    63   30   32 1    
    64   32   33 1    
    65   32   34 1    
    66   32  155 1    
    67   33  156 1    
    68   33  157 1    
    69   33  158 1    
    70   34   35 am   BACKBONE|DICT|INTERRES
    71   34  159 1    
    72   35   36 2    
    73   35   37 1    
    74   37   38 1    
    75   37   39 1    
    76   37  160 1    
    77   38  161 1    
    78   38  162 1    
    79   38  163 1    
    80   39   40 am   BACKBONE|DICT|INTERRES
    81   39  164 1    
    82   40   41 2    
    83   40   42 1    
    84   42   43 1    
    85   42   44 1    
    86   42  165 1    
    87   43  166 1    
    88   43  167 1    
    89   43  168 1    
    90   44   45 am   BACKBONE|DICT|INTERRES
    91   44  169 1    
    92   45   46 2    
    93   45   47 1    
    94   47   48 1    
    95   47   49 1    
    96   47  170 1    
    97   48  171 1    
    98   48  172 1    
    99   48  173 1    
   100   49   50 am   BACKBONE|DICT|INTERRES
   101   49  174 1    
   102   50   51 2    
   103   50   52 1    
   104   52   53 1    
   105   52   54 1    
   106   52  175 1    
   107   53  176 1    
   108   53  177 1    
   109   53  178 1    
   110   54   55 am   BACKBONE|DICT|INTERRES
   111   54  179 1    
   112   55   56 2    
   113   55   57 1    
   114   57   58 1    
   115   57   59 1    
   116   57  180 1    
   117   58  181 1    
   118   58  182 1    
   119   58  183 1    
   120   59   60 am   BACKBONE|DICT|INTERRES
   121   59  184 1    
   122   60   61 2    
   123   60   62 1    
   124   62   63 1    
   125   62   64 1    
   126   62  185 1    
   127   63  186 1    
   128   63  187 1    
   129   63  188 1    
   130   64   65 am   BACKBONE|DICT|INTERRES
   131   64  189 1    
   132   65   66 2    
   133   67   68 2    
   134   67   69 am   BACKBONE|DICT|INTERRES
   135   69   70 1    
   136   69  190 1    
   137   70   71 1    
   138   70   72 1    
   139   70  191 1    
   140   71  192 1    
   141   71  193 1    
   142   71  194 1    
   143   72   73 2    
   144   72   74 am   BACKBONE|DICT|INTERRES
   145   74   75 1    
   146   74  195 1    
   147   75   76 1    
   148   75   77 1    
   149   75  196 1    
   150   76  197 1    
   151   76  198 1    
   152   76  199 1    
   153   77   78 2    
   154   77   79 am   BACKBONE|DICT|INTERRES
   155   79   80 1    
   156   79  200 1    
   157   80   81 1    
   158   80   82 1    
   159   80  201 1    
   160   81  202 1    
   161   81  203 1    
   162   81  204 1    
   163   82   83 2    
   164   82   84 am   BACKBONE|DICT|INTERRES
   165   84   85 1    
   166   84  205 1    
   167   85   86 1    
   168   85   87 1    
   169   85  206 1    
   170   86  207 1    
   171   86  208 1    
   172   86  209 1    
   173   87   88 2    
   174   87   89 am   BACKBONE|DICT|INTERRES
   175   89   90 1    
   176   89  210 1    
   177   90   91 1    
   178   90   92 1    
   179   90  211 1    
   180   91  212 1    
   181   91  213 1    
   182   91  214 1    
   183   92   93 2    
   184   92   94 am   BACKBONE|DICT|INTERRES
   185   94   95 1    
   186   94  215 1    
   187   95   96 1    
   188   95   97 1    
   189   95  216 1    
   190   96  217 1    
   191   96  218 1    
   192   96  219 1    
   193   97   98 2    
   194   97   99 am   BACKBONE|DICT|INTERRES
   195   99  100 1    
   196   99  220 1    
   197  100  101 1    
   198  100  102 1    
   199  100  221 1    
   200  101  222 1    
   201  101  223 1    
   202  101  224 1    
   203  102  103 2    
   204  102  104 am   BACKBONE|DICT|INTERRES
   205  104  105 1    
   206  104  225 1    
   207  105  106 1    
   208  105  107 1    
   209  105  226 1    
   210  106  227 1    
   211  106  228 1    
   212  106  229 1    
   213  107  108 2    
   214  107  109 am   BACKBONE|DICT|INTERRES
   215  109  110 1    
   216  109  230 1    
   217  110  111 1    
   218  110  112 1    
   219  110  231 1    
   220  111  232 1    
   221  111  233 1    
   222  111  234 1    
   223  112  113 2    
   224  112  114 am   BACKBONE|DICT|INTERRES
   225  114  115 1    
   226  114  235 1    
   227  115  116 1    
   228  115  117 1    
   229  115  236 1    
   230  116  237 1    
   231  116  238 1    
   232  116  239 1    
   233  117  118 2    
   234  117  119 am   BACKBONE|DICT|INTERRES
   235  119  120 1    
   236  119  240 1    
   237  120  121 1    
   238  120  124 1    
   239  120  241 1    
   240  121  122 am   BACKBONE|DICT|INTERRES
   241  121  123 2    
   242  122  242 1    
   243  122  243 1    
   244  124  125 1    
   245  124  244 1    
   246  124  245 1    
   247  125  126 1    
   248  126  246 1    
   249  126  247 1    
@<TRIPOS>SUBSTRUCTURE
     1 UNK         1 GROUP             0       ****    0 ROOT    
