@<TRIPOS>MOLECULE
3R540
247   249    1
SMALL
USER_CHARGES


@<TRIPOS>ATOM
      1 CA          4.8708  -10.3382  -49.9495 C.3       0 UNK        -0.1800 
      2 C           5.6196  -11.0769  -48.8489 C.2       0 UNK         0.5000 
      3 O           6.7841  -10.7723  -48.5883 O.2       0 UNK        -0.5000 
      4 N           4.9591  -12.0508  -48.2115 N.am      1 UNK        -0.5000 
      5 CA          5.4906  -12.8393  -47.0945 C.3       1 UNK         0.1400 
      6 C6          4.5988  -14.0636  -46.7773 C.3       23 UNK        -0.0398 
      7 S7          4.4228  -15.1978  -48.1930 S.3       23 UNK        -0.2404 
      8 C8          2.6135  -15.4114  -48.2448 C.3       23 UNK        -0.0205 
      9 C9          2.1901  -16.5256  -49.1912 C.ar      23 UNK        -0.0193 
     10 C10         1.2341  -16.2842  -50.1811 C.ar      23 UNK        -0.1150 
     11 C11         0.8246  -17.3082  -51.0406 C.ar      23 UNK        -0.0193 
     12 C12         1.3825  -18.5839  -50.9088 C.ar      23 UNK        -0.1150 
     13 C13         2.3470  -18.8358  -49.9276 C.ar      23 UNK        -0.0193 
     14 C14         2.7346  -17.8072  -49.0656 C.ar      23 UNK        -0.1150 
     15 C15         3.0036  -20.2043  -49.8154 C.3       23 UNK        -0.0205 
     16 S16         2.5212  -21.0791  -48.2954 S.3       23 UNK        -0.2404 
     17 C17         0.7744  -21.4370  -48.6571 C.3       23 UNK        -0.0398 
     18 CA          0.1753  -22.4499  -47.6563 C.3       11 UNK         0.1400 
     19 N           0.0408  -21.8987  -46.3023 N.am      11 UNK        -0.5000 
     20 C          -0.3201  -22.6095  -45.2239 C.2       10 UNK         0.5000 
     21 O          -0.5376  -23.8194  -45.2444 O.2       10 UNK        -0.5000 
     22 CA         -0.5473  -21.8357  -43.9142 C.3       10 UNK         0.1400 
     23 CB          0.7839  -21.4837  -43.2341 C.3       10 UNK        -0.1800 
     24 N          -1.3518  -20.6315  -44.1194 N.am      10 UNK        -0.5000 
     25 C          -2.6224  -20.6444  -44.5493 C.2       9 UNK         0.5000 
     26 O          -3.2638  -21.6765  -44.7503 O.2       9 UNK        -0.5000 
     27 CA         -3.2770  -19.2819  -44.8400 C.3       9 UNK         0.1400 
     28 CB         -3.8417  -18.6689  -43.5503 C.3       9 UNK        -0.1800 
     29 N          -2.3638  -18.3335  -45.4793 N.am      9 UNK        -0.5000 
     30 C          -1.8079  -18.4983  -46.6889 C.2       8 UNK         0.5000 
     31 O          -2.0404  -19.4583  -47.4222 O.2       8 UNK        -0.5000 
     32 CA         -0.7690  -17.4476  -47.1243 C.3       8 UNK         0.1400 
     33 CB         -1.4501  -16.1687  -47.6312 C.3       8 UNK        -0.1800 
     34 N           0.1689  -17.1177  -46.0493 N.am      8 UNK        -0.5000 
     35 C           1.0110  -18.0033  -45.4969 C.2       7 UNK         0.5000 
     36 O           1.1050  -19.1746  -45.8603 O.2       7 UNK        -0.5000 
     37 CA          1.8415  -17.5187  -44.2970 C.3       7 UNK         0.1400 
     38 CB          3.1159  -16.7899  -44.7489 C.3       7 UNK        -0.1800 
     39 N           1.0590  -16.6638  -43.4037 N.am      7 UNK        -0.5000 
     40 C           0.0721  -17.1170  -42.6171 C.2       6 UNK         0.5000 
     41 O          -0.2271  -18.3065  -42.5145 O.2       6 UNK        -0.5000 
     42 CA         -0.7544  -16.0615  -41.8615 C.3       6 UNK         0.1400 
     43 CB         -0.0884  -15.6879  -40.5303 C.3       6 UNK        -0.1800 
     44 N          -0.9826  -14.8568  -42.6626 N.am      6 UNK        -0.5000 
     45 C          -1.7806  -14.8301  -43.7405 C.2       5 UNK         0.5000 
     46 O          -2.4014  -15.8110  -44.1457 O.2       5 UNK        -0.5000 
     47 CA         -1.8948  -13.5095  -44.5222 C.3       5 UNK         0.1400 
     48 CB         -3.1092  -12.7047  -44.0364 C.3       5 UNK        -0.1800 
     49 N          -0.7046  -12.6651  -44.4542 N.am      5 UNK        -0.5000 
     50 C           0.5201  -12.9979  -44.8821 C.2       4 UNK         0.5000 
     51 O           0.8047  -14.0992  -45.3600 O.2       4 UNK        -0.5000 
     52 CA          1.6200  -11.9252  -44.7338 C.3       4 UNK         0.1400 
     53 CB          1.1009  -10.5392  -44.2907 C.3       4 UNK        -0.1800 
     54 N           2.7058  -12.3466  -43.8466 N.am      4 UNK        -0.5000 
     55 C           2.6120  -12.8277  -42.5964 C.2       3 UNK         0.5000 
     56 O           1.5412  -13.0315  -42.0221 O.2       3 UNK        -0.5000 
     57 CA          3.9325  -13.1443  -41.8604 C.3       3 UNK         0.1400 
     58 CB          3.9754  -14.6127  -41.4097 C.3       3 UNK        -0.1800 
     59 N           5.1157  -12.8708  -42.6823 N.am      3 UNK        -0.5000 
     60 C           5.7905  -11.7128  -42.6934 C.2       2 UNK         0.5000 
     61 O           5.5319  -10.7596  -41.9583 O.2       2 UNK        -0.5000 
     62 CA          6.9246  -11.5885  -43.7315 C.3       2 UNK         0.1400 
     63 CB          8.2474  -12.1090  -43.1490 C.3       2 UNK        -0.1800 
     64 N           6.6454  -12.2833  -44.9950 N.am      2 UNK        -0.5000 
     65 C           5.6429  -11.9715  -45.8285 C.2       1 UNK         0.5000 
     66 O           4.8191  -11.0838  -45.5973 O.2       1 UNK        -0.5000 
     67 C          -1.1600  -23.0016  -48.1912 C.2       11 UNK         0.5000 
     68 O          -1.1793  -24.1065  -48.7353 O.2       11 UNK        -0.5000 
     69 N          -2.2525  -22.2481  -47.9976 N.am      12 UNK        -0.5000 
     70 CA         -3.6128  -22.6334  -48.3750 C.3       12 UNK         0.1400 
     71 CB         -4.5862  -21.4906  -48.0542 C.3       12 UNK        -0.1800 
     72 C          -4.0691  -23.9542  -47.7316 C.2       12 UNK         0.5000 
     73 O          -4.6832  -24.7749  -48.4137 O.2       12 UNK        -0.5000 
     74 N          -3.7215  -24.1494  -46.4542 N.am      13 UNK        -0.5000 
     75 CA         -3.9529  -25.3883  -45.7204 C.3       13 UNK         0.1400 
     76 CB         -3.8349  -25.1152  -44.2123 C.3       13 UNK        -0.1800 
     77 C          -2.9989  -26.5166  -46.1562 C.2       13 UNK         0.5000 
     78 O          -3.4654  -27.6000  -46.5093 O.2       13 UNK        -0.5000 
     79 N          -1.6851  -26.2543  -46.1059 N.am      14 UNK        -0.5000 
     80 CA         -0.6301  -27.2572  -46.2716 C.3       14 UNK         0.1400 
     81 CB          0.7159  -26.6708  -45.8189 C.3       14 UNK        -0.1800 
     82 C          -0.5121  -27.8203  -47.6966 C.2       14 UNK         0.5000 
     83 O          -0.3448  -29.0305  -47.8539 O.2       14 UNK        -0.5000 
     84 N          -0.5971  -26.9445  -48.7056 N.am      15 UNK        -0.5000 
     85 CA         -0.4888  -27.3138  -50.1196 C.3       15 UNK         0.1400 
     86 CB          0.2238  -26.1799  -50.8769 C.3       15 UNK        -0.1800 
     87 C          -1.8594  -27.6110  -50.7558 C.2       15 UNK         0.5000 
     88 O          -1.9054  -27.9699  -51.9329 O.2       15 UNK        -0.5000 
     89 N          -2.9454  -27.4182  -49.9891 N.am      16 UNK        -0.5000 
     90 CA         -4.3519  -27.4633  -50.4091 C.3       16 UNK         0.1400 
     91 CB         -4.7558  -28.8793  -50.8691 C.3       16 UNK        -0.1800 
     92 C          -4.6982  -26.3702  -51.4454 C.2       16 UNK         0.5000 
     93 O          -5.6361  -26.5278  -52.2289 O.2       16 UNK        -0.5000 
     94 N          -3.9412  -25.2633  -51.4171 N.am      17 UNK        -0.5000 
     95 CA         -4.0714  -24.1165  -52.3151 C.3       17 UNK         0.1400 
     96 CB         -2.7474  -23.3334  -52.3323 C.3       17 UNK        -0.1800 
     97 C          -5.2731  -23.2056  -51.9936 C.2       17 UNK         0.5000 
     98 O          -5.5011  -22.2431  -52.7248 O.2       17 UNK        -0.5000 
     99 N          -6.0468  -23.5258  -50.9446 N.am      18 UNK        -0.5000 
    100 CA        -7.2822  -22.8477  -50.5312 C.3       18 UNK         0.1400 
    101 CB        -7.8440  -23.5538  -49.2868 C.3       18 UNK        -0.1800 
    102 C         -8.3721  -22.7607  -51.6204 C.2       18 UNK         0.5000 
    103 O         -9.2182  -21.8697  -51.5527 O.2       18 UNK        -0.5000 
    104 N         -8.3227  -23.6614  -52.6123 N.am      19 UNK        -0.5000 
    105 CA        -9.1655  -23.6299  -53.8089 C.3       19 UNK         0.1400 
    106 CB        -8.9943  -24.9508  -54.5743 C.3       19 UNK        -0.1800 
    107 C         -8.8648  -22.4281  -54.7299 C.2       19 UNK         0.5000 
    108 O         -9.7779  -21.9351  -55.3933 O.2       19 UNK        -0.5000 
    109 N         -7.6027  -21.9774  -54.7476 N.am      20 UNK        -0.5000 
    110 CA        -7.1483  -20.7889  -55.4696 C.3       20 UNK         0.1400 
    111 CB        -5.7622  -21.0645  -56.0739 C.3       20 UNK        -0.1800 
    112 C         -7.0905  -19.5621  -54.5437 C.2       20 UNK         0.5000 
    113 O         -7.3741  -18.4519  -54.9949 O.2       20 UNK        -0.5000 
    114 N         -6.7060  -19.7812  -53.2758 N.am      21 UNK        -0.5000 
    115 CA        -6.5840  -18.7986  -52.1913 C.3       21 UNK         0.1400 
    116 CB        -7.9802  -18.3190  -51.7448 C.3       21 UNK        -0.1800 
    117 C         -5.6290  -17.6349  -52.5359 C.2       21 UNK         0.5000 
    118 O         -5.9095  -16.4825  -52.2017 O.2       21 UNK        -0.5000 
    119 N         -4.5350  -17.9680  -53.2352 N.am      22 UNK        -0.5000 
    120 CA        -3.5466  -17.0413  -53.8178 C.3       22 UNK         0.1400 
    121 C         -4.0799  -16.1852  -55.0111 C.2       22 UNK         0.5000 
    122 N         -5.2671  -16.4368  -55.5511 N.am      22 UNK        -0.7600 
    123 O         -3.3862  -15.2917  -55.4892 O.2       22 UNK        -0.5000 
    124 C124       -2.8039  -16.1729  -52.7608 C.3       23 UNK        -0.0398 
    125 S125       -1.9009  -17.1526  -51.5093 S.3       23 UNK        -0.2404 
    126 C126       -0.1947  -17.0151  -52.1297 C.3       23 UNK        -0.0205 
    127 H127        5.3981  -10.4425  -50.8977 H         1 UNK         0.0600 
    128 H128        4.8038   -9.2770  -49.7100 H         1 UNK         0.0600 
    129 H129        3.8586  -10.7218  -50.0796 H         1 UNK         0.0600 
    130 H130        4.0050  -12.2514  -48.4715 H         1 UNK         0.3000 
    131 H131        6.4809  -13.1991  -47.3825 H         1 UNK         0.0600 
    132 H132        3.6102  -13.7403  -46.4459 H         1 UNK         0.0800 
    133 H133        5.0222  -14.6413  -45.9538 H         1 UNK         0.0800 
    134 H134        2.2407  -15.6477  -47.2502 H         1 UNK         0.0800 
    135 H135        2.1534  -14.4638  -48.5287 H         1 UNK         0.0800 
    136 H136        0.8023  -15.2985  -50.2836 H         1 UNK         0.1150 
    137 H137        1.0767  -19.3742  -51.5799 H         1 UNK         0.1150 
    138 H138        3.4714  -18.0043  -48.2996 H         1 UNK         0.1150 
    139 H139        2.7705  -20.8230  -50.6833 H         1 UNK         0.0800 
    140 H140        4.0870  -20.0771  -49.8161 H         1 UNK         0.0800 
    141 H141        0.7199  -21.8244  -49.6766 H         1 UNK         0.0800 
    142 H142        0.2114  -20.5019  -48.6491 H         1 UNK         0.0800 
    143 H143        0.8565  -23.3012  -47.5900 H         1 UNK         0.0600 
    144 H144        0.2459  -20.9088  -46.1936 H         1 UNK         0.3000 
    145 H145       -1.1025  -22.4894  -43.2381 H         1 UNK         0.0600 
    146 H146        0.6188  -20.9841  -42.2795 H         1 UNK         0.0600 
    147 H147        1.3662  -22.3837  -43.0335 H         1 UNK         0.0600 
    148 H148        1.3979  -20.8301  -43.8522 H         1 UNK         0.0600 
    149 H149       -0.9034  -19.7428  -43.9293 H         1 UNK         0.3000 
    150 H150       -4.1094  -19.4511  -45.5249 H         1 UNK         0.0600 
    151 H151       -4.5327  -19.3559  -43.0602 H         1 UNK         0.0600 
    152 H152       -4.3904  -17.7502  -43.7585 H         1 UNK         0.0600 
    153 H153       -3.0512  -18.4323  -42.8375 H         1 UNK         0.0600 
    154 H154       -2.1645  -17.4825  -44.9595 H         1 UNK         0.3000 
    155 H155       -0.1924  -17.8735  -47.9482 H         1 UNK         0.0600 
    156 H156       -2.0942  -15.7260  -46.8728 H         1 UNK         0.0600 
    157 H157       -2.0717  -16.3823  -48.5012 H         1 UNK         0.0600 
    158 H158       -0.7163  -15.4202  -47.9307 H         1 UNK         0.0600 
    159 H159        0.1648  -16.1653  -45.7047 H         1 UNK         0.3000 
    160 H160        2.1502  -18.4077  -43.7429 H         1 UNK         0.0600 
    161 H161        2.9155  -15.7545  -45.0197 H         1 UNK         0.0600 
    162 H162        3.5703  -17.2786  -45.6123 H         1 UNK         0.0600 
    163 H163        3.8642  -16.7902  -43.9581 H         1 UNK         0.0600 
    164 H164        1.1968  -15.6660  -43.4823 H         1 UNK         0.3000 
    165 H165       -1.7260  -16.5052  -41.6336 H         1 UNK         0.0600 
    166 H166       -0.6961  -14.9769  -39.9706 H         1 UNK         0.0600 
    167 H167        0.0453  -16.5689  -39.9012 H         1 UNK         0.0600 
    168 H168        0.8934  -15.2427  -40.6819 H         1 UNK         0.0600 
    169 H169       -0.4576  -14.0277  -42.4105 H         1 UNK         0.3000 
    170 H170       -2.0540  -13.7621  -45.5716 H         1 UNK         0.0600 
    171 H171       -4.0223  -13.2982  -44.1005 H         1 UNK         0.0600 
    172 H172       -2.9941  -12.3904  -42.9982 H         1 UNK         0.0600 
    173 H173       -3.2609  -11.8123  -44.6438 H         1 UNK         0.0600 
    174 H174       -0.8304  -11.7491  -44.0492 H         1 UNK         0.3000 
    175 H175        2.0577  -11.8084  -45.7260 H         1 UNK         0.0600 
    176 H176        0.6792  -10.5594  -43.2850 H         1 UNK         0.0600 
    177 H177        1.9101   -9.8086  -44.2901 H         1 UNK         0.0600 
    178 H178        0.3364  -10.1633  -44.9721 H         1 UNK         0.0600 
    179 H179        3.6330  -12.1679  -44.2091 H         1 UNK         0.3000 
    180 H180        3.9571  -12.5212  -40.9641 H         1 UNK         0.0600 
    181 H181        3.8461  -15.2954  -42.2473 H         1 UNK         0.0600 
    182 H182        3.1865  -14.8235  -40.6882 H         1 UNK         0.0600 
    183 H183        4.9225  -14.8500  -40.9248 H         1 UNK         0.0600 
    184 H184        5.4120  -13.6054  -43.3077 H         1 UNK         0.3000 
    185 H185        7.0468  -10.5268  -43.9567 H         1 UNK         0.0600 
    186 H186        8.4938  -11.5947  -42.2190 H         1 UNK         0.0600 
    187 H187        8.2002  -13.1766  -42.9310 H         1 UNK         0.0600 
    188 H188        9.0751  -11.9426  -43.8388 H         1 UNK         0.0600 
    189 H189        7.2826  -13.0262  -45.2457 H         1 UNK         0.3000 
    190 H190       -2.1437  -21.3230  -47.5877 H         1 UNK         0.3000 
    191 H191       -3.6225  -22.7801  -49.4529 H         1 UNK         0.0600 
    192 H192       -4.3111  -20.5776  -48.5825 H         1 UNK         0.0600 
    193 H193       -5.6021  -21.7421  -48.3521 H         1 UNK         0.0600 
    194 H194       -4.6100  -21.2691  -46.9888 H         1 UNK         0.0600 
    195 H195       -3.2495  -23.4015  -45.9573 H         1 UNK         0.3000 
    196 H196       -4.9743  -25.7200  -45.9198 H         1 UNK         0.0600 
    197 H197       -4.0035  -26.0251  -43.6351 H         1 UNK         0.0600 
    198 H198       -4.5736  -24.3818  -43.8883 H         1 UNK         0.0600 
    199 H199       -2.8496  -24.7322  -43.9445 H         1 UNK         0.0600 
    200 H200       -1.3758  -25.3269  -45.8192 H         1 UNK         0.3000 
    201 H201       -0.8664  -28.0932  -45.6099 H         1 UNK         0.0600 
    202 H202        0.6763  -26.3511  -44.7775 H         1 UNK         0.0600 
    203 H203        1.0024  -25.8091  -46.4232 H         1 UNK         0.0600 
    204 H204        1.5136  -27.4101  -45.9014 H         1 UNK         0.0600 
    205 H205       -0.7597  -25.9595  -48.5089 H         1 UNK         0.3000 
    206 H206        0.1205  -28.2142  -50.2213 H         1 UNK         0.0600 
    207 H207        1.1723  -25.9226  -50.4054 H         1 UNK         0.0600 
    208 H208        0.4421  -26.4752  -51.9039 H         1 UNK         0.0600 
    209 H209       -0.3847  -25.2768  -50.9235 H         1 UNK         0.0600 
    210 H210       -2.7901  -27.1408  -49.0294 H         1 UNK         0.3000 
    211 H211       -4.9386  -27.2326  -49.5191 H         1 UNK         0.0600 
    212 H212       -4.2785  -29.1547  -51.8098 H         1 UNK         0.0600 
    213 H213       -5.8336  -28.9468  -51.0205 H         1 UNK         0.0600 
    214 H214       -4.4868  -29.6273  -50.1233 H         1 UNK         0.0600 
    215 H215       -3.2180  -25.2083  -50.7144 H         1 UNK         0.3000 
    216 H216       -4.2392  -24.4967  -53.3248 H         1 UNK         0.0600 
    217 H217       -2.8077  -22.4712  -52.9980 H         1 UNK         0.0600 
    218 H218       -1.9310  -23.9591  -52.6934 H         1 UNK         0.0600 
    219 H219       -2.4675  -22.9660  -51.3464 H         1 UNK         0.0600 
    220 H220       -5.7630  -24.3140  -50.3768 H         1 UNK         0.3000 
    221 H221       -7.0202  -21.8227  -50.2634 H         1 UNK         0.0600 
    222 H222       -8.0900  -24.5956  -49.4957 H         1 UNK         0.0600 
    223 H223       -7.1348  -23.5399  -48.4604 H         1 UNK         0.0600 
    224 H224       -8.7542  -23.0655  -48.9360 H         1 UNK         0.0600 
    225 H225       -7.6114  -24.3777  -52.5745 H         1 UNK         0.3000 
    226 H226      -10.2068  -23.5510  -53.4897 H         1 UNK         0.0600 
    227 H227       -9.2761  -25.8039  -53.9568 H         1 UNK         0.0600 
    228 H228       -9.6254  -24.9716  -55.4638 H         1 UNK         0.0600 
    229 H229       -7.9632  -25.0974  -54.8989 H         1 UNK         0.0600 
    230 H230       -6.9232  -22.4101  -54.1332 H         1 UNK         0.3000 
    231 H231       -7.8337  -20.5598  -56.2883 H         1 UNK         0.0600 
    232 H232       -5.7983  -21.9004  -56.7725 H         1 UNK         0.0600 
    233 H233       -5.0239  -21.3019  -55.3070 H         1 UNK         0.0600 
    234 H234       -5.3968  -20.1964  -56.6242 H         1 UNK         0.0600 
    235 H235       -6.4009  -20.7224  -53.0376 H         1 UNK         0.3000 
    236 H236       -6.1305  -19.3253  -51.3503 H         1 UNK         0.0600 
    237 H237       -7.9130  -17.6824  -50.8620 H         1 UNK         0.0600 
    238 H238       -8.4791  -17.7454  -52.5265 H         1 UNK         0.0600 
    239 H239       -8.6219  -19.1612  -51.4870 H         1 UNK         0.0600 
    240 H240       -4.4037  -18.9421  -53.4650 H         1 UNK         0.3000 
    241 H241       -2.7961  -17.6865  -54.2754 H         1 UNK         0.0600 
    242 H242       -5.5773  -15.8757  -56.3284 H         1 UNK         0.3800 
    243 H243       -5.8808  -17.1574  -55.1865 H         1 UNK         0.3800 
    244 H244       -3.5050  -15.5209  -52.2394 H         1 UNK         0.0800 
    245 H245       -2.0992  -15.4981  -53.2479 H         1 UNK         0.0800 
    246 H246       -0.0143  -16.0108  -52.5154 H         1 UNK         0.0800 
    247 H247       -0.0623  -17.6953  -52.9724 H         1 UNK         0.0800 
@<TRIPOS>BOND
     1    1    2 1    
     2    1  127 1    
     3    1  128 1    
     4    1  129 1    
     5    2    3 2    
     6    2    4 am   BACKBONE|DICT|INTERRES
     7    4    5 1    
     8    4  130 1    
     9    5    6 1    
    10    5   65 1    
    11    5  131 1    
    12    6    7 1    
    13    6  132 1    
    14    6  133 1    
    15    7    8 1    
    16    8    9 1    
    17    8  134 1    
    18    8  135 1    
    19    9   10 ar   
    20    9   14 ar   
    21   10   11 ar   
    22   10  136 1    
    23   11   12 ar   
    24   11  126 1    
    25   12   13 ar   
    26   12  137 1    
    27   13   14 ar   
    28   13   15 1    
    29   14  138 1    
    30   15   16 1    
    31   15  139 1    
    32   15  140 1    
    33   16   17 1    
    34   17   18 1    
    35   17  141 1    
    36   17  142 1    
    37   18   19 1    
    38   18   67 1    
    39   18  143 1    
    40   19   20 am   BACKBONE|DICT|INTERRES
    41   19  144 1    
    42   20   21 2    
    43   20   22 1    
    44   22   23 1    
    45   22   24 1    
    46   22  145 1    
    47   23  146 1    
    48   23  147 1    
    49   23  148 1    
    50   24   25 am   BACKBONE|DICT|INTERRES
    51   24  149 1    
    52   25   26 2    
    53   25   27 1    
    54   27   28 1    
    55   27   29 1    
    56   27  150 1    
    57   28  151 1    
    58   28  152 1    
    59   28  153 1    
    60   29   30 am   BACKBONE|DICT|INTERRES
    61   29  154 1    
    62   30   31 2    
    63   30   32 1    
    64   32   33 1    
    65   32   34 1    
    66   32  155 1    
    67   33  156 1    
    68   33  157 1    
    69   33  158 1    
    70   34   35 am   BACKBONE|DICT|INTERRES
    71   34  159 1    
    72   35   36 2    
    73   35   37 1    
    74   37   38 1    
    75   37   39 1    
    76   37  160 1    
    77   38  161 1    
    78   38  162 1    
    79   38  163 1    
    80   39   40 am   BACKBONE|DICT|INTERRES
    81   39  164 1    
    82   40   41 2    
    83   40   42 1    
    84   42   43 1    
    85   42   44 1    
    86   42  165 1    
    87   43  166 1    
    88   43  167 1    
    89   43  168 1    
    90   44   45 am   BACKBONE|DICT|INTERRES
    91   44  169 1    
    92   45   46 2    
    93   45   47 1    
    94   47   48 1    
    95   47   49 1    
    96   47  170 1    
    97   48  171 1    
    98   48  172 1    
    99   48  173 1    
   100   49   50 am   BACKBONE|DICT|INTERRES
   101   49  174 1    
   102   50   51 2    
   103   50   52 1    
   104   52   53 1    
   105   52   54 1    
   106   52  175 1    
   107   53  176 1    
   108   53  177 1    
   109   53  178 1    
   110   54   55 am   BACKBONE|DICT|INTERRES
   111   54  179 1    
   112   55   56 2    
   113   55   57 1    
   114   57   58 1    
   115   57   59 1    
   116   57  180 1    
   117   58  181 1    
   118   58  182 1    
   119   58  183 1    
   120   59   60 am   BACKBONE|DICT|INTERRES
   121   59  184 1    
   122   60   61 2    
   123   60   62 1    
   124   62   63 1    
   125   62   64 1    
   126   62  185 1    
   127   63  186 1    
   128   63  187 1    
   129   63  188 1    
   130   64   65 am   BACKBONE|DICT|INTERRES
   131   64  189 1    
   132   65   66 2    
   133   67   68 2    
   134   67   69 am   BACKBONE|DICT|INTERRES
   135   69   70 1    
   136   69  190 1    
   137   70   71 1    
   138   70   72 1    
   139   70  191 1    
   140   71  192 1    
   141   71  193 1    
   142   71  194 1    
   143   72   73 2    
   144   72   74 am   BACKBONE|DICT|INTERRES
   145   74   75 1    
   146   74  195 1    
   147   75   76 1    
   148   75   77 1    
   149   75  196 1    
   150   76  197 1    
   151   76  198 1    
   152   76  199 1    
   153   77   78 2    
   154   77   79 am   BACKBONE|DICT|INTERRES
   155   79   80 1    
   156   79  200 1    
   157   80   81 1    
   158   80   82 1    
   159   80  201 1    
   160   81  202 1    
   161   81  203 1    
   162   81  204 1    
   163   82   83 2    
   164   82   84 am   BACKBONE|DICT|INTERRES
   165   84   85 1    
   166   84  205 1    
   167   85   86 1    
   168   85   87 1    
   169   85  206 1    
   170   86  207 1    
   171   86  208 1    
   172   86  209 1    
   173   87   88 2    
   174   87   89 am   BACKBONE|DICT|INTERRES
   175   89   90 1    
   176   89  210 1    
   177   90   91 1    
   178   90   92 1    
   179   90  211 1    
   180   91  212 1    
   181   91  213 1    
   182   91  214 1    
   183   92   93 2    
   184   92   94 am   BACKBONE|DICT|INTERRES
   185   94   95 1    
   186   94  215 1    
   187   95   96 1    
   188   95   97 1    
   189   95  216 1    
   190   96  217 1    
   191   96  218 1    
   192   96  219 1    
   193   97   98 2    
   194   97   99 am   BACKBONE|DICT|INTERRES
   195   99  100 1    
   196   99  220 1    
   197  100  101 1    
   198  100  102 1    
   199  100  221 1    
   200  101  222 1    
   201  101  223 1    
   202  101  224 1    
   203  102  103 2    
   204  102  104 am   BACKBONE|DICT|INTERRES
   205  104  105 1    
   206  104  225 1    
   207  105  106 1    
   208  105  107 1    
   209  105  226 1    
   210  106  227 1    
   211  106  228 1    
   212  106  229 1    
   213  107  108 2    
   214  107  109 am   BACKBONE|DICT|INTERRES
   215  109  110 1    
   216  109  230 1    
   217  110  111 1    
   218  110  112 1    
   219  110  231 1    
   220  111  232 1    
   221  111  233 1    
   222  111  234 1    
   223  112  113 2    
   224  112  114 am   BACKBONE|DICT|INTERRES
   225  114  115 1    
   226  114  235 1    
   227  115  116 1    
   228  115  117 1    
   229  115  236 1    
   230  116  237 1    
   231  116  238 1    
   232  116  239 1    
   233  117  118 2    
   234  117  119 am   BACKBONE|DICT|INTERRES
   235  119  120 1    
   236  119  240 1    
   237  120  121 1    
   238  120  124 1    
   239  120  241 1    
   240  121  122 am   BACKBONE|DICT|INTERRES
   241  121  123 2    
   242  122  242 1    
   243  122  243 1    
   244  124  125 1    
   245  124  244 1    
   246  124  245 1    
   247  125  126 1    
   248  126  246 1    
   249  126  247 1    
@<TRIPOS>SUBSTRUCTURE
     1 UNK         1 GROUP             0       ****    0 ROOT    
