@<TRIPOS>MOLECULE
3R540
247   249    1
SMALL
USER_CHARGES


@<TRIPOS>ATOM
      1 CA          0.0328  -10.6171  -44.3839 C.3       0 UNK        -0.1800 
      2 C          -0.8829  -10.9107  -45.5618 C.2       0 UNK         0.5000 
      3 O          -1.6586  -10.0457  -45.9694 O.2       0 UNK        -0.5000 
      4 N          -0.7862  -12.1254  -46.1124 N.am      1 UNK        -0.5000 
      5 CA         -1.4967  -12.5430  -47.3268 C.3       1 UNK         0.1400 
      6 C6         -1.7192  -14.0722  -47.3827 C.3       23 UNK        -0.0398 
      7 S7         -2.7742  -14.6615  -46.0174 S.3       23 UNK        -0.2404 
      8 C8         -1.9587  -16.2316  -45.5931 C.3       23 UNK        -0.0205 
      9 C9         -2.0858  -17.2643  -46.7023 C.ar      23 UNK        -0.0193 
     10 C10        -3.3365  -17.7974  -47.0270 C.ar      23 UNK        -0.1150 
     11 C11        -3.4589  -18.7651  -48.0271 C.ar      23 UNK        -0.0193 
     12 C12        -2.3127  -19.2106  -48.6905 C.ar      23 UNK        -0.1150 
     13 C13        -1.0500  -18.7059  -48.3595 C.ar      23 UNK        -0.0193 
     14 C14        -0.9493  -17.7104  -47.3823 C.ar      23 UNK        -0.1150 
     15 C15         0.1785  -19.2509  -49.0843 C.3       23 UNK        -0.0205 
     16 S16         1.6926  -19.4722  -48.0824 S.3       23 UNK        -0.2404 
     17 C17         1.1416  -20.2551  -46.5285 C.3       23 UNK        -0.0398 
     18 CA          0.7606  -21.7556  -46.6316 C.3       11 UNK         0.1400 
     19 N           1.1006  -22.4828  -45.4052 N.am      11 UNK        -0.5000 
     20 C           1.0307  -23.8120  -45.2424 C.2       10 UNK         0.5000 
     21 O           0.7337  -24.6007  -46.1401 O.2       10 UNK        -0.5000 
     22 CA          1.2894  -24.3380  -43.8172 C.3       10 UNK         0.1400 
     23 CB          2.7939  -24.5294  -43.5759 C.3       10 UNK        -0.1800 
     24 N           0.7396  -23.4578  -42.7814 N.am      10 UNK        -0.5000 
     25 C          -0.5705  -23.2448  -42.5909 C.2       9 UNK         0.5000 
     26 O          -1.4502  -23.8024  -43.2434 O.2       9 UNK        -0.5000 
     27 CA         -0.9707  -22.2033  -41.5296 C.3       9 UNK         0.1400 
     28 CB         -1.1070  -22.8648  -40.1507 C.3       9 UNK        -0.1800 
     29 N          -0.0537  -21.0657  -41.4302 N.am      9 UNK        -0.5000 
     30 C           0.2662  -20.2273  -42.4234 C.2       8 UNK         0.5000 
     31 O          -0.1609  -20.3438  -43.5741 O.2       8 UNK        -0.5000 
     32 CA          1.2242  -19.0761  -42.0526 C.3       8 UNK         0.1400 
     33 CB          1.9276  -18.4816  -43.2852 C.3       8 UNK        -0.1800 
     34 N           0.5393  -18.0079  -41.3194 N.am      8 UNK        -0.5000 
     35 C           0.1365  -18.0894  -40.0405 C.2       7 UNK         0.5000 
     36 O           0.3143  -19.0929  -39.3469 O.2       7 UNK        -0.5000 
     37 CA         -0.5481  -16.8627  -39.3983 C.3       7 UNK         0.1400 
     38 CB          0.2717  -16.3525  -38.2014 C.3       7 UNK        -0.1800 
     39 N          -0.7497  -15.7468  -40.3205 N.am      7 UNK        -0.5000 
     40 C          -1.7673  -15.6165  -41.1815 C.2       6 UNK         0.5000 
     41 O          -2.6948  -16.4208  -41.2709 O.2       6 UNK        -0.5000 
     42 CA         -1.7270  -14.3867  -42.1159 C.3       6 UNK         0.1400 
     43 CB         -2.6453  -13.2736  -41.5903 C.3       6 UNK        -0.1800 
     44 N          -0.3814  -13.8354  -42.3236 N.am      6 UNK        -0.5000 
     45 C           0.6291  -14.5039  -42.8930 C.2       5 UNK         0.5000 
     46 O           0.5359  -15.6707  -43.2745 O.2       5 UNK        -0.5000 
     47 CA          1.9820  -13.7767  -42.9752 C.3       5 UNK         0.1400 
     48 CB          2.7230  -13.8916  -41.6337 C.3       5 UNK        -0.1800 
     49 N           2.8299  -14.3376  -44.0251 N.am      5 UNK        -0.5000 
     50 C           2.6130  -14.2056  -45.3381 C.2       4 UNK         0.5000 
     51 O           1.7108  -13.5191  -45.8293 O.2       4 UNK        -0.5000 
     52 CA          3.5488  -15.0052  -46.2588 C.3       4 UNK         0.1400 
     53 CB          2.8104  -16.2199  -46.8398 C.3       4 UNK        -0.1800 
     54 N           4.0227  -14.1677  -47.3549 N.am      4 UNK        -0.5000 
     55 C           4.9793  -13.2337  -47.2526 C.2       3 UNK         0.5000 
     56 O           5.6690  -13.0655  -46.2462 O.2       3 UNK        -0.5000 
     57 CA          5.1794  -12.3186  -48.4795 C.3       3 UNK         0.1400 
     58 CB          6.2542  -12.8922  -49.4154 C.3       3 UNK        -0.1800 
     59 N           3.9341  -12.1329  -49.2299 N.am      3 UNK        -0.5000 
     60 C           2.8839  -11.4370  -48.7739 C.2       2 UNK         0.5000 
     61 O           2.9261  -10.7263  -47.7675 O.2       2 UNK        -0.5000 
     62 CA          1.5437  -11.6140  -49.5043 C.3       2 UNK         0.1400 
     63 CB          1.5864  -12.6022  -50.6932 C.3       2 UNK        -0.1800 
     64 N           0.5986  -12.0680  -48.4922 N.am      2 UNK        -0.5000 
     65 C          -0.7356  -12.0698  -48.5806 C.2       1 UNK         0.5000 
     66 O          -1.3615  -11.7092  -49.5781 O.2       1 UNK        -0.5000 
     67 C          -0.7360  -21.9240  -46.9464 C.2       11 UNK         0.5000 
     68 O          -1.0883  -22.2633  -48.0766 O.2       11 UNK        -0.5000 
     69 N          -1.5746  -21.7176  -45.9201 N.am      12 UNK        -0.5000 
     70 CA         -3.0286  -21.8323  -45.9892 C.3       12 UNK         0.1400 
     71 CB         -3.6511  -21.2772  -44.7006 C.3       12 UNK        -0.1800 
     72 C          -3.5162  -23.2612  -46.2795 C.2       12 UNK         0.5000 
     73 O          -4.4298  -23.4296  -47.0864 O.2       12 UNK        -0.5000 
     74 N          -2.8817  -24.2601  -45.6502 N.am      13 UNK        -0.5000 
     75 CA         -3.1555  -25.6841  -45.8514 C.3       13 UNK         0.1400 
     76 CB         -2.3876  -26.5086  -44.8070 C.3       13 UNK        -0.1800 
     77 C          -2.8158  -26.1628  -47.2738 C.2       13 UNK         0.5000 
     78 O          -3.5799  -26.9363  -47.8523 O.2       13 UNK        -0.5000 
     79 N          -1.6915  -25.6785  -47.8193 N.am      14 UNK        -0.5000 
     80 CA         -1.2757  -25.9349  -49.1989 C.3       14 UNK         0.1400 
     81 CB          0.2276  -25.6434  -49.3261 C.3       14 UNK        -0.1800 
     82 C          -2.0622  -25.0990  -50.2266 C.2       14 UNK         0.5000 
     83 O          -2.0973  -25.4648  -51.4013 O.2       14 UNK        -0.5000 
     84 N          -2.6200  -23.9636  -49.7832 N.am      15 UNK        -0.5000 
     85 CA         -3.2766  -22.9163  -50.5711 C.3       15 UNK         0.1400 
     86 CB         -4.6100  -23.4249  -51.1454 C.3       15 UNK        -0.1800 
     87 C          -2.3361  -22.3133  -51.6365 C.2       15 UNK         0.5000 
     88 O          -2.7592  -22.0454  -52.7642 O.2       15 UNK        -0.5000 
     89 N          -1.0593  -22.1577  -51.2505 N.am      16 UNK        -0.5000 
     90 CA          0.0921  -21.7905  -52.0862 C.3       16 UNK         0.1400 
     91 CB         -0.0493  -20.3516  -52.6234 C.3       16 UNK        -0.1800 
     92 C           0.3434  -22.8154  -53.2137 C.2       16 UNK         0.5000 
     93 O           0.5778  -22.4286  -54.3575 O.2       16 UNK        -0.5000 
     94 N           0.2329  -24.1100  -52.8793 N.am      17 UNK        -0.5000 
     95 CA          0.2291  -25.2573  -53.7991 C.3       17 UNK         0.1400 
     96 CB          1.6083  -25.4432  -54.4653 C.3       17 UNK        -0.1800 
     97 C          -0.9354  -25.1670  -54.8102 C.2       17 UNK         0.5000 
     98 O          -0.7461  -25.3737  -56.0097 O.2       17 UNK        -0.5000 
     99 N          -2.1133  -24.8046  -54.2828 N.am      18 UNK        -0.5000 
    100 CA        -3.3809  -24.5231  -54.9646 C.3       18 UNK         0.1400 
    101 CB        -3.9066  -25.7809  -55.6856 C.3       18 UNK        -0.1800 
    102 C         -3.3763  -23.2833  -55.8880 C.2       18 UNK         0.5000 
    103 O         -4.3828  -23.0429  -56.5565 O.2       18 UNK        -0.5000 
    104 N         -2.2849  -22.5030  -55.9150 N.am      19 UNK        -0.5000 
    105 CA        -2.1557  -21.3132  -56.7590 C.3       19 UNK         0.1400 
    106 CB        -0.6728  -20.9553  -56.9346 C.3       19 UNK        -0.1800 
    107 C         -2.9371  -20.1036  -56.2169 C.2       19 UNK         0.5000 
    108 O         -3.4355  -19.3081  -57.0147 O.2       19 UNK        -0.5000 
    109 N         -3.0330  -19.9791  -54.8854 N.am      20 UNK        -0.5000 
    110 CA        -3.7959  -18.9186  -54.2240 C.3       20 UNK         0.1400 
    111 CB        -3.1711  -18.5883  -52.8588 C.3       20 UNK        -0.1800 
    112 C         -5.2696  -19.3149  -54.0589 C.2       20 UNK         0.5000 
    113 O         -6.1399  -18.4469  -54.1406 O.2       20 UNK        -0.5000 
    114 N         -5.5143  -20.6143  -53.8275 N.am      21 UNK        -0.5000 
    115 CA        -6.8008  -21.2887  -53.6040 C.3       21 UNK         0.1400 
    116 CB        -7.7428  -21.1317  -54.8125 C.3       21 UNK        -0.1800 
    117 C         -7.4967  -20.8932  -52.2846 C.2       21 UNK         0.5000 
    118 O         -7.8818  -21.7795  -51.5212 O.2       21 UNK        -0.5000 
    119 N         -7.6096  -19.5845  -52.0299 N.am      22 UNK        -0.5000 
    120 CA        -8.1929  -18.9536  -50.8354 C.3       22 UNK         0.1400 
    121 C         -9.7096  -19.2738  -50.6341 C.2       22 UNK         0.5000 
    122 N        -10.2742  -19.0310  -49.4577 N.am      22 UNK        -0.7600 
    123 O        -10.4100  -19.6883  -51.5560 O.2       22 UNK        -0.5000 
    124 C124       -7.3216  -19.1843  -49.5660 C.3       23 UNK        -0.0398 
    125 S125       -5.6299  -18.5155  -49.7358 S.3       23 UNK        -0.2404 
    126 C126       -4.8208  -19.3642  -48.3490 C.3       23 UNK        -0.0205 
    127 H127        1.0383  -10.9908  -44.5771 H         1 UNK         0.0600 
    128 H128        0.1039   -9.5432  -44.2104 H         1 UNK         0.0600 
    129 H129       -0.3524  -11.0845  -43.4785 H         1 UNK         0.0600 
    130 H130       -0.0797  -12.7713  -45.7723 H         1 UNK         0.3000 
    131 H131       -2.4787  -12.0650  -47.3453 H         1 UNK         0.0600 
    132 H132       -2.2030  -14.3598  -48.3182 H         1 UNK         0.0800 
    133 H133       -0.7612  -14.5951  -47.3591 H         1 UNK         0.0800 
    134 H134       -2.4036  -16.6327  -44.6815 H         1 UNK         0.0800 
    135 H135       -0.9104  -16.0394  -45.3640 H         1 UNK         0.0800 
    136 H136       -4.2152  -17.4568  -46.4973 H         1 UNK         0.1150 
    137 H137       -2.4025  -19.9692  -49.4541 H         1 UNK         0.1150 
    138 H138        0.0190  -17.3051  -47.1284 H         1 UNK         0.1150 
    139 H139       -0.0551  -20.2159  -49.5307 H         1 UNK         0.0800 
    140 H140        0.4141  -18.5769  -49.9080 H         1 UNK         0.0800 
    141 H141        1.9966  -20.1540  -45.8606 H         1 UNK         0.0800 
    142 H142        0.3580  -19.6585  -46.0612 H         1 UNK         0.0800 
    143 H143        1.3306  -22.2117  -47.4438 H         1 UNK         0.0600 
    144 H144        1.2752  -21.9149  -44.5890 H         1 UNK         0.3000 
    145 H145        0.8028  -25.3117  -43.7292 H         1 UNK         0.0600 
    146 H146        2.9829  -24.9735  -42.5984 H         1 UNK         0.0600 
    147 H147        3.2267  -25.1957  -44.3234 H         1 UNK         0.0600 
    148 H148        3.3352  -23.5838  -43.6261 H         1 UNK         0.0600 
    149 H149        1.3986  -22.9645  -42.1974 H         1 UNK         0.3000 
    150 H150       -1.9472  -21.8071  -41.8137 H         1 UNK         0.0600 
    151 H151       -1.8061  -23.7016  -40.1857 H         1 UNK         0.0600 
    152 H152       -1.4838  -22.1586  -39.4103 H         1 UNK         0.0600 
    153 H153       -0.1512  -23.2489  -39.7923 H         1 UNK         0.0600 
    154 H154        0.2796  -20.8316  -40.5017 H         1 UNK         0.3000 
    155 H155        2.0026  -19.4879  -41.4069 H         1 UNK         0.0600 
    156 H156        2.5510  -19.2309  -43.7724 H         1 UNK         0.0600 
    157 H157        2.5789  -17.6526  -43.0081 H         1 UNK         0.0600 
    158 H158        1.2144  -18.1130  -44.0236 H         1 UNK         0.0600 
    159 H159        0.3506  -17.1622  -41.8464 H         1 UNK         0.3000 
    160 H160       -1.5197  -17.1947  -39.0267 H         1 UNK         0.0600 
    161 H161        1.2638  -16.0177  -38.5070 H         1 UNK         0.0600 
    162 H162       -0.2275  -15.5182  -37.7081 H         1 UNK         0.0600 
    163 H163        0.4053  -17.1345  -37.4527 H         1 UNK         0.0600 
    164 H164       -0.0347  -15.0351  -40.3242 H         1 UNK         0.3000 
    165 H165       -2.1076  -14.7079  -43.0859 H         1 UNK         0.0600 
    166 H166       -3.6631  -13.6402  -41.4507 H         1 UNK         0.0600 
    167 H167       -2.3005  -12.8869  -40.6306 H         1 UNK         0.0600 
    168 H168       -2.6958  -12.4407  -42.2921 H         1 UNK         0.0600 
    169 H169       -0.2285  -12.8933  -41.9945 H         1 UNK         0.3000 
    170 H170        1.8070  -12.7226  -43.1929 H         1 UNK         0.0600 
    171 H171        2.1465  -13.4415  -40.8245 H         1 UNK         0.0600 
    172 H172        3.6833  -13.3767  -41.6686 H         1 UNK         0.0600 
    173 H173        2.9100  -14.9322  -41.3643 H         1 UNK         0.0600 
    174 H174        3.5719  -14.9467  -43.7147 H         1 UNK         0.3000 
    175 H175        4.4079  -15.3624  -45.6868 H         1 UNK         0.0600 
    176 H176        1.9615  -15.9187  -47.4548 H         1 UNK         0.0600 
    177 H177        3.4728  -16.8259  -47.4580 H         1 UNK         0.0600 
    178 H178        2.4285  -16.8634  -46.0458 H         1 UNK         0.0600 
    179 H179        3.4907  -14.2124  -48.2099 H         1 UNK         0.3000 
    180 H180        5.5202  -11.3450  -48.1207 H         1 UNK         0.0600 
    181 H181        6.4400  -12.2256  -50.2577 H         1 UNK         0.0600 
    182 H182        7.2008  -13.0206  -48.8886 H         1 UNK         0.0600 
    183 H183        5.9656  -13.8657  -49.8136 H         1 UNK         0.0600 
    184 H184        3.8275  -12.6756  -50.0748 H         1 UNK         0.3000 
    185 H185        1.2353  -10.6310  -49.8651 H         1 UNK         0.0600 
    186 H186        2.3094  -12.2860  -51.4461 H         1 UNK         0.0600 
    187 H187        1.8462  -13.6124  -50.3744 H         1 UNK         0.0600 
    188 H188        0.6204  -12.6578  -51.1948 H         1 UNK         0.0600 
    189 H189        1.0206  -12.3292  -47.6071 H         1 UNK         0.3000 
    190 H190       -1.1834  -21.4188  -45.0332 H         1 UNK         0.3000 
    191 H191       -3.3610  -21.2101  -46.8168 H         1 UNK         0.0600 
    192 H192       -4.7401  -21.2940  -44.7558 H         1 UNK         0.0600 
    193 H193       -3.3491  -20.2429  -44.5322 H         1 UNK         0.0600 
    194 H194       -3.3572  -21.8598  -43.8278 H         1 UNK         0.0600 
    195 H195       -2.1918  -24.0292  -44.9391 H         1 UNK         0.3000 
    196 H196       -4.2239  -25.8446  -45.6931 H         1 UNK         0.0600 
    197 H197       -2.5743  -27.5755  -44.9352 H         1 UNK         0.0600 
    198 H198       -2.6943  -26.2451  -43.7947 H         1 UNK         0.0600 
    199 H199       -1.3112  -26.3505  -44.8824 H         1 UNK         0.0600 
    200 H200       -1.0876  -25.0845  -47.2622 H         1 UNK         0.3000 
    201 H201       -1.4414  -26.9894  -49.4296 H         1 UNK         0.0600 
    202 H202        0.8053  -26.2512  -48.6294 H         1 UNK         0.0600 
    203 H203        0.4540  -24.5963  -49.1190 H         1 UNK         0.0600 
    204 H204        0.5899  -25.8705  -50.3293 H         1 UNK         0.0600 
    205 H205       -2.4641  -23.7252  -48.8114 H         1 UNK         0.3000 
    206 H206       -3.5051  -22.1090  -49.8755 H         1 UNK         0.0600 
    207 H207       -5.2627  -23.7898  -50.3523 H         1 UNK         0.0600 
    208 H208       -5.1391  -22.6209  -51.6515 H         1 UNK         0.0600 
    209 H209       -4.4677  -24.2345  -51.8600 H         1 UNK         0.0600 
    210 H210       -0.8491  -22.3828  -50.2845 H         1 UNK         0.3000 
    211 H211        0.9668  -21.8188  -51.4350 H         1 UNK         0.0600 
    212 H212       -0.7754  -20.2939  -53.4315 H         1 UNK         0.0600 
    213 H213        0.9006  -19.9913  -53.0193 H         1 UNK         0.0600 
    214 H214       -0.3665  -19.6572  -51.8487 H         1 UNK         0.0600 
    215 H215       -0.0149  -24.3264  -51.9256 H         1 UNK         0.3000 
    216 H216        0.0371  -26.1420  -53.1902 H         1 UNK         0.0600 
    217 H217        2.4006  -25.5053  -53.7194 H         1 UNK         0.0600 
    218 H218        1.8491  -24.6240  -55.1432 H         1 UNK         0.0600 
    219 H219        1.6373  -26.3652  -55.0470 H         1 UNK         0.0600 
    220 H220       -2.1450  -24.7080  -53.2727 H         1 UNK         0.3000 
    221 H221       -4.0907  -24.2861  -54.1724 H         1 UNK         0.0600 
    222 H222       -3.2873  -26.0461  -56.5427 H         1 UNK         0.0600 
    223 H223       -3.9349  -26.6379  -55.0126 H         1 UNK         0.0600 
    224 H224       -4.9215  -25.6271  -56.0537 H         1 UNK         0.0600 
    225 H225       -1.4913  -22.7418  -55.3344 H         1 UNK         0.3000 
    226 H226       -2.5558  -21.5525  -57.7467 H         1 UNK         0.0600 
    227 H227       -0.0917  -21.8159  -57.2669 H         1 UNK         0.0600 
    228 H228       -0.5506  -20.1703  -57.6818 H         1 UNK         0.0600 
    229 H229       -0.2333  -20.5885  -56.0069 H         1 UNK         0.0600 
    230 H230       -2.6442  -20.7036  -54.2908 H         1 UNK         0.3000 
    231 H231       -3.7606  -18.0106  -54.8299 H         1 UNK         0.0600 
    232 H232       -3.1657  -19.4485  -52.1900 H         1 UNK         0.0600 
    233 H233       -2.1455  -18.2377  -52.9700 H         1 UNK         0.0600 
    234 H234       -3.7287  -17.7955  -52.3584 H         1 UNK         0.0600 
    235 H235       -4.7025  -21.2119  -53.7416 H         1 UNK         0.3000 
    236 H236       -6.5628  -22.3508  -53.5280 H         1 UNK         0.0600 
    237 H237       -7.2623  -21.4698  -55.7309 H         1 UNK         0.0600 
    238 H238       -8.6458  -21.7283  -54.6783 H         1 UNK         0.0600 
    239 H239       -8.0571  -20.0982  -54.9582 H         1 UNK         0.0600 
    240 H240       -7.2458  -18.9494  -52.7350 H         1 UNK         0.3000 
    241 H241       -8.1750  -17.8846  -51.0495 H         1 UNK         0.0600 
    242 H242      -11.2585  -19.2201  -49.3454 H         1 UNK         0.3800 
    243 H243       -9.7557  -18.6527  -48.6812 H         1 UNK         0.3800 
    244 H244       -7.2702  -20.2481  -49.3288 H         1 UNK         0.0800 
    245 H245       -7.7600  -18.6965  -48.6953 H         1 UNK         0.0800 
    246 H246       -4.7213  -20.4225  -48.5927 H         1 UNK         0.0800 
    247 H247       -5.4618  -19.3126  -47.4674 H         1 UNK         0.0800 
@<TRIPOS>BOND
     1    1    2 1    
     2    1  127 1    
     3    1  128 1    
     4    1  129 1    
     5    2    3 2    
     6    2    4 am   BACKBONE|DICT|INTERRES
     7    4    5 1    
     8    4  130 1    
     9    5    6 1    
    10    5   65 1    
    11    5  131 1    
    12    6    7 1    
    13    6  132 1    
    14    6  133 1    
    15    7    8 1    
    16    8    9 1    
    17    8  134 1    
    18    8  135 1    
    19    9   10 ar   
    20    9   14 ar   
    21   10   11 ar   
    22   10  136 1    
    23   11   12 ar   
    24   11  126 1    
    25   12   13 ar   
    26   12  137 1    
    27   13   14 ar   
    28   13   15 1    
    29   14  138 1    
    30   15   16 1    
    31   15  139 1    
    32   15  140 1    
    33   16   17 1    
    34   17   18 1    
    35   17  141 1    
    36   17  142 1    
    37   18   19 1    
    38   18   67 1    
    39   18  143 1    
    40   19   20 am   BACKBONE|DICT|INTERRES
    41   19  144 1    
    42   20   21 2    
    43   20   22 1    
    44   22   23 1    
    45   22   24 1    
    46   22  145 1    
    47   23  146 1    
    48   23  147 1    
    49   23  148 1    
    50   24   25 am   BACKBONE|DICT|INTERRES
    51   24  149 1    
    52   25   26 2    
    53   25   27 1    
    54   27   28 1    
    55   27   29 1    
    56   27  150 1    
    57   28  151 1    
    58   28  152 1    
    59   28  153 1    
    60   29   30 am   BACKBONE|DICT|INTERRES
    61   29  154 1    
    62   30   31 2    
    63   30   32 1    
    64   32   33 1    
    65   32   34 1    
    66   32  155 1    
    67   33  156 1    
    68   33  157 1    
    69   33  158 1    
    70   34   35 am   BACKBONE|DICT|INTERRES
    71   34  159 1    
    72   35   36 2    
    73   35   37 1    
    74   37   38 1    
    75   37   39 1    
    76   37  160 1    
    77   38  161 1    
    78   38  162 1    
    79   38  163 1    
    80   39   40 am   BACKBONE|DICT|INTERRES
    81   39  164 1    
    82   40   41 2    
    83   40   42 1    
    84   42   43 1    
    85   42   44 1    
    86   42  165 1    
    87   43  166 1    
    88   43  167 1    
    89   43  168 1    
    90   44   45 am   BACKBONE|DICT|INTERRES
    91   44  169 1    
    92   45   46 2    
    93   45   47 1    
    94   47   48 1    
    95   47   49 1    
    96   47  170 1    
    97   48  171 1    
    98   48  172 1    
    99   48  173 1    
   100   49   50 am   BACKBONE|DICT|INTERRES
   101   49  174 1    
   102   50   51 2    
   103   50   52 1    
   104   52   53 1    
   105   52   54 1    
   106   52  175 1    
   107   53  176 1    
   108   53  177 1    
   109   53  178 1    
   110   54   55 am   BACKBONE|DICT|INTERRES
   111   54  179 1    
   112   55   56 2    
   113   55   57 1    
   114   57   58 1    
   115   57   59 1    
   116   57  180 1    
   117   58  181 1    
   118   58  182 1    
   119   58  183 1    
   120   59   60 am   BACKBONE|DICT|INTERRES
   121   59  184 1    
   122   60   61 2    
   123   60   62 1    
   124   62   63 1    
   125   62   64 1    
   126   62  185 1    
   127   63  186 1    
   128   63  187 1    
   129   63  188 1    
   130   64   65 am   BACKBONE|DICT|INTERRES
   131   64  189 1    
   132   65   66 2    
   133   67   68 2    
   134   67   69 am   BACKBONE|DICT|INTERRES
   135   69   70 1    
   136   69  190 1    
   137   70   71 1    
   138   70   72 1    
   139   70  191 1    
   140   71  192 1    
   141   71  193 1    
   142   71  194 1    
   143   72   73 2    
   144   72   74 am   BACKBONE|DICT|INTERRES
   145   74   75 1    
   146   74  195 1    
   147   75   76 1    
   148   75   77 1    
   149   75  196 1    
   150   76  197 1    
   151   76  198 1    
   152   76  199 1    
   153   77   78 2    
   154   77   79 am   BACKBONE|DICT|INTERRES
   155   79   80 1    
   156   79  200 1    
   157   80   81 1    
   158   80   82 1    
   159   80  201 1    
   160   81  202 1    
   161   81  203 1    
   162   81  204 1    
   163   82   83 2    
   164   82   84 am   BACKBONE|DICT|INTERRES
   165   84   85 1    
   166   84  205 1    
   167   85   86 1    
   168   85   87 1    
   169   85  206 1    
   170   86  207 1    
   171   86  208 1    
   172   86  209 1    
   173   87   88 2    
   174   87   89 am   BACKBONE|DICT|INTERRES
   175   89   90 1    
   176   89  210 1    
   177   90   91 1    
   178   90   92 1    
   179   90  211 1    
   180   91  212 1    
   181   91  213 1    
   182   91  214 1    
   183   92   93 2    
   184   92   94 am   BACKBONE|DICT|INTERRES
   185   94   95 1    
   186   94  215 1    
   187   95   96 1    
   188   95   97 1    
   189   95  216 1    
   190   96  217 1    
   191   96  218 1    
   192   96  219 1    
   193   97   98 2    
   194   97   99 am   BACKBONE|DICT|INTERRES
   195   99  100 1    
   196   99  220 1    
   197  100  101 1    
   198  100  102 1    
   199  100  221 1    
   200  101  222 1    
   201  101  223 1    
   202  101  224 1    
   203  102  103 2    
   204  102  104 am   BACKBONE|DICT|INTERRES
   205  104  105 1    
   206  104  225 1    
   207  105  106 1    
   208  105  107 1    
   209  105  226 1    
   210  106  227 1    
   211  106  228 1    
   212  106  229 1    
   213  107  108 2    
   214  107  109 am   BACKBONE|DICT|INTERRES
   215  109  110 1    
   216  109  230 1    
   217  110  111 1    
   218  110  112 1    
   219  110  231 1    
   220  111  232 1    
   221  111  233 1    
   222  111  234 1    
   223  112  113 2    
   224  112  114 am   BACKBONE|DICT|INTERRES
   225  114  115 1    
   226  114  235 1    
   227  115  116 1    
   228  115  117 1    
   229  115  236 1    
   230  116  237 1    
   231  116  238 1    
   232  116  239 1    
   233  117  118 2    
   234  117  119 am   BACKBONE|DICT|INTERRES
   235  119  120 1    
   236  119  240 1    
   237  120  121 1    
   238  120  124 1    
   239  120  241 1    
   240  121  122 am   BACKBONE|DICT|INTERRES
   241  121  123 2    
   242  122  242 1    
   243  122  243 1    
   244  124  125 1    
   245  124  244 1    
   246  124  245 1    
   247  125  126 1    
   248  126  246 1    
   249  126  247 1    
@<TRIPOS>SUBSTRUCTURE
     1 UNK         1 GROUP             0       ****    0 ROOT    
