@<TRIPOS>MOLECULE
3R540
247   249    1
SMALL
USER_CHARGES


@<TRIPOS>ATOM
      1 CA         -3.6494  -11.2764  -46.7878 C.3       0 UNK        -0.1800 
      2 C          -3.3328  -12.5336  -45.9798 C.2       0 UNK         0.5000 
      3 O          -3.8318  -12.6728  -44.8653 O.2       0 UNK        -0.5000 
      4 N          -2.5261  -13.4777  -46.4862 N.am      1 UNK        -0.5000 
      5 CA         -1.8286  -13.4674  -47.7817 C.3       1 UNK         0.1400 
      6 C6         -1.2057  -14.8472  -48.1028 C.3       23 UNK        -0.0398 
      7 S7         -2.4426  -16.1868  -48.1857 S.3       23 UNK        -0.2404 
      8 C8         -2.1574  -16.8342  -49.8724 C.3       23 UNK        -0.0205 
      9 C9         -0.7953  -17.4912  -50.1200 C.ar      23 UNK        -0.0193 
     10 C10        -0.4340  -17.7957  -51.4367 C.ar      23 UNK        -0.1150 
     11 C11         0.7845  -18.4204  -51.7209 C.ar      23 UNK        -0.0193 
     12 C12         1.6611  -18.7263  -50.6791 C.ar      23 UNK        -0.1150 
     13 C13         1.3131  -18.4414  -49.3584 C.ar      23 UNK        -0.0193 
     14 C14         0.0891  -17.8255  -49.0852 C.ar      23 UNK        -0.1150 
     15 C15         2.2405  -18.8417  -48.2225 C.3       23 UNK        -0.0205 
     16 S16         2.1300  -20.6259  -47.8790 S.3       23 UNK        -0.2404 
     17 C17         0.3527  -20.7930  -47.5000 C.3       23 UNK        -0.0398 
     18 CA          0.0515  -22.0228  -46.6178 C.3       11 UNK         0.1400 
     19 N           0.6436  -21.8905  -45.2803 N.am      11 UNK        -0.5000 
     20 C           0.7932  -22.8831  -44.3937 C.2       10 UNK         0.5000 
     21 O           0.4257  -24.0399  -44.5970 O.2       10 UNK        -0.5000 
     22 CA          1.3952  -22.5012  -43.0293 C.3       10 UNK         0.1400 
     23 CB          2.9218  -22.3517  -43.1159 C.3       10 UNK        -0.1800 
     24 N           0.7992  -21.2728  -42.4993 N.am      10 UNK        -0.5000 
     25 C          -0.4612  -21.1898  -42.0502 C.2       9 UNK         0.5000 
     26 O          -1.2124  -22.1603  -41.9674 O.2       9 UNK        -0.5000 
     27 CA         -0.9871  -19.8003  -41.6443 C.3       9 UNK         0.1400 
     28 CB         -0.6747  -19.5185  -40.1673 C.3       9 UNK        -0.1800 
     29 N          -0.4594  -18.7154  -42.4722 N.am      9 UNK        -0.5000 
     30 C          -0.7284  -18.5423  -43.7745 C.2       8 UNK         0.5000 
     31 O          -1.4976  -19.2580  -44.4149 O.2       8 UNK        -0.5000 
     32 CA          0.0381  -17.4155  -44.4975 C.3       8 UNK         0.1400 
     33 CB         -0.6359  -16.0528  -44.2787 C.3       8 UNK        -0.1800 
     34 N           1.4454  -17.3396  -44.0969 N.am      8 UNK        -0.5000 
     35 C           2.3260  -18.3392  -44.2514 C.2       7 UNK         0.5000 
     36 O           2.0487  -19.4158  -44.7756 O.2       7 UNK        -0.5000 
     37 CA          3.7285  -18.1278  -43.6639 C.3       7 UNK         0.1400 
     38 CB          4.5921  -17.2568  -44.5890 C.3       7 UNK        -0.1800 
     39 N           3.6542  -17.5354  -42.3289 N.am      7 UNK        -0.5000 
     40 C           3.2536  -18.2040  -41.2372 C.2       6 UNK         0.5000 
     41 O           2.9617  -19.3997  -41.2396 O.2       6 UNK        -0.5000 
     42 CA          3.1230  -17.3969  -39.9314 C.3       6 UNK         0.1400 
     43 CB          4.4694  -17.3408  -39.1946 C.3       6 UNK        -0.1800 
     44 N           2.6343  -16.0346  -40.1490 N.am      6 UNK        -0.5000 
     45 C           1.4108  -15.7296  -40.6040 C.2       5 UNK         0.5000 
     46 O           0.5458  -16.5682  -40.8494 O.2       5 UNK        -0.5000 
     47 CA          1.1222  -14.2429  -40.8826 C.3       5 UNK         0.1400 
     48 CB          0.5599  -13.5571  -39.6292 C.3       5 UNK        -0.1800 
     49 N           2.2887  -13.4964  -41.3597 N.am      5 UNK        -0.5000 
     50 C           2.9885  -13.7773  -42.4659 C.2       4 UNK         0.5000 
     51 O           2.7371  -14.7325  -43.2041 O.2       4 UNK        -0.5000 
     52 CA          4.1448  -12.8131  -42.7986 C.3       4 UNK         0.1400 
     53 CB          5.1173  -13.4031  -43.8353 C.3       4 UNK        -0.1800 
     54 N           3.6238  -11.5481  -43.3095 N.am      4 UNK        -0.5000 
     55 C           3.0264  -10.5915  -42.5842 C.2       3 UNK         0.5000 
     56 O           2.9708  -10.6050  -41.3533 O.2       3 UNK        -0.5000 
     57 CA          2.3499   -9.4460  -43.3675 C.3       3 UNK         0.1400 
     58 CB          3.2612   -8.2099  -43.4083 C.3       3 UNK        -0.1800 
     59 N           1.9867   -9.8200  -44.7396 N.am      3 UNK        -0.5000 
     60 C           1.0683  -10.7418  -45.0599 C.2       2 UNK         0.5000 
     61 O           0.3567  -11.3182  -44.2318 O.2       2 UNK        -0.5000 
     62 CA          0.9681  -11.1133  -46.5468 C.3       2 UNK         0.1400 
     63 CB          2.2817  -11.7514  -47.0468 C.3       2 UNK        -0.1800 
     64 N          -0.1306  -12.0566  -46.7110 N.am      2 UNK        -0.5000 
     65 C          -0.7266  -12.3896  -47.8599 C.2       1 UNK         0.5000 
     66 O          -0.4416  -11.8911  -48.9490 O.2       1 UNK        -0.5000 
     67 C          -1.4664  -22.3149  -46.6014 C.2       11 UNK         0.5000 
     68 O          -2.0169  -22.6798  -47.6422 O.2       11 UNK        -0.5000 
     69 N          -2.1207  -22.1820  -45.4373 N.am      12 UNK        -0.5000 
     70 CA         -3.5107  -22.5828  -45.2170 C.3       12 UNK         0.1400 
     71 CB         -3.9922  -22.0728  -43.8519 C.3       12 UNK        -0.1800 
     72 C          -3.7171  -24.1063  -45.3360 C.2       12 UNK         0.5000 
     73 O          -4.8222  -24.5353  -45.6701 O.2       12 UNK        -0.5000 
     74 N          -2.6534  -24.8982  -45.1239 N.am      13 UNK        -0.5000 
     75 CA         -2.6045  -26.3191  -45.4652 C.3       13 UNK         0.1400 
     76 CB         -1.3221  -26.9443  -44.8951 C.3       13 UNK        -0.1800 
     77 C          -2.6799  -26.4801  -46.9951 C.2       13 UNK         0.5000 
     78 O          -1.7769  -26.0257  -47.6993 O.2       13 UNK        -0.5000 
     79 N          -3.7917  -27.0589  -47.4678 N.am      14 UNK        -0.5000 
     80 CA         -4.2231  -27.1464  -48.8698 C.3       14 UNK         0.1400 
     81 CB         -3.1935  -27.8901  -49.7471 C.3       14 UNK        -0.1800 
     82 C          -4.6538  -25.7917  -49.4782 C.2       14 UNK         0.5000 
     83 O          -4.7963  -25.7039  -50.6979 O.2       14 UNK        -0.5000 
     84 N          -4.8921  -24.7810  -48.6259 N.am      15 UNK        -0.5000 
     85 CA         -5.4834  -23.4679  -48.9110 C.3       15 UNK         0.1400 
     86 CB         -7.0132  -23.6189  -49.0370 C.3       15 UNK        -0.1800 
     87 C          -4.8639  -22.7264  -50.1142 C.2       15 UNK         0.5000 
     88 O          -5.5999  -22.2691  -50.9892 O.2       15 UNK        -0.5000 
     89 N          -3.5254  -22.6473  -50.1540 N.am      16 UNK        -0.5000 
     90 CA         -2.7197  -22.0445  -51.2258 C.3       16 UNK         0.1400 
     91 CB         -2.8207  -20.5076  -51.1760 C.3       16 UNK        -0.1800 
     92 C          -3.0504  -22.6224  -52.6208 C.2       16 UNK         0.5000 
     93 O          -3.3194  -21.8721  -53.5630 O.2       16 UNK        -0.5000 
     94 N          -3.0522  -23.9605  -52.6994 N.am      17 UNK        -0.5000 
     95 CA         -3.4210  -24.7827  -53.8549 C.3       17 UNK         0.1400 
     96 CB         -2.4927  -24.5119  -55.0593 C.3       17 UNK        -0.1800 
     97 C          -4.9194  -24.6584  -54.1966 C.2       17 UNK         0.5000 
     98 O          -5.2745  -24.3660  -55.3377 O.2       17 UNK        -0.5000 
     99 N          -5.7707  -24.8879  -53.1873 N.am      18 UNK        -0.5000 
    100 CA        -7.2364  -24.9050  -53.2469 C.3       18 UNK         0.1400 
    101 CB        -7.7274  -26.1251  -54.0536 C.3       18 UNK        -0.1800 
    102 C         -7.8383  -23.5717  -53.7378 C.2       18 UNK         0.5000 
    103 O         -8.6856  -23.5607  -54.6327 O.2       18 UNK        -0.5000 
    104 N         -7.3683  -22.4699  -53.1378 N.am      19 UNK        -0.5000 
    105 CA        -7.7504  -21.0764  -53.3843 C.3       19 UNK         0.1400 
    106 CB        -9.2463  -20.8441  -53.0849 C.3       19 UNK        -0.1800 
    107 C         -7.3250  -20.5322  -54.7646 C.2       19 UNK         0.5000 
    108 O         -7.8157  -19.4797  -55.1764 O.2       19 UNK        -0.5000 
    109 N         -6.3915  -21.2163  -55.4419 N.am      20 UNK        -0.5000 
    110 CA        -5.7968  -20.7738  -56.7067 C.3       20 UNK         0.1400 
    111 CB        -5.2407  -21.9928  -57.4582 C.3       20 UNK        -0.1800 
    112 C         -4.6889  -19.7188  -56.5162 C.2       20 UNK         0.5000 
    113 O         -4.1820  -19.2021  -57.5130 O.2       20 UNK        -0.5000 
    114 N         -4.3002  -19.4516  -55.2587 N.am      21 UNK        -0.5000 
    115 CA        -3.2036  -18.5745  -54.8340 C.3       21 UNK         0.1400 
    116 CB        -3.5283  -17.0970  -55.1342 C.3       21 UNK        -0.1800 
    117 C         -1.8557  -19.0384  -55.4197 C.2       21 UNK         0.5000 
    118 O         -1.0988  -18.2371  -55.9699 O.2       21 UNK        -0.5000 
    119 N         -1.6185  -20.3512  -55.3149 N.am      22 UNK        -0.5000 
    120 CA        -0.4631  -21.0917  -55.8480 C.3       22 UNK         0.1400 
    121 C         -0.4260  -21.2212  -57.4021 C.2       22 UNK         0.5000 
    122 N         -1.4384  -20.7818  -58.1416 N.am      22 UNK        -0.7600 
    123 O          0.5282  -21.7644  -57.9521 O.2       22 UNK        -0.5000 
    124 C124        0.9020  -20.6251  -55.2662 C.3       23 UNK        -0.0398 
    125 S125        0.9101  -20.5703  -53.4403 S.3       23 UNK        -0.2404 
    126 C126        1.1472  -18.7885  -53.1484 C.3       23 UNK        -0.0205 
    127 H127       -2.8169  -10.5742  -46.7451 H         1 UNK         0.0600 
    128 H128       -4.5276  -10.7760  -46.3794 H         1 UNK         0.0600 
    129 H129       -3.8633  -11.5077  -47.8306 H         1 UNK         0.0600 
    130 H130       -2.3772  -14.3110  -45.9371 H         1 UNK         0.3000 
    131 H131       -2.5596  -13.2457  -48.5612 H         1 UNK         0.0600 
    132 H132       -0.6671  -14.8053  -49.0518 H         1 UNK         0.0800 
    133 H133       -0.4632  -15.1198  -47.3506 H         1 UNK         0.0800 
    134 H134       -2.9345  -17.5686  -50.0873 H         1 UNK         0.0800 
    135 H135       -2.3010  -16.0193  -50.5837 H         1 UNK         0.0800 
    136 H136       -1.1135  -17.5608  -52.2439 H         1 UNK         0.1150 
    137 H137        2.5987  -19.2204  -50.8930 H         1 UNK         0.1150 
    138 H138       -0.1711  -17.6296  -48.0566 H         1 UNK         0.1150 
    139 H139        3.2700  -18.5906  -48.4814 H         1 UNK         0.0800 
    140 H140        2.0066  -18.2806  -47.3171 H         1 UNK         0.0800 
    141 H141       -0.1748  -20.8541  -48.4544 H         1 UNK         0.0800 
    142 H142       -0.0031  -19.8876  -47.0055 H         1 UNK         0.0800 
    143 H143        0.5131  -22.8924  -47.0906 H         1 UNK         0.0600 
    144 H144        1.0181  -20.9730  -45.0481 H         1 UNK         0.3000 
    145 H145        1.1801  -23.3128  -42.3309 H         1 UNK         0.0600 
    146 H146        3.3504  -22.1192  -42.1409 H         1 UNK         0.0600 
    147 H147        3.3830  -23.2773  -43.4622 H         1 UNK         0.0600 
    148 H148        3.2171  -21.5624  -43.8067 H         1 UNK         0.0600 
    149 H149        1.3760  -20.4411  -42.5091 H         1 UNK         0.3000 
    150 H150       -2.0724  -19.8126  -41.7644 H         1 UNK         0.0600 
    151 H151       -1.0691  -20.3075  -39.5259 H         1 UNK         0.0600 
    152 H152       -1.1243  -18.5804  -39.8415 H         1 UNK         0.0600 
    153 H153        0.3992  -19.4550  -39.9890 H         1 UNK         0.0600 
    154 H154        0.1297  -18.0343  -42.0009 H         1 UNK         0.3000 
    155 H155        0.0142  -17.6351  -45.5666 H         1 UNK         0.0600 
    156 H156       -1.6621  -16.0654  -44.6477 H         1 UNK         0.0600 
    157 H157       -0.1062  -15.2588  -44.8056 H         1 UNK         0.0600 
    158 H158       -0.6714  -15.7868  -43.2224 H         1 UNK         0.0600 
    159 H159        1.7623  -16.4752  -43.6698 H         1 UNK         0.3000 
    160 H160        4.2093  -19.1051  -43.5809 H         1 UNK         0.0600 
    161 H161        4.1486  -16.2767  -44.7625 H         1 UNK         0.0600 
    162 H162        4.7142  -17.7332  -45.5626 H         1 UNK         0.0600 
    163 H163        5.5884  -17.1061  -44.1734 H         1 UNK         0.0600 
    164 H164        3.7995  -16.5375  -42.2676 H         1 UNK         0.3000 
    165 H165        2.4049  -17.9150  -39.2921 H         1 UNK         0.0600 
    166 H166        4.3713  -16.8398  -38.2314 H         1 UNK         0.0600 
    167 H167        4.8494  -18.3447  -39.0002 H         1 UNK         0.0600 
    168 H168        5.2254  -16.8101  -39.7747 H         1 UNK         0.0600 
    169 H169        3.2824  -15.2812  -39.9732 H         1 UNK         0.3000 
    170 H170        0.3632  -14.1966  -41.6657 H         1 UNK         0.0600 
    171 H171       -0.3268  -14.0770  -39.2639 H         1 UNK         0.0600 
    172 H172        1.2890  -13.5397  -38.8182 H         1 UNK         0.0600 
    173 H173        0.2681  -12.5281  -39.8409 H         1 UNK         0.0600 
    174 H174        2.5232  -12.6476  -40.8581 H         1 UNK         0.3000 
    175 H175        4.7043  -12.6249  -41.8799 H         1 UNK         0.0600 
    176 H176        4.6261  -13.5934  -44.7906 H         1 UNK         0.0600 
    177 H177        5.9542  -12.7290  -44.0182 H         1 UNK         0.0600 
    178 H178        5.5338  -14.3487  -43.4856 H         1 UNK         0.0600 
    179 H179        3.6055  -11.4515  -44.3131 H         1 UNK         0.3000 
    180 H180        1.4346   -9.1808  -42.8342 H         1 UNK         0.0600 
    181 H181        4.1890   -8.4108  -43.9454 H         1 UNK         0.0600 
    182 H182        3.5283   -7.8882  -42.4007 H         1 UNK         0.0600 
    183 H183        2.7653   -7.3697  -43.8948 H         1 UNK         0.0600 
    184 H184        2.5197   -9.3822  -45.4776 H         1 UNK         0.3000 
    185 H185        0.7524  -10.2057  -47.1142 H         1 UNK         0.0600 
    186 H186        3.1223  -11.0635  -46.9526 H         1 UNK         0.0600 
    187 H187        2.5277  -12.6529  -46.4837 H         1 UNK         0.0600 
    188 H188        2.2170  -12.0259  -48.0996 H         1 UNK         0.0600 
    189 H189       -0.4612  -12.4521  -45.8384 H         1 UNK         0.3000 
    190 H190       -1.6137  -21.8297  -44.6373 H         1 UNK         0.3000 
    191 H191       -4.1167  -22.1030  -45.9878 H         1 UNK         0.0600 
    192 H192       -3.7903  -21.0084  -43.7290 H         1 UNK         0.0600 
    193 H193       -5.0682  -22.2156  -43.7451 H         1 UNK         0.0600 
    194 H194       -3.5139  -22.6066  -43.0314 H         1 UNK         0.0600 
    195 H195       -1.7659  -24.4659  -44.8969 H         1 UNK         0.3000 
    196 H196       -3.4595  -26.8151  -45.0010 H         1 UNK         0.0600 
    197 H197       -1.2915  -28.0161  -45.0941 H         1 UNK         0.0600 
    198 H198       -1.2633  -26.8103  -43.8149 H         1 UNK         0.0600 
    199 H199       -0.4266  -26.5045  -45.3358 H         1 UNK         0.0600 
    200 H200       -4.4759  -27.3787  -46.7955 H         1 UNK         0.3000 
    201 H201       -5.1277  -27.7556  -48.8564 H         1 UNK         0.0600 
    202 H202       -2.8916  -28.8325  -49.2904 H         1 UNK         0.0600 
    203 H203       -2.2963  -27.2952  -49.9187 H         1 UNK         0.0600 
    204 H204       -3.6143  -28.1257  -50.7253 H         1 UNK         0.0600 
    205 H205       -4.7367  -24.9594  -47.6397 H         1 UNK         0.3000 
    206 H206       -5.2849  -22.8433  -48.0398 H         1 UNK         0.0600 
    207 H207       -7.4375  -24.0756  -48.1428 H         1 UNK         0.0600 
    208 H208       -7.4973  -22.6497  -49.1641 H         1 UNK         0.0600 
    209 H209       -7.2869  -24.2387  -49.8910 H         1 UNK         0.0600 
    210 H210       -3.0026  -23.0021  -49.3578 H         1 UNK         0.3000 
    211 H211       -1.6816  -22.3102  -51.0208 H         1 UNK         0.0600 
    212 H212       -3.8309  -20.1578  -51.3905 H         1 UNK         0.0600 
    213 H213       -2.1517  -20.0552  -51.9083 H         1 UNK         0.0600 
    214 H214       -2.5321  -20.1278  -50.1960 H         1 UNK         0.0600 
    215 H215       -2.8921  -24.4741  -51.8437 H         1 UNK         0.3000 
    216 H216       -3.2637  -25.8187  -53.5511 H         1 UNK         0.0600 
    217 H217       -2.6762  -25.2319  -55.8574 H         1 UNK         0.0600 
    218 H218       -1.4434  -24.5991  -54.7777 H         1 UNK         0.0600 
    219 H219       -2.6470  -23.5191  -55.4814 H         1 UNK         0.0600 
    220 H220       -5.3742  -25.1123  -52.2748 H         1 UNK         0.3000 
    221 H221       -7.5805  -25.0337  -52.2200 H         1 UNK         0.0600 
    222 H222       -7.4452  -26.0565  -55.1048 H         1 UNK         0.0600 
    223 H223       -7.3144  -27.0519  -53.6554 H         1 UNK         0.0600 
    224 H224       -8.8138  -26.2102  -54.0112 H         1 UNK         0.0600 
    225 H225       -6.6593  -22.5804  -52.4128 H         1 UNK         0.3000 
    226 H226       -7.1843  -20.4927  -52.6571 H         1 UNK         0.0600 
    227 H227       -9.5154  -21.2273  -52.1005 H         1 UNK         0.0600 
    228 H228       -9.4864  -19.7804  -53.0927 H         1 UNK         0.0600 
    229 H229       -9.8888  -21.3267  -53.8216 H         1 UNK         0.0600 
    230 H230       -6.0439  -22.0855  -55.0569 H         1 UNK         0.3000 
    231 H231       -6.5762  -20.3241  -57.3251 H         1 UNK         0.0600 
    232 H232       -4.3909  -22.4319  -56.9349 H         1 UNK         0.0600 
    233 H233       -4.8991  -21.7154  -58.4561 H         1 UNK         0.0600 
    234 H234       -6.0000  -22.7658  -57.5786 H         1 UNK         0.0600 
    235 H235       -4.7260  -19.9997  -54.5242 H         1 UNK         0.3000 
    236 H236       -3.1226  -18.6807  -53.7516 H         1 UNK         0.0600 
    237 H237       -4.4814  -16.8063  -54.6924 H         1 UNK         0.0600 
    238 H238       -2.7638  -16.4391  -54.7194 H         1 UNK         0.0600 
    239 H239       -3.5816  -16.9012  -56.2055 H         1 UNK         0.0600 
    240 H240       -2.3052  -20.9178  -54.8218 H         1 UNK         0.3000 
    241 H241       -0.6139  -22.1134  -55.4997 H         1 UNK         0.0600 
    242 H242       -1.3972  -20.8870  -59.1429 H         1 UNK         0.3800 
    243 H243       -2.2200  -20.2972  -57.7225 H         1 UNK         0.3800 
    244 H244        1.6946  -21.3098  -55.5718 H         1 UNK         0.0800 
    245 H245        1.1792  -19.6513  -55.6719 H         1 UNK         0.0800 
    246 H246        2.1865  -18.5239  -53.3485 H         1 UNK         0.0800 
    247 H247        0.5426  -18.2092  -53.8460 H         1 UNK         0.0800 
@<TRIPOS>BOND
     1    1    2 1    
     2    1  127 1    
     3    1  128 1    
     4    1  129 1    
     5    2    3 2    
     6    2    4 am   BACKBONE|DICT|INTERRES
     7    4    5 1    
     8    4  130 1    
     9    5    6 1    
    10    5   65 1    
    11    5  131 1    
    12    6    7 1    
    13    6  132 1    
    14    6  133 1    
    15    7    8 1    
    16    8    9 1    
    17    8  134 1    
    18    8  135 1    
    19    9   10 ar   
    20    9   14 ar   
    21   10   11 ar   
    22   10  136 1    
    23   11   12 ar   
    24   11  126 1    
    25   12   13 ar   
    26   12  137 1    
    27   13   14 ar   
    28   13   15 1    
    29   14  138 1    
    30   15   16 1    
    31   15  139 1    
    32   15  140 1    
    33   16   17 1    
    34   17   18 1    
    35   17  141 1    
    36   17  142 1    
    37   18   19 1    
    38   18   67 1    
    39   18  143 1    
    40   19   20 am   BACKBONE|DICT|INTERRES
    41   19  144 1    
    42   20   21 2    
    43   20   22 1    
    44   22   23 1    
    45   22   24 1    
    46   22  145 1    
    47   23  146 1    
    48   23  147 1    
    49   23  148 1    
    50   24   25 am   BACKBONE|DICT|INTERRES
    51   24  149 1    
    52   25   26 2    
    53   25   27 1    
    54   27   28 1    
    55   27   29 1    
    56   27  150 1    
    57   28  151 1    
    58   28  152 1    
    59   28  153 1    
    60   29   30 am   BACKBONE|DICT|INTERRES
    61   29  154 1    
    62   30   31 2    
    63   30   32 1    
    64   32   33 1    
    65   32   34 1    
    66   32  155 1    
    67   33  156 1    
    68   33  157 1    
    69   33  158 1    
    70   34   35 am   BACKBONE|DICT|INTERRES
    71   34  159 1    
    72   35   36 2    
    73   35   37 1    
    74   37   38 1    
    75   37   39 1    
    76   37  160 1    
    77   38  161 1    
    78   38  162 1    
    79   38  163 1    
    80   39   40 am   BACKBONE|DICT|INTERRES
    81   39  164 1    
    82   40   41 2    
    83   40   42 1    
    84   42   43 1    
    85   42   44 1    
    86   42  165 1    
    87   43  166 1    
    88   43  167 1    
    89   43  168 1    
    90   44   45 am   BACKBONE|DICT|INTERRES
    91   44  169 1    
    92   45   46 2    
    93   45   47 1    
    94   47   48 1    
    95   47   49 1    
    96   47  170 1    
    97   48  171 1    
    98   48  172 1    
    99   48  173 1    
   100   49   50 am   BACKBONE|DICT|INTERRES
   101   49  174 1    
   102   50   51 2    
   103   50   52 1    
   104   52   53 1    
   105   52   54 1    
   106   52  175 1    
   107   53  176 1    
   108   53  177 1    
   109   53  178 1    
   110   54   55 am   BACKBONE|DICT|INTERRES
   111   54  179 1    
   112   55   56 2    
   113   55   57 1    
   114   57   58 1    
   115   57   59 1    
   116   57  180 1    
   117   58  181 1    
   118   58  182 1    
   119   58  183 1    
   120   59   60 am   BACKBONE|DICT|INTERRES
   121   59  184 1    
   122   60   61 2    
   123   60   62 1    
   124   62   63 1    
   125   62   64 1    
   126   62  185 1    
   127   63  186 1    
   128   63  187 1    
   129   63  188 1    
   130   64   65 am   BACKBONE|DICT|INTERRES
   131   64  189 1    
   132   65   66 2    
   133   67   68 2    
   134   67   69 am   BACKBONE|DICT|INTERRES
   135   69   70 1    
   136   69  190 1    
   137   70   71 1    
   138   70   72 1    
   139   70  191 1    
   140   71  192 1    
   141   71  193 1    
   142   71  194 1    
   143   72   73 2    
   144   72   74 am   BACKBONE|DICT|INTERRES
   145   74   75 1    
   146   74  195 1    
   147   75   76 1    
   148   75   77 1    
   149   75  196 1    
   150   76  197 1    
   151   76  198 1    
   152   76  199 1    
   153   77   78 2    
   154   77   79 am   BACKBONE|DICT|INTERRES
   155   79   80 1    
   156   79  200 1    
   157   80   81 1    
   158   80   82 1    
   159   80  201 1    
   160   81  202 1    
   161   81  203 1    
   162   81  204 1    
   163   82   83 2    
   164   82   84 am   BACKBONE|DICT|INTERRES
   165   84   85 1    
   166   84  205 1    
   167   85   86 1    
   168   85   87 1    
   169   85  206 1    
   170   86  207 1    
   171   86  208 1    
   172   86  209 1    
   173   87   88 2    
   174   87   89 am   BACKBONE|DICT|INTERRES
   175   89   90 1    
   176   89  210 1    
   177   90   91 1    
   178   90   92 1    
   179   90  211 1    
   180   91  212 1    
   181   91  213 1    
   182   91  214 1    
   183   92   93 2    
   184   92   94 am   BACKBONE|DICT|INTERRES
   185   94   95 1    
   186   94  215 1    
   187   95   96 1    
   188   95   97 1    
   189   95  216 1    
   190   96  217 1    
   191   96  218 1    
   192   96  219 1    
   193   97   98 2    
   194   97   99 am   BACKBONE|DICT|INTERRES
   195   99  100 1    
   196   99  220 1    
   197  100  101 1    
   198  100  102 1    
   199  100  221 1    
   200  101  222 1    
   201  101  223 1    
   202  101  224 1    
   203  102  103 2    
   204  102  104 am   BACKBONE|DICT|INTERRES
   205  104  105 1    
   206  104  225 1    
   207  105  106 1    
   208  105  107 1    
   209  105  226 1    
   210  106  227 1    
   211  106  228 1    
   212  106  229 1    
   213  107  108 2    
   214  107  109 am   BACKBONE|DICT|INTERRES
   215  109  110 1    
   216  109  230 1    
   217  110  111 1    
   218  110  112 1    
   219  110  231 1    
   220  111  232 1    
   221  111  233 1    
   222  111  234 1    
   223  112  113 2    
   224  112  114 am   BACKBONE|DICT|INTERRES
   225  114  115 1    
   226  114  235 1    
   227  115  116 1    
   228  115  117 1    
   229  115  236 1    
   230  116  237 1    
   231  116  238 1    
   232  116  239 1    
   233  117  118 2    
   234  117  119 am   BACKBONE|DICT|INTERRES
   235  119  120 1    
   236  119  240 1    
   237  120  121 1    
   238  120  124 1    
   239  120  241 1    
   240  121  122 am   BACKBONE|DICT|INTERRES
   241  121  123 2    
   242  122  242 1    
   243  122  243 1    
   244  124  125 1    
   245  124  244 1    
   246  124  245 1    
   247  125  126 1    
   248  126  246 1    
   249  126  247 1    
@<TRIPOS>SUBSTRUCTURE
     1 UNK         1 GROUP             0       ****    0 ROOT    
