@<TRIPOS>MOLECULE
3R540
247   249    1
SMALL
USER_CHARGES


@<TRIPOS>ATOM
      1 CA         -0.4494  -11.8410  -45.3767 C.3       0 UNK        -0.1800 
      2 C          -0.0204  -11.2939  -46.7309 C.2       0 UNK         0.5000 
      3 O          -0.3844  -10.1716  -47.0807 O.2       0 UNK        -0.5000 
      4 N           0.7741  -12.0682  -47.4834 N.am      1 UNK        -0.5000 
      5 CA          1.3338  -11.6848  -48.7922 C.3       1 UNK         0.1400 
      6 C6          1.7618  -12.9222  -49.6224 C.3       23 UNK        -0.0398 
      7 S7          0.3155  -13.9138  -50.1295 S.3       23 UNK        -0.2404 
      8 C8          1.0669  -15.5166  -50.5862 C.3       23 UNK        -0.0205 
      9 C9          0.3753  -16.7094  -49.9286 C.ar      23 UNK        -0.0193 
     10 C10        -1.0203  -16.8236  -49.9338 C.ar      23 UNK        -0.1150 
     11 C11        -1.6502  -17.9058  -49.3132 C.ar      23 UNK        -0.0193 
     12 C12        -0.8737  -18.8986  -48.7119 C.ar      23 UNK        -0.1150 
     13 C13         0.5204  -18.8169  -48.7226 C.ar      23 UNK        -0.0193 
     14 C14         1.1383  -17.7161  -49.3248 C.ar      23 UNK        -0.1150 
     15 C15         1.3474  -19.9442  -48.1225 C.3       23 UNK        -0.0205 
     16 S16         1.1601  -20.0545  -46.3132 S.3       23 UNK        -0.2404 
     17 C17         1.7437  -21.7583  -46.0177 C.3       23 UNK        -0.0398 
     18 CA          0.6402  -22.8228  -45.7799 C.3       11 UNK         0.1400 
     19 N           0.0263  -22.7581  -44.4504 N.am      11 UNK        -0.5000 
     20 C          -0.5773  -23.8113  -43.8763 C.2       10 UNK         0.5000 
     21 O          -0.6645  -24.9195  -44.4079 O.2       10 UNK        -0.5000 
     22 CA         -1.2207  -23.5848  -42.4972 C.3       10 UNK         0.1400 
     23 CB         -0.1495  -23.5212  -41.3978 C.3       10 UNK        -0.1800 
     24 N          -2.0413  -22.3762  -42.4477 N.am      10 UNK        -0.5000 
     25 C          -3.1590  -22.1811  -43.1620 C.2       9 UNK         0.5000 
     26 O          -3.6333  -23.0148  -43.9323 O.2       9 UNK        -0.5000 
     27 CA         -3.8408  -20.8062  -43.0196 C.3       9 UNK         0.1400 
     28 CB         -4.8827  -20.8372  -41.8918 C.3       9 UNK        -0.1800 
     29 N          -2.8992  -19.7079  -42.7799 N.am      9 UNK        -0.5000 
     30 C          -1.9209  -19.3524  -43.6219 C.2       8 UNK         0.5000 
     31 O          -1.7040  -19.9232  -44.6950 O.2       8 UNK        -0.5000 
     32 CA         -1.0118  -18.2040  -43.1639 C.3       8 UNK         0.1400 
     33 CB         -0.0438  -18.6757  -42.0629 C.3       8 UNK        -0.1800 
     34 N          -0.2541  -17.7287  -44.3124 N.am      8 UNK        -0.5000 
     35 C           0.3118  -16.5274  -44.4393 C.2       7 UNK         0.5000 
     36 O           0.2541  -15.6372  -43.5890 O.2       7 UNK        -0.5000 
     37 CA          1.0294  -16.2604  -45.7638 C.3       7 UNK         0.1400 
     38 CB          0.1337  -15.4424  -46.7022 C.3       7 UNK        -0.1800 
     39 N           2.2795  -15.5520  -45.5073 N.am      7 UNK        -0.5000 
     40 C           3.3858  -15.6813  -46.2518 C.2       6 UNK         0.5000 
     41 O           3.4438  -16.3547  -47.2802 O.2       6 UNK        -0.5000 
     42 CA          4.6486  -14.9396  -45.7860 C.3       6 UNK         0.1400 
     43 CB          4.7495  -13.5731  -46.4815 C.3       6 UNK        -0.1800 
     44 N           4.6864  -14.7526  -44.3348 N.am      6 UNK        -0.5000 
     45 C           5.2354  -15.6223  -43.4730 C.2       5 UNK         0.5000 
     46 O           5.7398  -16.6921  -43.8163 O.2       5 UNK        -0.5000 
     47 CA          5.2539  -15.2338  -41.9795 C.3       5 UNK         0.1400 
     48 CB          6.6302  -14.6697  -41.5931 C.3       5 UNK        -0.1800 
     49 N           4.2317  -14.2462  -41.6378 N.am      5 UNK        -0.5000 
     50 C           2.9350  -14.5269  -41.4531 C.2       4 UNK         0.5000 
     51 O           2.4941  -15.6746  -41.4079 O.2       4 UNK        -0.5000 
     52 CA          1.9701  -13.3279  -41.3066 C.3       4 UNK         0.1400 
     53 CB          1.5397  -13.1598  -39.8413 C.3       4 UNK        -0.1800 
     54 N           2.5143  -12.0508  -41.7917 N.am      4 UNK        -0.5000 
     55 C           2.8532  -11.7974  -43.0619 C.2       3 UNK         0.5000 
     56 O           2.7330  -12.6226  -43.9734 O.2       3 UNK        -0.5000 
     57 CA          3.4912  -10.4297  -43.3547 C.3       3 UNK         0.1400 
     58 CB          4.8467  -10.2810  -42.6365 C.3       3 UNK        -0.1800 
     59 N           3.6832  -10.3383  -44.7962 N.am      3 UNK        -0.5000 
     60 C           3.8785   -9.2315  -45.5222 C.2       2 UNK         0.5000 
     61 O           3.9641   -8.0999  -45.0452 O.2       2 UNK        -0.5000 
     62 CA          3.9465   -9.4303  -47.0446 C.3       2 UNK         0.1400 
     63 CB          5.3693   -9.8125  -47.4920 C.3       2 UNK        -0.1800 
     64 N           2.9765  -10.4499  -47.4402 N.am      2 UNK        -0.5000 
     65 C           2.4903  -10.6629  -48.6675 C.2       1 UNK         0.5000 
     66 O           2.8959  -10.0781  -49.6727 O.2       1 UNK        -0.5000 
     67 C          -0.4278  -22.8771  -46.8910 C.2       11 UNK         0.5000 
     68 O          -0.2187  -23.5755  -47.8810 O.2       11 UNK        -0.5000 
     69 N          -1.5674  -22.1951  -46.6897 N.am      12 UNK        -0.5000 
     70 CA         -2.7291  -22.2473  -47.5793 C.3       12 UNK         0.1400 
     71 CB         -3.7916  -21.2412  -47.1135 C.3       12 UNK        -0.1800 
     72 C          -3.3258  -23.6618  -47.6722 C.2       12 UNK         0.5000 
     73 O          -3.6157  -24.1240  -48.7733 O.2       12 UNK        -0.5000 
     74 N          -3.4553  -24.3431  -46.5248 N.am      13 UNK        -0.5000 
     75 CA         -3.8932  -25.7358  -46.4381 C.3       13 UNK         0.1400 
     76 CB         -4.1179  -26.1189  -44.9677 C.3       13 UNK        -0.1800 
     77 C          -2.9103  -26.7083  -47.1148 C.2       13 UNK         0.5000 
     78 O          -3.3499  -27.5982  -47.8433 O.2       13 UNK        -0.5000 
     79 N          -1.6038  -26.5029  -46.8916 N.am      14 UNK        -0.5000 
     80 CA         -0.5264  -27.2967  -47.4876 C.3       14 UNK         0.1400 
     81 CB          0.8072  -26.9383  -46.8148 C.3       14 UNK        -0.1800 
     82 C          -0.4267  -27.1333  -49.0169 C.2       14 UNK         0.5000 
     83 O          -0.2242  -28.1229  -49.7214 O.2       14 UNK        -0.5000 
     84 N          -0.5869  -25.8952  -49.5027 N.am      15 UNK        -0.5000 
     85 CA         -0.5666  -25.5425  -50.9245 C.3       15 UNK         0.1400 
     86 CB         -0.2852  -24.0369  -51.0547 C.3       15 UNK        -0.1800 
     87 C          -1.8631  -25.9100  -51.6750 C.2       15 UNK         0.5000 
     88 O          -1.8517  -25.9059  -52.9061 O.2       15 UNK        -0.5000 
     89 N          -2.9337  -26.2089  -50.9231 N.am      16 UNK        -0.5000 
     90 CA         -4.3234  -26.4125  -51.3367 C.3       16 UNK         0.1400 
     91 CB         -4.4691  -27.5195  -52.4002 C.3       16 UNK        -0.1800 
     92 C          -4.9469  -25.0805  -51.7849 C.2       16 UNK         0.5000 
     93 O          -4.6932  -24.6210  -52.8985 O.2       16 UNK        -0.5000 
     94 N          -5.7436  -24.4756  -50.8944 N.am      17 UNK        -0.5000 
     95 CA         -6.2847  -23.1163  -50.9920 C.3       17 UNK         0.1400 
     96 CB         -7.1844  -22.8506  -49.7756 C.3       17 UNK        -0.1800 
     97 C          -7.0365  -22.7915  -52.2961 C.2       17 UNK         0.5000 
     98 O          -6.9659  -21.6539  -52.7605 O.2       17 UNK        -0.5000 
     99 N          -7.7146  -23.7914  -52.8740 N.am      18 UNK        -0.5000 
    100 CA        -8.4220  -23.6827  -54.1506 C.3       18 UNK         0.1400 
    101 CB        -9.3603  -24.8888  -54.3081 C.3       18 UNK        -0.1800 
    102 C         -7.4765  -23.5738  -55.3636 C.2       18 UNK         0.5000 
    103 O         -7.8201  -22.9012  -56.3359 O.2       18 UNK        -0.5000 
    104 N         -6.3078  -24.2244  -55.2866 N.am      19 UNK        -0.5000 
    105 CA        -5.2680  -24.1898  -56.3163 C.3       19 UNK         0.1400 
    106 CB        -4.4715  -25.5036  -56.2806 C.3       19 UNK        -0.1800 
    107 C         -4.3348  -22.9836  -56.1219 C.2       19 UNK         0.5000 
    108 O         -3.9311  -22.3583  -57.1028 O.2       19 UNK        -0.5000 
    109 N         -4.0327  -22.6653  -54.8560 N.am      20 UNK        -0.5000 
    110 CA        -3.2178  -21.5236  -54.4378 C.3       20 UNK         0.1400 
    111 CB        -2.8018  -21.7362  -52.9747 C.3       20 UNK        -0.1800 
    112 C         -3.9256  -20.1631  -54.6099 C.2       20 UNK         0.5000 
    113 O         -3.2521  -19.1323  -54.5950 O.2       20 UNK        -0.5000 
    114 N         -5.2577  -20.1899  -54.7702 N.am      21 UNK        -0.5000 
    115 CA        -6.1738  -19.0517  -54.8920 C.3       21 UNK         0.1400 
    116 CB        -5.8744  -18.2211  -56.1576 C.3       21 UNK        -0.1800 
    117 C         -6.2375  -18.2092  -53.6010 C.2       21 UNK         0.5000 
    118 O         -6.2944  -16.9791  -53.6582 O.2       21 UNK        -0.5000 
    119 N         -6.2371  -18.9024  -52.4569 N.am      22 UNK        -0.5000 
    120 CA        -6.3571  -18.3190  -51.1117 C.3       22 UNK         0.1400 
    121 C         -7.8299  -18.0889  -50.6632 C.2       22 UNK         0.5000 
    122 N         -8.8319  -18.5961  -51.3718 N.am      22 UNK        -0.7600 
    123 O         -8.0686  -17.4284  -49.6561 O.2       22 UNK        -0.5000 
    124 C124       -5.5896  -19.1515  -50.0537 C.3       23 UNK        -0.0398 
    125 S125       -3.8024  -19.2688  -50.3985 S.3       23 UNK        -0.2404 
    126 C126       -3.1669  -17.9939  -49.2681 C.3       23 UNK        -0.0205 
    127 H127       -1.4567  -12.2525  -45.4379 H         1 UNK         0.0600 
    128 H128       -0.4487  -11.0462  -44.6306 H         1 UNK         0.0600 
    129 H129        0.2236  -12.6231  -45.0254 H         1 UNK         0.0600 
    130 H130        1.0171  -12.9922  -47.1575 H         1 UNK         0.3000 
    131 H131        0.5489  -11.1707  -49.3515 H         1 UNK         0.0600 
    132 H132        2.4554  -13.5428  -49.0523 H         1 UNK         0.0800 
    133 H133        2.2860  -12.6235  -50.5322 H         1 UNK         0.0800 
    134 H134        1.0129  -15.6336  -51.6691 H         1 UNK         0.0800 
    135 H135        2.1277  -15.5114  -50.3315 H         1 UNK         0.0800 
    136 H136       -1.6182  -16.0568  -50.4056 H         1 UNK         0.1150 
    137 H137       -1.3540  -19.7422  -48.2392 H         1 UNK         0.1150 
    138 H138        2.2169  -17.6460  -49.3281 H         1 UNK         0.1150 
    139 H139        1.0342  -20.8809  -48.5857 H         1 UNK         0.0800 
    140 H140        2.4046  -19.8196  -48.3618 H         1 UNK         0.0800 
    141 H141        2.3674  -22.0658  -46.8587 H         1 UNK         0.0800 
    142 H142        2.4172  -21.7364  -45.1601 H         1 UNK         0.0800 
    143 H143        1.1617  -23.7813  -45.8272 H         1 UNK         0.0600 
    144 H144        0.0120  -21.8580  -43.9937 H         1 UNK         0.3000 
    145 H145       -1.8695  -24.4388  -42.2907 H         1 UNK         0.0600 
    146 H146       -0.6037  -23.4544  -40.4091 H         1 UNK         0.0600 
    147 H147        0.4733  -24.4168  -41.4080 H         1 UNK         0.0600 
    148 H148        0.5096  -22.6612  -41.5229 H         1 UNK         0.0600 
    149 H149       -1.7257  -21.6341  -41.8418 H         1 UNK         0.3000 
    150 H150       -4.3607  -20.5975  -43.9563 H         1 UNK         0.0600 
    151 H151       -5.6113  -21.6324  -42.0556 H         1 UNK         0.0600 
    152 H152       -5.4351  -19.8989  -41.8385 H         1 UNK         0.0600 
    153 H153       -4.4197  -21.0112  -40.9196 H         1 UNK         0.0600 
    154 H154       -3.0134  -19.1985  -41.9155 H         1 UNK         0.3000 
    155 H155       -1.6413  -17.3959  -42.7855 H         1 UNK         0.0600 
    156 H156        0.5994  -17.8618  -41.7271 H         1 UNK         0.0600 
    157 H157        0.5990  -19.4838  -42.4144 H         1 UNK         0.0600 
    158 H158       -0.5838  -19.0390  -41.1881 H         1 UNK         0.0600 
    159 H159       -0.2089  -18.3981  -45.0738 H         1 UNK         0.3000 
    160 H160        1.2546  -17.2139  -46.2414 H         1 UNK         0.0600 
    161 H161       -0.2579  -14.5499  -46.2190 H         1 UNK         0.0600 
    162 H162       -0.7209  -16.0339  -47.0315 H         1 UNK         0.0600 
    163 H163        0.6824  -15.1377  -47.5894 H         1 UNK         0.0600 
    164 H164        2.2990  -14.9925  -44.6635 H         1 UNK         0.3000 
    165 H165        5.5138  -15.5304  -46.0949 H         1 UNK         0.0600 
    166 H166        3.8624  -12.9658  -46.3100 H         1 UNK         0.0600 
    167 H167        5.6181  -13.0159  -46.1309 H         1 UNK         0.0600 
    168 H168        4.8537  -13.6938  -47.5605 H         1 UNK         0.0600 
    169 H169        4.2200  -13.9264  -43.9793 H         1 UNK         0.3000 
    170 H170        5.0819  -16.1415  -41.3970 H         1 UNK         0.0600 
    171 H171        7.4216  -15.3894  -41.8070 H         1 UNK         0.0600 
    172 H172        6.8602  -13.7559  -42.1427 H         1 UNK         0.0600 
    173 H173        6.6786  -14.4429  -40.5279 H         1 UNK         0.0600 
    174 H174        4.5191  -13.2795  -41.6221 H         1 UNK         0.3000 
    175 H175        1.0823  -13.5573  -41.8997 H         1 UNK         0.0600 
    176 H176        2.3855  -12.9079  -39.2004 H         1 UNK         0.0600 
    177 H177        0.7914  -12.3740  -39.7371 H         1 UNK         0.0600 
    178 H178        1.0977  -14.0796  -39.4557 H         1 UNK         0.0600 
    179 H179        2.6487  -11.3311  -41.0959 H         1 UNK         0.3000 
    180 H180        2.8025   -9.6480  -43.0284 H         1 UNK         0.0600 
    181 H181        5.5467  -11.0625  -42.9352 H         1 UNK         0.0600 
    182 H182        4.7326  -10.3352  -41.5535 H         1 UNK         0.0600 
    183 H183        5.3094   -9.3194  -42.8587 H         1 UNK         0.0600 
    184 H184        3.6243  -11.2389  -45.2515 H         1 UNK         0.3000 
    185 H185        3.6683   -8.4851  -47.5155 H         1 UNK         0.0600 
    186 H186        5.4401   -9.8876  -48.5769 H         1 UNK         0.0600 
    187 H187        6.0918   -9.0602  -47.1731 H         1 UNK         0.0600 
    188 H188        5.6822  -10.7671  -47.0700 H         1 UNK         0.0600 
    189 H189        2.5054  -10.9185  -46.6805 H         1 UNK         0.3000 
    190 H190       -1.6418  -21.5968  -45.8732 H         1 UNK         0.3000 
    191 H191       -2.3966  -21.9566  -48.5782 H         1 UNK         0.0600 
    192 H192       -4.6043  -21.1744  -47.8375 H         1 UNK         0.0600 
    193 H193       -3.3718  -20.2429  -46.9982 H         1 UNK         0.0600 
    194 H194       -4.2288  -21.5291  -46.1583 H         1 UNK         0.0600 
    195 H195       -3.2511  -23.8755  -45.6463 H         1 UNK         0.3000 
    196 H196       -4.8502  -25.8167  -46.9578 H         1 UNK         0.0600 
    197 H197       -4.4473  -27.1549  -44.8787 H         1 UNK         0.0600 
    198 H198       -4.8856  -25.4935  -44.5119 H         1 UNK         0.0600 
    199 H199       -3.2069  -26.0107  -44.3783 H         1 UNK         0.0600 
    200 H200       -1.3288  -25.7696  -46.2477 H         1 UNK         0.3000 
    201 H201       -0.7360  -28.3481  -47.2801 H         1 UNK         0.0600 
    202 H202        0.7609  -27.0941  -45.7368 H         1 UNK         0.0600 
    203 H203        1.0804  -25.8983  -46.9921 H         1 UNK         0.0600 
    204 H204        1.6168  -27.5595  -47.1995 H         1 UNK         0.0600 
    205 H205       -0.6816  -25.1198  -48.8506 H         1 UNK         0.3000 
    206 H206        0.2528  -26.0829  -51.4027 H         1 UNK         0.0600 
    207 H207        0.6506  -23.7657  -50.5657 H         1 UNK         0.0600 
    208 H208       -0.1993  -23.7431  -52.1014 H         1 UNK         0.0600 
    209 H209       -1.0821  -23.4408  -50.6075 H         1 UNK         0.0600 
    210 H210       -2.8062  -26.1284  -49.9229 H         1 UNK         0.3000 
    211 H211       -4.8510  -26.7529  -50.4442 H         1 UNK         0.0600 
    212 H212       -4.0244  -27.2404  -53.3553 H         1 UNK         0.0600 
    213 H213       -5.5213  -27.7352  -52.5882 H         1 UNK         0.0600 
    214 H214       -4.0000  -28.4462  -52.0699 H         1 UNK         0.0600 
    215 H215       -5.8535  -24.9167  -49.9930 H         1 UNK         0.3000 
    216 H216       -5.4352  -22.4342  -50.9352 H         1 UNK         0.0600 
    217 H217       -7.6432  -21.8624  -49.8275 H         1 UNK         0.0600 
    218 H218       -6.6135  -22.8952  -48.8477 H         1 UNK         0.0600 
    219 H219       -7.9927  -23.5798  -49.7087 H         1 UNK         0.0600 
    220 H220       -7.7149  -24.6948  -52.4240 H         1 UNK         0.3000 
    221 H221       -9.0330  -22.7777  -54.1259 H         1 UNK         0.0600 
    222 H222       -8.8087  -25.8298  -54.3192 H         1 UNK         0.0600 
    223 H223      -10.0854  -24.9333  -53.4953 H         1 UNK         0.0600 
    224 H224       -9.9226  -24.8268  -55.2408 H         1 UNK         0.0600 
    225 H225       -6.0570  -24.6800  -54.4168 H         1 UNK         0.3000 
    226 H226       -5.7333  -24.1046  -57.3007 H         1 UNK         0.0600 
    227 H227       -5.1228  -26.3642  -56.4334 H         1 UNK         0.0600 
    228 H228       -3.7168  -25.5220  -57.0677 H         1 UNK         0.0600 
    229 H229       -3.9545  -25.6392  -55.3297 H         1 UNK         0.0600 
    230 H230       -4.3535  -23.2870  -54.1165 H         1 UNK         0.3000 
    231 H231       -2.3152  -21.5060  -55.0518 H         1 UNK         0.0600 
    232 H232       -2.1270  -20.9481  -52.6380 H         1 UNK         0.0600 
    233 H233       -2.2861  -22.6874  -52.8468 H         1 UNK         0.0600 
    234 H234       -3.6654  -21.7350  -52.3105 H         1 UNK         0.0600 
    235 H235       -5.7045  -21.0945  -54.7095 H         1 UNK         0.3000 
    236 H236       -7.1681  -19.4833  -55.0161 H         1 UNK         0.0600 
    237 H237       -5.8385  -18.8540  -57.0444 H         1 UNK         0.0600 
    238 H238       -6.6501  -17.4730  -56.3244 H         1 UNK         0.0600 
    239 H239       -4.9239  -17.6923  -56.0835 H         1 UNK         0.0600 
    240 H240       -6.2536  -19.9166  -52.5131 H         1 UNK         0.3000 
    241 H241       -5.8995  -17.3280  -51.1303 H         1 UNK         0.0600 
    242 H242       -8.6491  -19.1492  -52.1938 H         1 UNK         0.3800 
    243 H243       -9.7817  -18.4349  -51.0753 H         1 UNK         0.3800 
    244 H244       -5.7284  -18.7342  -49.0547 H         1 UNK         0.0800 
    245 H245       -5.9893  -20.1636  -50.0103 H         1 UNK         0.0800 
    246 H246       -3.4815  -18.2146  -48.2476 H         1 UNK         0.0800 
    247 H247       -3.6134  -17.0326  -49.5270 H         1 UNK         0.0800 
@<TRIPOS>BOND
     1    1    2 1    
     2    1  127 1    
     3    1  128 1    
     4    1  129 1    
     5    2    3 2    
     6    2    4 am   BACKBONE|DICT|INTERRES
     7    4    5 1    
     8    4  130 1    
     9    5    6 1    
    10    5   65 1    
    11    5  131 1    
    12    6    7 1    
    13    6  132 1    
    14    6  133 1    
    15    7    8 1    
    16    8    9 1    
    17    8  134 1    
    18    8  135 1    
    19    9   10 ar   
    20    9   14 ar   
    21   10   11 ar   
    22   10  136 1    
    23   11   12 ar   
    24   11  126 1    
    25   12   13 ar   
    26   12  137 1    
    27   13   14 ar   
    28   13   15 1    
    29   14  138 1    
    30   15   16 1    
    31   15  139 1    
    32   15  140 1    
    33   16   17 1    
    34   17   18 1    
    35   17  141 1    
    36   17  142 1    
    37   18   19 1    
    38   18   67 1    
    39   18  143 1    
    40   19   20 am   BACKBONE|DICT|INTERRES
    41   19  144 1    
    42   20   21 2    
    43   20   22 1    
    44   22   23 1    
    45   22   24 1    
    46   22  145 1    
    47   23  146 1    
    48   23  147 1    
    49   23  148 1    
    50   24   25 am   BACKBONE|DICT|INTERRES
    51   24  149 1    
    52   25   26 2    
    53   25   27 1    
    54   27   28 1    
    55   27   29 1    
    56   27  150 1    
    57   28  151 1    
    58   28  152 1    
    59   28  153 1    
    60   29   30 am   BACKBONE|DICT|INTERRES
    61   29  154 1    
    62   30   31 2    
    63   30   32 1    
    64   32   33 1    
    65   32   34 1    
    66   32  155 1    
    67   33  156 1    
    68   33  157 1    
    69   33  158 1    
    70   34   35 am   BACKBONE|DICT|INTERRES
    71   34  159 1    
    72   35   36 2    
    73   35   37 1    
    74   37   38 1    
    75   37   39 1    
    76   37  160 1    
    77   38  161 1    
    78   38  162 1    
    79   38  163 1    
    80   39   40 am   BACKBONE|DICT|INTERRES
    81   39  164 1    
    82   40   41 2    
    83   40   42 1    
    84   42   43 1    
    85   42   44 1    
    86   42  165 1    
    87   43  166 1    
    88   43  167 1    
    89   43  168 1    
    90   44   45 am   BACKBONE|DICT|INTERRES
    91   44  169 1    
    92   45   46 2    
    93   45   47 1    
    94   47   48 1    
    95   47   49 1    
    96   47  170 1    
    97   48  171 1    
    98   48  172 1    
    99   48  173 1    
   100   49   50 am   BACKBONE|DICT|INTERRES
   101   49  174 1    
   102   50   51 2    
   103   50   52 1    
   104   52   53 1    
   105   52   54 1    
   106   52  175 1    
   107   53  176 1    
   108   53  177 1    
   109   53  178 1    
   110   54   55 am   BACKBONE|DICT|INTERRES
   111   54  179 1    
   112   55   56 2    
   113   55   57 1    
   114   57   58 1    
   115   57   59 1    
   116   57  180 1    
   117   58  181 1    
   118   58  182 1    
   119   58  183 1    
   120   59   60 am   BACKBONE|DICT|INTERRES
   121   59  184 1    
   122   60   61 2    
   123   60   62 1    
   124   62   63 1    
   125   62   64 1    
   126   62  185 1    
   127   63  186 1    
   128   63  187 1    
   129   63  188 1    
   130   64   65 am   BACKBONE|DICT|INTERRES
   131   64  189 1    
   132   65   66 2    
   133   67   68 2    
   134   67   69 am   BACKBONE|DICT|INTERRES
   135   69   70 1    
   136   69  190 1    
   137   70   71 1    
   138   70   72 1    
   139   70  191 1    
   140   71  192 1    
   141   71  193 1    
   142   71  194 1    
   143   72   73 2    
   144   72   74 am   BACKBONE|DICT|INTERRES
   145   74   75 1    
   146   74  195 1    
   147   75   76 1    
   148   75   77 1    
   149   75  196 1    
   150   76  197 1    
   151   76  198 1    
   152   76  199 1    
   153   77   78 2    
   154   77   79 am   BACKBONE|DICT|INTERRES
   155   79   80 1    
   156   79  200 1    
   157   80   81 1    
   158   80   82 1    
   159   80  201 1    
   160   81  202 1    
   161   81  203 1    
   162   81  204 1    
   163   82   83 2    
   164   82   84 am   BACKBONE|DICT|INTERRES
   165   84   85 1    
   166   84  205 1    
   167   85   86 1    
   168   85   87 1    
   169   85  206 1    
   170   86  207 1    
   171   86  208 1    
   172   86  209 1    
   173   87   88 2    
   174   87   89 am   BACKBONE|DICT|INTERRES
   175   89   90 1    
   176   89  210 1    
   177   90   91 1    
   178   90   92 1    
   179   90  211 1    
   180   91  212 1    
   181   91  213 1    
   182   91  214 1    
   183   92   93 2    
   184   92   94 am   BACKBONE|DICT|INTERRES
   185   94   95 1    
   186   94  215 1    
   187   95   96 1    
   188   95   97 1    
   189   95  216 1    
   190   96  217 1    
   191   96  218 1    
   192   96  219 1    
   193   97   98 2    
   194   97   99 am   BACKBONE|DICT|INTERRES
   195   99  100 1    
   196   99  220 1    
   197  100  101 1    
   198  100  102 1    
   199  100  221 1    
   200  101  222 1    
   201  101  223 1    
   202  101  224 1    
   203  102  103 2    
   204  102  104 am   BACKBONE|DICT|INTERRES
   205  104  105 1    
   206  104  225 1    
   207  105  106 1    
   208  105  107 1    
   209  105  226 1    
   210  106  227 1    
   211  106  228 1    
   212  106  229 1    
   213  107  108 2    
   214  107  109 am   BACKBONE|DICT|INTERRES
   215  109  110 1    
   216  109  230 1    
   217  110  111 1    
   218  110  112 1    
   219  110  231 1    
   220  111  232 1    
   221  111  233 1    
   222  111  234 1    
   223  112  113 2    
   224  112  114 am   BACKBONE|DICT|INTERRES
   225  114  115 1    
   226  114  235 1    
   227  115  116 1    
   228  115  117 1    
   229  115  236 1    
   230  116  237 1    
   231  116  238 1    
   232  116  239 1    
   233  117  118 2    
   234  117  119 am   BACKBONE|DICT|INTERRES
   235  119  120 1    
   236  119  240 1    
   237  120  121 1    
   238  120  124 1    
   239  120  241 1    
   240  121  122 am   BACKBONE|DICT|INTERRES
   241  121  123 2    
   242  122  242 1    
   243  122  243 1    
   244  124  125 1    
   245  124  244 1    
   246  124  245 1    
   247  125  126 1    
   248  126  246 1    
   249  126  247 1    
@<TRIPOS>SUBSTRUCTURE
     1 UNK         1 GROUP             0       ****    0 ROOT    
