@<TRIPOS>MOLECULE
3R540
247   249    1
SMALL
USER_CHARGES


@<TRIPOS>ATOM
      1 CA         -3.8365  -10.9823  -45.6442 C.3       0 UNK        -0.1800 
      2 C          -2.3704  -10.5833  -45.7283 C.2       0 UNK         0.5000 
      3 O          -1.9994   -9.5017  -45.2702 O.2       0 UNK        -0.5000 
      4 N          -1.5305  -11.4526  -46.3027 N.am      1 UNK        -0.5000 
      5 CA         -0.0834  -11.2800  -46.4760 C.3       1 UNK         0.1400 
      6 C6          0.4599  -12.0951  -47.6810 C.3       23 UNK        -0.0398 
      7 S7         -0.0752  -13.8447  -47.7362 S.3       23 UNK        -0.2404 
      8 C8          1.4488  -14.6848  -48.2767 C.3       23 UNK        -0.0205 
      9 C9          1.1466  -15.7885  -49.2801 C.ar      23 UNK        -0.0193 
     10 C10         0.6295  -15.4637  -50.5378 C.ar      23 UNK        -0.1150 
     11 C11         0.3521  -16.4637  -51.4728 C.ar      23 UNK        -0.0193 
     12 C12         0.6220  -17.7965  -51.1525 C.ar      23 UNK        -0.1150 
     13 C13         1.1398  -18.1390  -49.8995 C.ar      23 UNK        -0.0193 
     14 C14         1.3983  -17.1278  -48.9680 C.ar      23 UNK        -0.1150 
     15 C15         1.4616  -19.5926  -49.5703 C.3       23 UNK        -0.0205 
     16 S16         0.0545  -20.7223  -49.8333 S.3       23 UNK        -0.2404 
     17 C17        -1.1074  -20.2585  -48.5044 C.3       23 UNK        -0.0398 
     18 CA         -1.4565  -21.4793  -47.6097 C.3       11 UNK         0.1400 
     19 N          -0.5987  -21.5836  -46.4246 N.am      11 UNK        -0.5000 
     20 C          -0.5528  -22.6503  -45.6133 C.2       10 UNK         0.5000 
     21 O          -1.2057  -23.6761  -45.7989 O.2       10 UNK        -0.5000 
     22 CA          0.3228  -22.5371  -44.3528 C.3       10 UNK         0.1400 
     23 CB          1.8105  -22.7168  -44.6899 C.3       10 UNK        -0.1800 
     24 N           0.1145  -21.2764  -43.6394 N.am      10 UNK        -0.5000 
     25 C          -1.0410  -20.9267  -43.0551 C.2       9 UNK         0.5000 
     26 O          -2.0384  -21.6470  -43.0298 O.2       9 UNK        -0.5000 
     27 CA         -1.1133  -19.5252  -42.4246 C.3       9 UNK         0.1400 
     28 CB         -0.4794  -19.5275  -41.0258 C.3       9 UNK        -0.1800 
     29 N          -0.4782  -18.4981  -43.2479 N.am      9 UNK        -0.5000 
     30 C          -0.8725  -18.1487  -44.4812 C.2       8 UNK         0.5000 
     31 O          -1.8495  -18.6294  -45.0543 O.2       8 UNK        -0.5000 
     32 CA          0.0226  -17.1405  -45.2231 C.3       8 UNK         0.1400 
     33 CB         -0.2005  -15.7182  -44.6861 C.3       8 UNK        -0.1800 
     34 N           1.4413  -17.4892  -45.1267 N.am      8 UNK        -0.5000 
     35 C           1.9759  -18.6494  -45.5344 C.2       7 UNK         0.5000 
     36 O           1.3311  -19.5478  -46.0705 O.2       7 UNK        -0.5000 
     37 CA          3.4737  -18.8561  -45.2699 C.3       7 UNK         0.1400 
     38 CB          4.3209  -18.1669  -46.3506 C.3       7 UNK        -0.1800 
     39 N           3.8477  -18.3640  -43.9461 N.am      7 UNK        -0.5000 
     40 C           3.5263  -18.9799  -42.7997 C.2       6 UNK         0.5000 
     41 O           2.9359  -20.0592  -42.7449 O.2       6 UNK        -0.5000 
     42 CA          3.8899  -18.2431  -41.4971 C.3       6 UNK         0.1400 
     43 CB          5.3572  -18.4965  -41.1204 C.3       6 UNK        -0.1800 
     44 N           3.6507  -16.8006  -41.5791 N.am      6 UNK        -0.5000 
     45 C           2.4373  -16.2459  -41.7044 C.2       5 UNK         0.5000 
     46 O           1.3914  -16.8936  -41.7293 O.2       5 UNK        -0.5000 
     47 CA          2.3787  -14.7145  -41.8602 C.3       5 UNK         0.1400 
     48 CB          2.3248  -14.0504  -40.4761 C.3       5 UNK        -0.1800 
     49 N           3.4679  -14.1241  -42.6480 N.am      5 UNK        -0.5000 
     50 C           3.8252  -14.4861  -43.8906 C.2       4 UNK         0.5000 
     51 O           3.3372  -15.4464  -44.4868 O.2       4 UNK        -0.5000 
     52 CA          4.8811  -13.6060  -44.5800 C.3       4 UNK         0.1400 
     53 CB          5.1042  -13.9769  -46.0578 C.3       4 UNK        -0.1800 
     54 N           4.4458  -12.2176  -44.4947 N.am      4 UNK        -0.5000 
     55 C           5.1994  -11.1754  -44.1221 C.2       3 UNK         0.5000 
     56 O           6.4030  -11.2567  -43.8742 O.2       3 UNK        -0.5000 
     57 CA          4.4891   -9.8101  -43.9820 C.3       3 UNK         0.1400 
     58 CB          4.7449   -8.9427  -45.2239 C.3       3 UNK        -0.1800 
     59 N           3.0427   -9.9254  -43.7766 N.am      3 UNK        -0.5000 
     60 C           2.4592  -10.4872  -42.7085 C.2       2 UNK         0.5000 
     61 O           3.0826  -10.8431  -41.7086 O.2       2 UNK        -0.5000 
     62 CA          0.9383  -10.7403  -42.7816 C.3       2 UNK         0.1400 
     63 CB          0.1810   -9.7329  -41.9039 C.3       2 UNK        -0.1800 
     64 N           0.3699  -10.7089  -44.1343 N.am      2 UNK        -0.5000 
     65 C           0.6913  -11.5130  -45.1574 C.2       1 UNK         0.5000 
     66 O           1.5666  -12.3756  -45.0850 O.2       1 UNK        -0.5000 
     67 C          -2.9556  -21.5127  -47.2462 C.2       11 UNK         0.5000 
     68 O          -3.7258  -22.1585  -47.9581 O.2       11 UNK        -0.5000 
     69 N          -3.3451  -20.8643  -46.1390 N.am      12 UNK        -0.5000 
     70 CA         -4.7059  -20.9065  -45.6016 C.3       12 UNK         0.1400 
     71 CB         -4.8567  -19.8838  -44.4656 C.3       12 UNK        -0.1800 
     72 C          -5.1088  -22.3173  -45.1348 C.2       12 UNK         0.5000 
     73 O          -6.1811  -22.7927  -45.5093 O.2       12 UNK        -0.5000 
     74 N          -4.2274  -22.9795  -44.3710 N.am      13 UNK        -0.5000 
     75 CA         -4.4060  -24.3506  -43.8837 C.3       13 UNK         0.1400 
     76 CB         -3.2812  -24.6943  -42.8957 C.3       13 UNK        -0.1800 
     77 C          -4.4705  -25.3933  -45.0159 C.2       13 UNK         0.5000 
     78 O          -5.2575  -26.3365  -44.9316 O.2       13 UNK        -0.5000 
     79 N          -3.6697  -25.1842  -46.0687 N.am      14 UNK        -0.5000 
     80 CA         -3.6506  -25.9948  -47.2867 C.3       14 UNK         0.1400 
     81 CB         -2.3172  -25.7583  -48.0156 C.3       14 UNK        -0.1800 
     82 C          -4.8302  -25.7148  -48.2398 C.2       14 UNK         0.5000 
     83 O          -4.9467  -26.4099  -49.2491 O.2       14 UNK        -0.5000 
     84 N          -5.6476  -24.6899  -47.9483 N.am      15 UNK        -0.5000 
     85 CA         -6.7611  -24.1845  -48.7604 C.3       15 UNK         0.1400 
     86 CB         -7.9167  -25.2058  -48.7984 C.3       15 UNK        -0.1800 
     87 C          -6.2934  -23.7482  -50.1641 C.2       15 UNK         0.5000 
     88 O          -6.8570  -24.1738  -51.1742 O.2       15 UNK        -0.5000 
     89 N          -5.2067  -22.9623  -50.1940 N.am      16 UNK        -0.5000 
     90 CA         -4.4733  -22.4974  -51.3772 C.3       16 UNK         0.1400 
     91 CB         -5.3607  -21.5788  -52.2463 C.3       16 UNK        -0.1800 
     92 C          -3.8392  -23.6443  -52.1944 C.2       16 UNK         0.5000 
     93 O          -3.5795  -23.4707  -53.3841 O.2       16 UNK        -0.5000 
     94 N          -3.6356  -24.8054  -51.5545 N.am      17 UNK        -0.5000 
     95 CA         -3.2352  -26.0904  -52.1399 C.3       17 UNK         0.1400 
     96 CB         -1.8577  -25.9936  -52.8293 C.3       17 UNK        -0.1800 
     97 C          -4.3220  -26.7138  -53.0463 C.2       17 UNK         0.5000 
     98 O          -4.0079  -27.6029  -53.8380 O.2       17 UNK        -0.5000 
     99 N          -5.5729  -26.2460  -52.8997 N.am      18 UNK        -0.5000 
    100 CA        -6.7974  -26.6586  -53.5914 C.3       18 UNK         0.1400 
    101 CB        -7.3071  -27.9753  -52.9714 C.3       18 UNK        -0.1800 
    102 C         -6.6625  -26.7381  -55.1330 C.2       18 UNK         0.5000 
    103 O         -6.7713  -27.8292  -55.6932 O.2       18 UNK        -0.5000 
    104 N         -6.4182  -25.6318  -55.8481 N.am      19 UNK        -0.5000 
    105 CA        -6.2709  -24.2475  -55.4009 C.3       19 UNK         0.1400 
    106 CB        -7.6438  -23.5500  -55.3859 C.3       19 UNK        -0.1800 
    107 C         -5.2534  -23.5764  -56.3382 C.2       19 UNK         0.5000 
    108 O         -5.6103  -22.6985  -57.1250 O.2       19 UNK        -0.5000 
    109 N         -4.0128  -24.0778  -56.2941 N.am      20 UNK        -0.5000 
    110 CA        -2.9024  -23.6529  -57.1466 C.3       20 UNK         0.1400 
    111 CB        -1.8148  -24.7381  -57.1177 C.3       20 UNK        -0.1800 
    112 C         -2.3060  -22.2858  -56.7589 C.2       20 UNK         0.5000 
    113 O         -1.7677  -21.6004  -57.6304 O.2       20 UNK        -0.5000 
    114 N         -2.3892  -21.9179  -55.4731 N.am      21 UNK        -0.5000 
    115 CA        -1.9207  -20.6357  -54.9449 C.3       21 UNK         0.1400 
    116 CB        -1.5828  -20.8006  -53.4519 C.3       21 UNK        -0.1800 
    117 C         -2.9425  -19.5028  -55.1841 C.2       21 UNK         0.5000 
    118 O         -3.9793  -19.7114  -55.8178 O.2       21 UNK        -0.5000 
    119 N         -2.6218  -18.3096  -54.6700 N.am      22 UNK        -0.5000 
    120 CA        -3.4203  -17.0779  -54.8016 C.3       22 UNK         0.1400 
    121 C         -4.8187  -17.0872  -54.1095 C.2       22 UNK         0.5000 
    122 N         -5.1071  -18.0114  -53.2015 N.am      22 UNK        -0.7600 
    123 O         -5.6577  -16.2423  -54.4107 O.2       22 UNK        -0.5000 
    124 C124       -2.5932  -15.8276  -54.4000 C.3       23 UNK        -0.0398 
    125 S125       -2.0482  -15.8501  -52.6545 S.3       23 UNK        -0.2404 
    126 C126       -0.2553  -16.1055  -52.8189 C.3       23 UNK        -0.0205 
    127 H127       -4.1570  -11.0150  -44.6029 H         1 UNK         0.0600 
    128 H128       -4.0155  -11.9627  -46.0864 H         1 UNK         0.0600 
    129 H129       -4.4541  -10.2540  -46.1698 H         1 UNK         0.0600 
    130 H130       -1.8872  -12.3370  -46.6378 H         1 UNK         0.3000 
    131 H131        0.0911  -10.2310  -46.7257 H         1 UNK         0.0600 
    132 H132        0.1123  -11.6313  -48.6049 H         1 UNK         0.0800 
    133 H133        1.5484  -12.0287  -47.7207 H         1 UNK         0.0800 
    134 H134        1.9645  -15.0781  -47.3985 H         1 UNK         0.0800 
    135 H135        2.1328  -13.9773  -48.7465 H         1 UNK         0.0800 
    136 H136        0.4243  -14.4306  -50.7816 H         1 UNK         0.1150 
    137 H137        0.4246  -18.5734  -51.8762 H         1 UNK         0.1150 
    138 H138        1.8111  -17.3793  -48.0042 H         1 UNK         0.1150 
    139 H139        2.2829  -19.9131  -50.2122 H         1 UNK         0.0800 
    140 H140        1.8217  -19.6985  -48.5484 H         1 UNK         0.0800 
    141 H141       -1.9906  -19.8559  -49.0045 H         1 UNK         0.0800 
    142 H142       -0.7072  -19.4348  -47.9112 H         1 UNK         0.0800 
    143 H143       -1.2898  -22.3891  -48.1907 H         1 UNK         0.0600 
    144 H144        0.0017  -20.7867  -46.2200 H         1 UNK         0.3000 
    145 H145        0.0351  -23.3470  -43.6791 H         1 UNK         0.0600 
    146 H146        2.4249  -22.6871  -43.7900 H         1 UNK         0.0600 
    147 H147        1.9851  -23.6796  -45.1716 H         1 UNK         0.0600 
    148 H148        2.1720  -21.9439  -45.3670 H         1 UNK         0.0600 
    149 H149        0.8961  -20.6342  -43.6078 H         1 UNK         0.3000 
    150 H150       -2.1676  -19.2617  -42.3201 H         1 UNK         0.0600 
    151 H151       -0.9392  -20.2838  -40.3884 H         1 UNK         0.0600 
    152 H152       -0.6100  -18.5638  -40.5334 H         1 UNK         0.0600 
    153 H153        0.5901  -19.7376  -41.0691 H         1 UNK         0.0600 
    154 H154        0.3183  -18.0184  -42.8362 H         1 UNK         0.3000 
    155 H155       -0.2457  -17.1551  -46.2815 H         1 UNK         0.0600 
    156 H156       -1.1889  -15.3518  -44.9649 H         1 UNK         0.0600 
    157 H157        0.5331  -15.0191  -45.0869 H         1 UNK         0.0600 
    158 H158       -0.1356  -15.6781  -43.5999 H         1 UNK         0.0600 
    159 H159        2.0626  -16.7820  -44.7409 H         1 UNK         0.3000 
    160 H160        3.6810  -19.9274  -45.3120 H         1 UNK         0.0600 
    161 H161        4.1251  -17.0960  -46.4017 H         1 UNK         0.0600 
    162 H162        4.1043  -18.5833  -47.3351 H         1 UNK         0.0600 
    163 H163        5.3861  -18.3057  -46.1661 H         1 UNK         0.0600 
    164 H164        4.2452  -17.4356  -43.9061 H         1 UNK         0.3000 
    165 H165        3.2591  -18.6459  -40.7016 H         1 UNK         0.0600 
    166 H166        5.6010  -18.0445  -40.1588 H         1 UNK         0.0600 
    167 H167        5.5589  -19.5652  -41.0365 H         1 UNK         0.0600 
    168 H168        6.0419  -18.0906  -41.8661 H         1 UNK         0.0600 
    169 H169        4.4594  -16.1968  -41.5692 H         1 UNK         0.3000 
    170 H170        1.4501  -14.4768  -42.3811 H         1 UNK         0.0600 
    171 H171        2.1026  -12.9873  -40.5525 H         1 UNK         0.0600 
    172 H172        1.5429  -14.4942  -39.8581 H         1 UNK         0.0600 
    173 H173        3.2683  -14.1596  -39.9403 H         1 UNK         0.0600 
    174 H174        3.9087  -13.3070  -42.2487 H         1 UNK         0.3000 
    175 H175        5.8178  -13.7499  -44.0382 H         1 UNK         0.0600 
    176 H176        4.1837  -13.8870  -46.6362 H         1 UNK         0.0600 
    177 H177        5.8522  -13.3306  -46.5168 H         1 UNK         0.0600 
    178 H178        5.4587  -15.0034  -46.1550 H         1 UNK         0.0600 
    179 H179        3.4522  -12.0771  -44.6601 H         1 UNK         0.3000 
    180 H180        4.9156   -9.3045  -43.1133 H         1 UNK         0.0600 
    181 H181        4.3245   -9.3945  -46.1234 H         1 UNK         0.0600 
    182 H182        5.8142   -8.8083  -45.3932 H         1 UNK         0.0600 
    183 H183        4.3085   -7.9502  -45.1095 H         1 UNK         0.0600 
    184 H184        2.4528   -9.6509  -44.5476 H         1 UNK         0.3000 
    185 H185        0.7640  -11.7409  -42.3814 H         1 UNK         0.0600 
    186 H186       -0.8844   -9.9617  -41.8701 H         1 UNK         0.0600 
    187 H187        0.5488   -9.7521  -40.8771 H         1 UNK         0.0600 
    188 H188        0.2941   -8.7136  -42.2753 H         1 UNK         0.0600 
    189 H189       -0.3805  -10.0430  -44.2944 H         1 UNK         0.3000 
    190 H190       -2.6718  -20.2962  -45.6325 H         1 UNK         0.3000 
    191 H191       -5.3882  -20.6169  -46.4036 H         1 UNK         0.0600 
    192 H192       -4.6533  -18.8724  -44.8176 H         1 UNK         0.0600 
    193 H193       -5.8715  -19.8910  -44.0661 H         1 UNK         0.0600 
    194 H194       -4.1774  -20.0922  -43.6394 H         1 UNK         0.0600 
    195 H195       -3.3772  -22.5045  -44.0773 H         1 UNK         0.3000 
    196 H196       -5.3550  -24.3899  -43.3451 H         1 UNK         0.0600 
    197 H197       -3.2858  -24.0157  -42.0426 H         1 UNK         0.0600 
    198 H198       -2.2997  -24.6318  -43.3669 H         1 UNK         0.0600 
    199 H199       -3.3966  -25.7068  -42.5068 H         1 UNK         0.0600 
    200 H200       -2.9940  -24.4264  -46.0218 H         1 UNK         0.3000 
    201 H201       -3.7029  -27.0482  -47.0048 H         1 UNK         0.0600 
    202 H202       -1.4693  -25.9918  -47.3716 H         1 UNK         0.0600 
    203 H203       -2.2161  -24.7219  -48.3395 H         1 UNK         0.0600 
    204 H204       -2.2316  -26.3898  -48.9006 H         1 UNK         0.0600 
    205 H205       -5.4590  -24.1626  -47.1047 H         1 UNK         0.3000 
    206 H206       -7.1267  -23.2857  -48.2618 H         1 UNK         0.0600 
    207 H207       -8.2328  -25.4788  -47.7917 H         1 UNK         0.0600 
    208 H208       -8.7855  -24.7913  -49.3108 H         1 UNK         0.0600 
    209 H209       -7.6358  -26.1206  -49.3215 H         1 UNK         0.0600 
    210 H210       -4.7837  -22.6989  -49.3034 H         1 UNK         0.3000 
    211 H211       -3.6423  -21.9011  -50.9983 H         1 UNK         0.0600 
    212 H212       -6.1972  -22.1200  -52.6885 H         1 UNK         0.0600 
    213 H213       -4.7986  -21.1396  -53.0702 H         1 UNK         0.0600 
    214 H214       -5.7685  -20.7569  -51.6583 H         1 UNK         0.0600 
    215 H215       -3.9294  -24.8597  -50.5886 H         1 UNK         0.3000 
    216 H216       -3.1263  -26.7770  -51.2996 H         1 UNK         0.0600 
    217 H217       -1.4831  -26.9835  -53.0918 H         1 UNK         0.0600 
    218 H218       -1.8999  -25.4108  -53.7489 H         1 UNK         0.0600 
    219 H219       -1.1197  -25.5327  -52.1728 H         1 UNK         0.0600 
    220 H220       -5.7200  -25.5144  -52.2123 H         1 UNK         0.3000 
    221 H221       -7.5459  -25.8946  -53.3799 H         1 UNK         0.0600 
    222 H222       -6.5971  -28.7908  -53.1142 H         1 UNK         0.0600 
    223 H223       -7.4761  -27.8639  -51.9000 H         1 UNK         0.0600 
    224 H224       -8.2541  -28.2794  -53.4188 H         1 UNK         0.0600 
    225 H225       -6.2963  -25.7465  -56.8445 H         1 UNK         0.3000 
    226 H226       -5.8588  -24.1951  -54.3966 H         1 UNK         0.0600 
    227 H227       -8.3226  -24.0186  -54.6739 H         1 UNK         0.0600 
    228 H228       -7.5435  -22.5037  -55.0945 H         1 UNK         0.0600 
    229 H229       -8.1196  -23.5754  -56.3669 H         1 UNK         0.0600 
    230 H230       -3.8034  -24.7820  -55.6014 H         1 UNK         0.3000 
    231 H231       -3.2709  -23.5712  -58.1714 H         1 UNK         0.0600 
    232 H232       -1.4056  -24.8708  -56.1157 H         1 UNK         0.0600 
    233 H233       -0.9863  -24.4781  -57.7780 H         1 UNK         0.0600 
    234 H234       -2.2060  -25.6993  -57.4516 H         1 UNK         0.0600 
    235 H235       -2.8710  -22.5287  -54.8172 H         1 UNK         0.3000 
    236 H236       -1.0006  -20.3616  -55.4652 H         1 UNK         0.0600 
    237 H237       -0.9534  -21.6743  -53.2804 H         1 UNK         0.0600 
    238 H238       -1.0384  -19.9375  -53.0712 H         1 UNK         0.0600 
    239 H239       -2.4777  -20.9104  -52.8439 H         1 UNK         0.0600 
    240 H240       -1.7735  -18.2204  -54.1324 H         1 UNK         0.3000 
    241 H241       -3.6377  -16.9757  -55.8666 H         1 UNK         0.0600 
    242 H242       -4.4212  -18.6992  -52.9419 H         1 UNK         0.3800 
    243 H243       -6.0147  -18.0096  -52.7646 H         1 UNK         0.3800 
    244 H244       -3.1726  -14.9177  -54.5661 H         1 UNK         0.0800 
    245 H245       -1.7233  -15.7371  -55.0518 H         1 UNK         0.0800 
    246 H246        0.2081  -15.1980  -53.2092 H         1 UNK         0.0800 
    247 H247       -0.0549  -16.8944  -53.5450 H         1 UNK         0.0800 
@<TRIPOS>BOND
     1    1    2 1    
     2    1  127 1    
     3    1  128 1    
     4    1  129 1    
     5    2    3 2    
     6    2    4 am   BACKBONE|DICT|INTERRES
     7    4    5 1    
     8    4  130 1    
     9    5    6 1    
    10    5   65 1    
    11    5  131 1    
    12    6    7 1    
    13    6  132 1    
    14    6  133 1    
    15    7    8 1    
    16    8    9 1    
    17    8  134 1    
    18    8  135 1    
    19    9   10 ar   
    20    9   14 ar   
    21   10   11 ar   
    22   10  136 1    
    23   11   12 ar   
    24   11  126 1    
    25   12   13 ar   
    26   12  137 1    
    27   13   14 ar   
    28   13   15 1    
    29   14  138 1    
    30   15   16 1    
    31   15  139 1    
    32   15  140 1    
    33   16   17 1    
    34   17   18 1    
    35   17  141 1    
    36   17  142 1    
    37   18   19 1    
    38   18   67 1    
    39   18  143 1    
    40   19   20 am   BACKBONE|DICT|INTERRES
    41   19  144 1    
    42   20   21 2    
    43   20   22 1    
    44   22   23 1    
    45   22   24 1    
    46   22  145 1    
    47   23  146 1    
    48   23  147 1    
    49   23  148 1    
    50   24   25 am   BACKBONE|DICT|INTERRES
    51   24  149 1    
    52   25   26 2    
    53   25   27 1    
    54   27   28 1    
    55   27   29 1    
    56   27  150 1    
    57   28  151 1    
    58   28  152 1    
    59   28  153 1    
    60   29   30 am   BACKBONE|DICT|INTERRES
    61   29  154 1    
    62   30   31 2    
    63   30   32 1    
    64   32   33 1    
    65   32   34 1    
    66   32  155 1    
    67   33  156 1    
    68   33  157 1    
    69   33  158 1    
    70   34   35 am   BACKBONE|DICT|INTERRES
    71   34  159 1    
    72   35   36 2    
    73   35   37 1    
    74   37   38 1    
    75   37   39 1    
    76   37  160 1    
    77   38  161 1    
    78   38  162 1    
    79   38  163 1    
    80   39   40 am   BACKBONE|DICT|INTERRES
    81   39  164 1    
    82   40   41 2    
    83   40   42 1    
    84   42   43 1    
    85   42   44 1    
    86   42  165 1    
    87   43  166 1    
    88   43  167 1    
    89   43  168 1    
    90   44   45 am   BACKBONE|DICT|INTERRES
    91   44  169 1    
    92   45   46 2    
    93   45   47 1    
    94   47   48 1    
    95   47   49 1    
    96   47  170 1    
    97   48  171 1    
    98   48  172 1    
    99   48  173 1    
   100   49   50 am   BACKBONE|DICT|INTERRES
   101   49  174 1    
   102   50   51 2    
   103   50   52 1    
   104   52   53 1    
   105   52   54 1    
   106   52  175 1    
   107   53  176 1    
   108   53  177 1    
   109   53  178 1    
   110   54   55 am   BACKBONE|DICT|INTERRES
   111   54  179 1    
   112   55   56 2    
   113   55   57 1    
   114   57   58 1    
   115   57   59 1    
   116   57  180 1    
   117   58  181 1    
   118   58  182 1    
   119   58  183 1    
   120   59   60 am   BACKBONE|DICT|INTERRES
   121   59  184 1    
   122   60   61 2    
   123   60   62 1    
   124   62   63 1    
   125   62   64 1    
   126   62  185 1    
   127   63  186 1    
   128   63  187 1    
   129   63  188 1    
   130   64   65 am   BACKBONE|DICT|INTERRES
   131   64  189 1    
   132   65   66 2    
   133   67   68 2    
   134   67   69 am   BACKBONE|DICT|INTERRES
   135   69   70 1    
   136   69  190 1    
   137   70   71 1    
   138   70   72 1    
   139   70  191 1    
   140   71  192 1    
   141   71  193 1    
   142   71  194 1    
   143   72   73 2    
   144   72   74 am   BACKBONE|DICT|INTERRES
   145   74   75 1    
   146   74  195 1    
   147   75   76 1    
   148   75   77 1    
   149   75  196 1    
   150   76  197 1    
   151   76  198 1    
   152   76  199 1    
   153   77   78 2    
   154   77   79 am   BACKBONE|DICT|INTERRES
   155   79   80 1    
   156   79  200 1    
   157   80   81 1    
   158   80   82 1    
   159   80  201 1    
   160   81  202 1    
   161   81  203 1    
   162   81  204 1    
   163   82   83 2    
   164   82   84 am   BACKBONE|DICT|INTERRES
   165   84   85 1    
   166   84  205 1    
   167   85   86 1    
   168   85   87 1    
   169   85  206 1    
   170   86  207 1    
   171   86  208 1    
   172   86  209 1    
   173   87   88 2    
   174   87   89 am   BACKBONE|DICT|INTERRES
   175   89   90 1    
   176   89  210 1    
   177   90   91 1    
   178   90   92 1    
   179   90  211 1    
   180   91  212 1    
   181   91  213 1    
   182   91  214 1    
   183   92   93 2    
   184   92   94 am   BACKBONE|DICT|INTERRES
   185   94   95 1    
   186   94  215 1    
   187   95   96 1    
   188   95   97 1    
   189   95  216 1    
   190   96  217 1    
   191   96  218 1    
   192   96  219 1    
   193   97   98 2    
   194   97   99 am   BACKBONE|DICT|INTERRES
   195   99  100 1    
   196   99  220 1    
   197  100  101 1    
   198  100  102 1    
   199  100  221 1    
   200  101  222 1    
   201  101  223 1    
   202  101  224 1    
   203  102  103 2    
   204  102  104 am   BACKBONE|DICT|INTERRES
   205  104  105 1    
   206  104  225 1    
   207  105  106 1    
   208  105  107 1    
   209  105  226 1    
   210  106  227 1    
   211  106  228 1    
   212  106  229 1    
   213  107  108 2    
   214  107  109 am   BACKBONE|DICT|INTERRES
   215  109  110 1    
   216  109  230 1    
   217  110  111 1    
   218  110  112 1    
   219  110  231 1    
   220  111  232 1    
   221  111  233 1    
   222  111  234 1    
   223  112  113 2    
   224  112  114 am   BACKBONE|DICT|INTERRES
   225  114  115 1    
   226  114  235 1    
   227  115  116 1    
   228  115  117 1    
   229  115  236 1    
   230  116  237 1    
   231  116  238 1    
   232  116  239 1    
   233  117  118 2    
   234  117  119 am   BACKBONE|DICT|INTERRES
   235  119  120 1    
   236  119  240 1    
   237  120  121 1    
   238  120  124 1    
   239  120  241 1    
   240  121  122 am   BACKBONE|DICT|INTERRES
   241  121  123 2    
   242  122  242 1    
   243  122  243 1    
   244  124  125 1    
   245  124  244 1    
   246  124  245 1    
   247  125  126 1    
   248  126  246 1    
   249  126  247 1    
@<TRIPOS>SUBSTRUCTURE
     1 UNK         1 GROUP             0       ****    0 ROOT    
