@<TRIPOS>MOLECULE
3R540
247   249    1
SMALL
USER_CHARGES


@<TRIPOS>ATOM
      1 CA          2.8912  -10.5824  -49.6873 C.3       0 UNK        -0.1800 
      2 C           2.4676  -11.1608  -48.3460 C.2       0 UNK         0.5000 
      3 O           1.7034  -10.5269  -47.6188 O.2       0 UNK        -0.5000 
      4 N           2.9339  -12.3746  -48.0227 N.am      1 UNK        -0.5000 
      5 CA          2.6852  -13.0722  -46.7504 C.3       1 UNK         0.1400 
      6 C6          3.7624  -14.1678  -46.4861 C.3       23 UNK        -0.0398 
      7 S7          3.3438  -15.8948  -46.9109 S.3       23 UNK        -0.2404 
      8 C8          3.5454  -15.9143  -48.7167 C.3       23 UNK        -0.0205 
      9 C9          2.8755  -17.1474  -49.2993 C.ar      23 UNK        -0.0193 
     10 C10         1.5459  -17.0867  -49.7232 C.ar      23 UNK        -0.1150 
     11 C11         0.8952  -18.2330  -50.1857 C.ar      23 UNK        -0.0193 
     12 C12         1.5982  -19.4383  -50.2593 C.ar      23 UNK        -0.1150 
     13 C13         2.9354  -19.5143  -49.8482 C.ar      23 UNK        -0.0193 
     14 C14         3.5656  -18.3600  -49.3720 C.ar      23 UNK        -0.1150 
     15 C15         3.7271  -20.8213  -49.9035 C.3       23 UNK        -0.0205 
     16 S16         2.7457  -22.3354  -49.6199 S.3       23 UNK        -0.2404 
     17 C17         2.0207  -21.9901  -47.9815 C.3       23 UNK        -0.0398 
     18 CA          1.2475  -23.1845  -47.3760 C.3       11 UNK         0.1400 
     19 N           0.8625  -22.9011  -45.9939 N.am      11 UNK        -0.5000 
     20 C           0.2982  -23.7716  -45.1473 C.2       10 UNK         0.5000 
     21 O           0.0705  -24.9503  -45.4200 O.2       10 UNK        -0.5000 
     22 CA         -0.1218  -23.2089  -43.7792 C.3       10 UNK         0.1400 
     23 CB          1.0842  -23.1098  -42.8327 C.3       10 UNK        -0.1800 
     24 N          -0.7585  -21.8964  -43.8985 N.am      10 UNK        -0.5000 
     25 C          -1.9611  -21.6866  -44.4515 C.2       9 UNK         0.5000 
     26 O          -2.6698  -22.5811  -44.9098 O.2       9 UNK        -0.5000 
     27 CA         -2.4325  -20.2255  -44.5442 C.3       9 UNK         0.1400 
     28 CB         -2.9719  -19.7347  -43.1927 C.3       9 UNK        -0.1800 
     29 N          -1.3763  -19.3249  -45.0023 N.am      9 UNK        -0.5000 
     30 C          -0.8337  -19.3647  -46.2267 C.2       8 UNK         0.5000 
     31 O          -1.1535  -20.1701  -47.0982 O.2       8 UNK        -0.5000 
     32 CA          0.2756  -18.3467  -46.5197 C.3       8 UNK         0.1400 
     33 CB         -0.3563  -16.9886  -46.8454 C.3       8 UNK        -0.1800 
     34 N           1.2393  -18.1750  -45.4339 N.am      8 UNK        -0.5000 
     35 C           1.9207  -19.1462  -44.8123 C.2       7 UNK         0.5000 
     36 O           1.7939  -20.3443  -45.0684 O.2       7 UNK        -0.5000 
     37 CA          2.9099  -18.7197  -43.7103 C.3       7 UNK         0.1400 
     38 CB          4.3541  -18.8830  -44.2084 C.3       7 UNK        -0.1800 
     39 N           2.7405  -17.3522  -43.2040 N.am      7 UNK        -0.5000 
     40 C           1.6689  -16.8736  -42.5555 C.2       6 UNK         0.5000 
     41 O           0.6275  -17.5136  -42.3972 O.2       6 UNK        -0.5000 
     42 CA          1.7715  -15.4511  -41.9773 C.3       6 UNK         0.1400 
     43 CB          3.1666  -14.8043  -42.1020 C.3       6 UNK        -0.1800 
     44 N           0.7864  -14.5960  -42.6279 N.am      6 UNK        -0.5000 
     45 C           0.0141  -13.6967  -42.0113 C.2       5 UNK         0.5000 
     46 O           0.0287  -13.4827  -40.7966 O.2       5 UNK        -0.5000 
     47 CA         -0.9340  -12.8917  -42.9216 C.3       5 UNK         0.1400 
     48 CB         -2.3504  -12.8216  -42.3269 C.3       5 UNK        -0.1800 
     49 N          -0.4921  -11.5284  -43.2322 N.am      5 UNK        -0.5000 
     50 C           0.7380  -11.0844  -43.5359 C.2       4 UNK         0.5000 
     51 O           1.7720  -11.7486  -43.4632 O.2       4 UNK        -0.5000 
     52 CA          0.7893   -9.6564  -44.1111 C.3       4 UNK         0.1400 
     53 CB          2.2258   -9.1396  -44.3091 C.3       4 UNK        -0.1800 
     54 N           0.1096   -9.6552  -45.4040 N.am      4 UNK        -0.5000 
     55 C          -1.2073   -9.4974  -45.5864 C.2       3 UNK         0.5000 
     56 O          -1.9913   -9.1926  -44.6868 O.2       3 UNK        -0.5000 
     57 CA         -1.7373   -9.8239  -46.9902 C.3       3 UNK         0.1400 
     58 CB         -1.3291   -8.7468  -48.0081 C.3       3 UNK        -0.1800 
     59 N          -1.2388  -11.1296  -47.4238 N.am      3 UNK        -0.5000 
     60 C          -1.7852  -12.3038  -47.0738 C.2       2 UNK         0.5000 
     61 O          -2.8112  -12.4050  -46.4012 O.2       2 UNK        -0.5000 
     62 CA         -1.0650  -13.5823  -47.5408 C.3       2 UNK         0.1400 
     63 CB         -1.5801  -14.0248  -48.9189 C.3       2 UNK        -0.1800 
     64 N           0.3850  -13.4003  -47.6032 N.am      2 UNK        -0.5000 
     65 C           1.2168  -13.5375  -46.5603 C.2       1 UNK         0.5000 
     66 O           0.8675  -14.0118  -45.4787 O.2       1 UNK        -0.5000 
     67 C           0.0253  -23.5950  -48.2263 C.2       11 UNK         0.5000 
     68 O           0.0625  -24.6354  -48.8841 O.2       11 UNK        -0.5000 
     69 N          -1.0554  -22.8060  -48.1549 N.am      12 UNK        -0.5000 
     70 CA         -2.3132  -23.0785  -48.8443 C.3       12 UNK         0.1400 
     71 CB         -3.2315  -21.8597  -48.7412 C.3       12 UNK        -0.1800 
     72 C          -3.0170  -24.3479  -48.3377 C.2       12 UNK         0.5000 
     73 O          -3.5446  -25.0983  -49.1556 O.2       12 UNK        -0.5000 
     74 N          -2.9749  -24.6036  -47.0216 N.am      13 UNK        -0.5000 
     75 CA         -3.4923  -25.8305  -46.4110 C.3       13 UNK         0.1400 
     76 CB         -3.4566  -25.7174  -44.8799 C.3       13 UNK        -0.1800 
     77 C          -2.7442  -27.0900  -46.8848 C.2       13 UNK         0.5000 
     78 O          -3.3885  -28.0952  -47.1847 O.2       13 UNK        -0.5000 
     79 N          -1.4103  -27.0007  -46.9918 N.am      14 UNK        -0.5000 
     80 CA         -0.5506  -28.0540  -47.5370 C.3       14 UNK         0.1400 
     81 CB          0.9209  -27.7122  -47.2584 C.3       14 UNK        -0.1800 
     82 C          -0.7854  -28.2976  -49.0412 C.2       14 UNK         0.5000 
     83 O          -0.7670  -29.4481  -49.4800 O.2       14 UNK        -0.5000 
     84 N          -1.0330  -27.2181  -49.7958 N.am      15 UNK        -0.5000 
     85 CA         -1.3846  -27.2496  -51.2183 C.3       15 UNK         0.1400 
     86 CB         -1.1668  -25.8487  -51.8134 C.3       15 UNK        -0.1800 
     87 C          -2.8282  -27.7241  -51.4920 C.2       15 UNK         0.5000 
     88 O          -3.1387  -28.0565  -52.6366 O.2       15 UNK        -0.5000 
     89 N          -3.6775  -27.7271  -50.4532 N.am      16 UNK        -0.5000 
     90 CA         -5.1230  -27.9745  -50.4692 C.3       16 UNK         0.1400 
     91 CB         -5.4355  -29.4288  -50.8792 C.3       16 UNK        -0.1800 
     92 C          -5.8780  -26.9196  -51.3072 C.2       16 UNK         0.5000 
     93 O          -6.7356  -27.2636  -52.1235 O.2       16 UNK        -0.5000 
     94 N          -5.5190  -25.6496  -51.0951 N.am      17 UNK        -0.5000 
     95 CA         -6.0243  -24.4771  -51.8010 C.3       17 UNK         0.1400 
     96 CB         -4.8898  -23.9380  -52.6889 C.3       17 UNK        -0.1800 
     97 C          -6.4864  -23.4028  -50.8012 C.2       17 UNK         0.5000 
     98 O          -6.3203  -23.5600  -49.5892 O.2       17 UNK        -0.5000 
     99 N          -7.0499  -22.3124  -51.3341 N.am      18 UNK        -0.5000 
    100 CA        -7.3591  -21.0941  -50.5868 C.3       18 UNK         0.1400 
    101 CB        -8.4218  -20.2970  -51.3593 C.3       18 UNK        -0.1800 
    102 C         -6.0940  -20.2381  -50.3987 C.2       18 UNK         0.5000 
    103 O         -5.2006  -20.2702  -51.2498 O.2       18 UNK        -0.5000 
    104 N         -6.0611  -19.4360  -49.3264 N.am      19 UNK        -0.5000 
    105 CA        -4.9518  -18.5320  -48.9912 C.3       19 UNK         0.1400 
    106 CB        -5.1691  -17.9619  -47.5814 C.3       19 UNK        -0.1800 
    107 C         -4.7242  -17.3987  -50.0125 C.2       19 UNK         0.5000 
    108 O         -3.6272  -16.8466  -50.0624 O.2       19 UNK        -0.5000 
    109 N         -5.7506  -17.0819  -50.8123 N.am      20 UNK        -0.5000 
    110 CA        -5.6675  -16.1448  -51.9325 C.3       20 UNK         0.1400 
    111 CB        -7.0526  -15.5134  -52.1450 C.3       20 UNK        -0.1800 
    112 C         -5.1801  -16.8123  -53.2356 C.2       20 UNK         0.5000 
    113 O         -4.7387  -16.1019  -54.1397 O.2       20 UNK        -0.5000 
    114 N         -5.2929  -18.1452  -53.3294 N.am      21 UNK        -0.5000 
    115 CA        -4.9285  -18.9295  -54.5100 C.3       21 UNK         0.1400 
    116 CB        -5.9276  -20.0857  -54.6783 C.3       21 UNK        -0.1800 
    117 C         -3.4919  -19.4671  -54.4144 C.2       21 UNK         0.5000 
    118 O         -2.7775  -19.4575  -55.4169 O.2       21 UNK        -0.5000 
    119 N         -3.1027  -19.9244  -53.2163 N.am      22 UNK        -0.5000 
    120 CA        -1.7696  -20.4498  -52.8617 C.3       22 UNK         0.1400 
    121 C         -1.4088  -21.8378  -53.4740 C.2       22 UNK         0.5000 
    122 N         -2.2964  -22.5028  -54.2016 N.am      22 UNK        -0.7600 
    123 O         -0.3090  -22.3386  -53.2598 O.2       22 UNK        -0.5000 
    124 C124       -0.6160  -19.4232  -53.0705 C.3       23 UNK        -0.0398 
    125 S125       -0.9033  -17.8052  -52.2760 S.3       23 UNK        -0.2404 
    126 C126       -0.5862  -18.1806  -50.5251 C.3       23 UNK        -0.0205 
    127 H127        2.0140  -10.3803  -50.3019 H         1 UNK         0.0600 
    128 H128        3.5428  -11.2630  -50.2356 H         1 UNK         0.0600 
    129 H129        3.4262   -9.6448  -49.5369 H         1 UNK         0.0600 
    130 H130        3.5503  -12.8469  -48.6680 H         1 UNK         0.3000 
    131 H131        2.8330  -12.3169  -45.9752 H         1 UNK         0.0600 
    132 H132        4.7110  -13.9066  -46.9573 H         1 UNK         0.0800 
    133 H133        3.9801  -14.1741  -45.4178 H         1 UNK         0.0800 
    134 H134        4.6066  -15.8989  -48.9693 H         1 UNK         0.0800 
    135 H135        3.1041  -15.0171  -49.1512 H         1 UNK         0.0800 
    136 H136        1.0034  -16.1548  -49.6516 H         1 UNK         0.1150 
    137 H137        1.0911  -20.3252  -50.6102 H         1 UNK         0.1150 
    138 H138        4.5927  -18.4064  -49.0377 H         1 UNK         0.1150 
    139 H139        4.2017  -20.8944  -50.8826 H         1 UNK         0.0800 
    140 H140        4.5348  -20.8007  -49.1701 H         1 UNK         0.0800 
    141 H141        1.3708  -21.1172  -48.0493 H         1 UNK         0.0800 
    142 H142        2.8355  -21.7058  -47.3138 H         1 UNK         0.0800 
    143 H143        1.9241  -24.0413  -47.3459 H         1 UNK         0.0600 
    144 H144        1.0415  -21.9558  -45.6631 H         1 UNK         0.3000 
    145 H145       -0.8437  -23.9004  -43.3398 H         1 UNK         0.0600 
    146 H146        0.7801  -22.7740  -41.8412 H         1 UNK         0.0600 
    147 H147        1.5656  -24.0812  -42.7130 H         1 UNK         0.0600 
    148 H148        1.8370  -22.4145  -43.2059 H         1 UNK         0.0600 
    149 H149       -0.2162  -21.0981  -43.6026 H         1 UNK         0.3000 
    150 H150       -3.2474  -20.1858  -45.2705 H         1 UNK         0.0600 
    151 H151       -3.7659  -20.3880  -42.8287 H         1 UNK         0.0600 
    152 H152       -3.3905  -18.7316  -43.2773 H         1 UNK         0.0600 
    153 H153       -2.1914  -19.7086  -42.4311 H         1 UNK         0.0600 
    154 H154       -1.0264  -18.6475  -44.3389 H         1 UNK         0.3000 
    155 H155        0.8274  -18.7007  -47.3907 H         1 UNK         0.0600 
    156 H156       -0.8071  -16.5362  -45.9615 H         1 UNK         0.0600 
    157 H157        0.3876  -16.2964  -47.2332 H         1 UNK         0.0600 
    158 H158       -1.1377  -17.0820  -47.6000 H         1 UNK         0.0600 
    159 H159        1.4404  -17.2234  -45.1649 H         1 UNK         0.3000 
    160 H160        2.7596  -19.4013  -42.8708 H         1 UNK         0.0600 
    161 H161        4.5358  -19.8996  -44.5602 H         1 UNK         0.0600 
    162 H162        4.5714  -18.2067  -45.0363 H         1 UNK         0.0600 
    163 H163        5.0725  -18.6841  -43.4130 H         1 UNK         0.0600 
    164 H164        3.5413  -16.7454  -43.3029 H         1 UNK         0.3000 
    165 H165        1.5378  -15.5454  -40.9149 H         1 UNK         0.0600 
    166 H166        3.1830  -13.8276  -41.6176 H         1 UNK         0.0600 
    167 H167        3.9336  -15.4117  -41.6200 H         1 UNK         0.0600 
    168 H168        3.4530  -14.6535  -43.1427 H         1 UNK         0.0600 
    169 H169        0.7508  -14.6407  -43.6435 H         1 UNK         0.3000 
    170 H170       -1.0220  -13.4183  -43.8723 H         1 UNK         0.0600 
    171 H171       -2.7215  -13.8174  -42.0810 H         1 UNK         0.0600 
    172 H172       -2.3748  -12.2260  -41.4135 H         1 UNK         0.0600 
    173 H173       -3.0532  -12.3805  -43.0344 H         1 UNK         0.0600 
    174 H174       -1.2432  -10.8626  -43.3607 H         1 UNK         0.3000 
    175 H175        0.2803   -8.9872  -43.4143 H         1 UNK         0.0600 
    176 H176        2.7856   -9.7587  -45.0115 H         1 UNK         0.0600 
    177 H177        2.2259   -8.1192  -44.6924 H         1 UNK         0.0600 
    178 H178        2.7722   -9.1334  -43.3652 H         1 UNK         0.0600 
    179 H179        0.6756   -9.9425  -46.2000 H         1 UNK         0.3000 
    180 H180       -2.8283   -9.8488  -46.9462 H         1 UNK         0.0600 
    181 H181       -0.2463   -8.6693  -48.1111 H         1 UNK         0.0600 
    182 H182       -1.7005   -7.7667  -47.7063 H         1 UNK         0.0600 
    183 H183       -1.7431   -8.9617  -48.9933 H         1 UNK         0.0600 
    184 H184       -0.3505  -11.1268  -47.9066 H         1 UNK         0.3000 
    185 H185       -1.3049  -14.3666  -46.8221 H         1 UNK         0.0600 
    186 H186       -1.1209  -14.9628  -49.2299 H         1 UNK         0.0600 
    187 H187       -2.6586  -14.1879  -48.8989 H         1 UNK         0.0600 
    188 H188       -1.3741  -13.2791  -49.6875 H         1 UNK         0.0600 
    189 H189        0.7642  -13.0376  -48.4647 H         1 UNK         0.3000 
    190 H190       -1.0198  -21.9468  -47.6107 H         1 UNK         0.3000 
    191 H191       -2.0844  -23.2293  -49.9010 H         1 UNK         0.0600 
    192 H192       -3.4602  -21.6078  -47.7050 H         1 UNK         0.0600 
    193 H193       -4.1737  -22.0444  -49.2525 H         1 UNK         0.0600 
    194 H194       -2.7697  -20.9926  -49.2116 H         1 UNK         0.0600 
    195 H195       -2.5765  -23.9140  -46.3922 H         1 UNK         0.3000 
    196 H196       -4.5360  -25.9346  -46.7151 H         1 UNK         0.0600 
    197 H197       -3.8336  -26.6275  -44.4117 H         1 UNK         0.0600 
    198 H198       -4.0792  -24.8933  -44.5319 H         1 UNK         0.0600 
    199 H199       -2.4446  -25.5529  -44.5103 H         1 UNK         0.0600 
    200 H200       -0.9491  -26.1503  -46.6828 H         1 UNK         0.3000 
    201 H201       -0.7859  -28.9821  -47.0119 H         1 UNK         0.0600 
    202 H202        1.1053  -27.6102  -46.1888 H         1 UNK         0.0600 
    203 H203        1.2174  -26.7790  -47.7375 H         1 UNK         0.0600 
    204 H204        1.5813  -28.4968  -47.6298 H         1 UNK         0.0600 
    205 H205       -0.9510  -26.3001  -49.3693 H         1 UNK         0.3000 
    206 H206       -0.7091  -27.9429  -51.7235 H         1 UNK         0.0600 
    207 H207       -0.1451  -25.5027  -51.6548 H         1 UNK         0.0600 
    208 H208       -1.3469  -25.8466  -52.8890 H         1 UNK         0.0600 
    209 H209       -1.8407  -25.1155  -51.3706 H         1 UNK         0.0600 
    210 H210       -3.3150  -27.3847  -49.5730 H         1 UNK         0.3000 
    211 H211       -5.4618  -27.8446  -49.4403 H         1 UNK         0.0600 
    212 H212       -5.1758  -29.6251  -51.9196 H         1 UNK         0.0600 
    213 H213       -6.4978  -29.6455  -50.7623 H         1 UNK         0.0600 
    214 H214       -4.8894  -30.1381  -50.2572 H         1 UNK         0.0600 
    215 H215       -4.8407  -25.4491  -50.3601 H         1 UNK         0.3000 
    216 H216       -6.8790  -24.7427  -52.4262 H         1 UNK         0.0600 
    217 H217       -5.2235  -23.0994  -53.2996 H         1 UNK         0.0600 
    218 H218       -4.5233  -24.7066  -53.3698 H         1 UNK         0.0600 
    219 H219       -4.0446  -23.5946  -52.0901 H         1 UNK         0.0600 
    220 H220       -7.1323  -22.2491  -52.3376 H         1 UNK         0.3000 
    221 H221       -7.7600  -21.3611  -49.6066 H         1 UNK         0.0600 
    222 H222       -8.0633  -19.9888  -52.3423 H         1 UNK         0.0600 
    223 H223       -9.3272  -20.8869  -51.5040 H         1 UNK         0.0600 
    224 H224       -8.7085  -19.3952  -50.8169 H         1 UNK         0.0600 
    225 H225       -6.8373  -19.4485  -48.6802 H         1 UNK         0.3000 
    226 H226       -4.0336  -19.1189  -48.9722 H         1 UNK         0.0600 
    227 H227       -5.2239  -18.7580  -46.8386 H         1 UNK         0.0600 
    228 H228       -4.3441  -17.3089  -47.2925 H         1 UNK         0.0600 
    229 H229       -6.0882  -17.3780  -47.5207 H         1 UNK         0.0600 
    230 H230       -6.6296  -17.5586  -50.6796 H         1 UNK         0.3000 
    231 H231       -4.9648  -15.3454  -51.6873 H         1 UNK         0.0600 
    232 H232       -7.0297  -14.7838  -52.9557 H         1 UNK         0.0600 
    233 H233       -7.3891  -14.9909  -51.2493 H         1 UNK         0.0600 
    234 H234       -7.8029  -16.2631  -52.3993 H         1 UNK         0.0600 
    235 H235       -5.5790  -18.6706  -52.5141 H         1 UNK         0.3000 
    236 H236       -4.9927  -18.3044  -55.4033 H         1 UNK         0.0600 
    237 H237       -6.9438  -19.7112  -54.8018 H         1 UNK         0.0600 
    238 H238       -5.6913  -20.6802  -55.5617 H         1 UNK         0.0600 
    239 H239       -5.9209  -20.7568  -53.8198 H         1 UNK         0.0600 
    240 H240       -3.7887  -19.9451  -52.4667 H         1 UNK         0.3000 
    241 H241       -1.8349  -20.6503  -51.7926 H         1 UNK         0.0600 
    242 H242       -3.1947  -22.0988  -54.4046 H         1 UNK         0.3800 
    243 H243       -2.0462  -23.3994  -54.5860 H         1 UNK         0.3800 
    244 H244        0.3318  -19.8221  -52.7110 H         1 UNK         0.0800 
    245 H245       -0.4640  -19.2437  -54.1354 H         1 UNK         0.0800 
    246 H246       -1.0621  -17.4035  -49.9281 H         1 UNK         0.0800 
    247 H247       -1.0761  -19.1109  -50.2366 H         1 UNK         0.0800 
@<TRIPOS>BOND
     1    1    2 1    
     2    1  127 1    
     3    1  128 1    
     4    1  129 1    
     5    2    3 2    
     6    2    4 am   BACKBONE|DICT|INTERRES
     7    4    5 1    
     8    4  130 1    
     9    5    6 1    
    10    5   65 1    
    11    5  131 1    
    12    6    7 1    
    13    6  132 1    
    14    6  133 1    
    15    7    8 1    
    16    8    9 1    
    17    8  134 1    
    18    8  135 1    
    19    9   10 ar   
    20    9   14 ar   
    21   10   11 ar   
    22   10  136 1    
    23   11   12 ar   
    24   11  126 1    
    25   12   13 ar   
    26   12  137 1    
    27   13   14 ar   
    28   13   15 1    
    29   14  138 1    
    30   15   16 1    
    31   15  139 1    
    32   15  140 1    
    33   16   17 1    
    34   17   18 1    
    35   17  141 1    
    36   17  142 1    
    37   18   19 1    
    38   18   67 1    
    39   18  143 1    
    40   19   20 am   BACKBONE|DICT|INTERRES
    41   19  144 1    
    42   20   21 2    
    43   20   22 1    
    44   22   23 1    
    45   22   24 1    
    46   22  145 1    
    47   23  146 1    
    48   23  147 1    
    49   23  148 1    
    50   24   25 am   BACKBONE|DICT|INTERRES
    51   24  149 1    
    52   25   26 2    
    53   25   27 1    
    54   27   28 1    
    55   27   29 1    
    56   27  150 1    
    57   28  151 1    
    58   28  152 1    
    59   28  153 1    
    60   29   30 am   BACKBONE|DICT|INTERRES
    61   29  154 1    
    62   30   31 2    
    63   30   32 1    
    64   32   33 1    
    65   32   34 1    
    66   32  155 1    
    67   33  156 1    
    68   33  157 1    
    69   33  158 1    
    70   34   35 am   BACKBONE|DICT|INTERRES
    71   34  159 1    
    72   35   36 2    
    73   35   37 1    
    74   37   38 1    
    75   37   39 1    
    76   37  160 1    
    77   38  161 1    
    78   38  162 1    
    79   38  163 1    
    80   39   40 am   BACKBONE|DICT|INTERRES
    81   39  164 1    
    82   40   41 2    
    83   40   42 1    
    84   42   43 1    
    85   42   44 1    
    86   42  165 1    
    87   43  166 1    
    88   43  167 1    
    89   43  168 1    
    90   44   45 am   BACKBONE|DICT|INTERRES
    91   44  169 1    
    92   45   46 2    
    93   45   47 1    
    94   47   48 1    
    95   47   49 1    
    96   47  170 1    
    97   48  171 1    
    98   48  172 1    
    99   48  173 1    
   100   49   50 am   BACKBONE|DICT|INTERRES
   101   49  174 1    
   102   50   51 2    
   103   50   52 1    
   104   52   53 1    
   105   52   54 1    
   106   52  175 1    
   107   53  176 1    
   108   53  177 1    
   109   53  178 1    
   110   54   55 am   BACKBONE|DICT|INTERRES
   111   54  179 1    
   112   55   56 2    
   113   55   57 1    
   114   57   58 1    
   115   57   59 1    
   116   57  180 1    
   117   58  181 1    
   118   58  182 1    
   119   58  183 1    
   120   59   60 am   BACKBONE|DICT|INTERRES
   121   59  184 1    
   122   60   61 2    
   123   60   62 1    
   124   62   63 1    
   125   62   64 1    
   126   62  185 1    
   127   63  186 1    
   128   63  187 1    
   129   63  188 1    
   130   64   65 am   BACKBONE|DICT|INTERRES
   131   64  189 1    
   132   65   66 2    
   133   67   68 2    
   134   67   69 am   BACKBONE|DICT|INTERRES
   135   69   70 1    
   136   69  190 1    
   137   70   71 1    
   138   70   72 1    
   139   70  191 1    
   140   71  192 1    
   141   71  193 1    
   142   71  194 1    
   143   72   73 2    
   144   72   74 am   BACKBONE|DICT|INTERRES
   145   74   75 1    
   146   74  195 1    
   147   75   76 1    
   148   75   77 1    
   149   75  196 1    
   150   76  197 1    
   151   76  198 1    
   152   76  199 1    
   153   77   78 2    
   154   77   79 am   BACKBONE|DICT|INTERRES
   155   79   80 1    
   156   79  200 1    
   157   80   81 1    
   158   80   82 1    
   159   80  201 1    
   160   81  202 1    
   161   81  203 1    
   162   81  204 1    
   163   82   83 2    
   164   82   84 am   BACKBONE|DICT|INTERRES
   165   84   85 1    
   166   84  205 1    
   167   85   86 1    
   168   85   87 1    
   169   85  206 1    
   170   86  207 1    
   171   86  208 1    
   172   86  209 1    
   173   87   88 2    
   174   87   89 am   BACKBONE|DICT|INTERRES
   175   89   90 1    
   176   89  210 1    
   177   90   91 1    
   178   90   92 1    
   179   90  211 1    
   180   91  212 1    
   181   91  213 1    
   182   91  214 1    
   183   92   93 2    
   184   92   94 am   BACKBONE|DICT|INTERRES
   185   94   95 1    
   186   94  215 1    
   187   95   96 1    
   188   95   97 1    
   189   95  216 1    
   190   96  217 1    
   191   96  218 1    
   192   96  219 1    
   193   97   98 2    
   194   97   99 am   BACKBONE|DICT|INTERRES
   195   99  100 1    
   196   99  220 1    
   197  100  101 1    
   198  100  102 1    
   199  100  221 1    
   200  101  222 1    
   201  101  223 1    
   202  101  224 1    
   203  102  103 2    
   204  102  104 am   BACKBONE|DICT|INTERRES
   205  104  105 1    
   206  104  225 1    
   207  105  106 1    
   208  105  107 1    
   209  105  226 1    
   210  106  227 1    
   211  106  228 1    
   212  106  229 1    
   213  107  108 2    
   214  107  109 am   BACKBONE|DICT|INTERRES
   215  109  110 1    
   216  109  230 1    
   217  110  111 1    
   218  110  112 1    
   219  110  231 1    
   220  111  232 1    
   221  111  233 1    
   222  111  234 1    
   223  112  113 2    
   224  112  114 am   BACKBONE|DICT|INTERRES
   225  114  115 1    
   226  114  235 1    
   227  115  116 1    
   228  115  117 1    
   229  115  236 1    
   230  116  237 1    
   231  116  238 1    
   232  116  239 1    
   233  117  118 2    
   234  117  119 am   BACKBONE|DICT|INTERRES
   235  119  120 1    
   236  119  240 1    
   237  120  121 1    
   238  120  124 1    
   239  120  241 1    
   240  121  122 am   BACKBONE|DICT|INTERRES
   241  121  123 2    
   242  122  242 1    
   243  122  243 1    
   244  124  125 1    
   245  124  244 1    
   246  124  245 1    
   247  125  126 1    
   248  126  246 1    
   249  126  247 1    
@<TRIPOS>SUBSTRUCTURE
     1 UNK         1 GROUP             0       ****    0 ROOT    
