@<TRIPOS>MOLECULE
3R540
247   249    1
SMALL
USER_CHARGES


@<TRIPOS>ATOM
      1 CA         -2.8107  -13.3801  -48.2565 C.3       0 UNK        -0.1800 
      2 C          -1.5748  -13.6924  -47.4258 C.2       0 UNK         0.5000 
      3 O          -1.2602  -12.9560  -46.4924 O.2       0 UNK        -0.5000 
      4 N          -0.8837  -14.7960  -47.7423 N.am      1 UNK        -0.5000 
      5 CA          0.3555  -15.2433  -47.0847 C.3       1 UNK         0.1400 
      6 C6          1.0536  -16.3553  -47.9083 C.3       23 UNK        -0.0398 
      7 S7          2.8728  -16.2431  -47.8310 S.3       23 UNK        -0.2404 
      8 C8          3.3514  -16.7889  -49.4983 C.3       23 UNK        -0.0205 
      9 C9          2.8906  -18.2099  -49.7870 C.ar      23 UNK        -0.0193 
     10 C10         1.7963  -18.4360  -50.6246 C.ar      23 UNK        -0.1150 
     11 C11         1.3749  -19.7368  -50.9083 C.ar      23 UNK        -0.0193 
     12 C12         2.0641  -20.8200  -50.3527 C.ar      23 UNK        -0.1150 
     13 C13         3.1681  -20.6090  -49.5159 C.ar      23 UNK        -0.0193 
     14 C14         3.5701  -19.2991  -49.2351 C.ar      23 UNK        -0.1150 
     15 C15         3.9868  -21.7746  -48.9662 C.3       23 UNK        -0.0205 
     16 S16         2.9952  -23.1742  -48.3509 S.3       23 UNK        -0.2404 
     17 C17         2.2917  -22.4846  -46.8172 C.3       23 UNK        -0.0398 
     18 CA          0.9683  -23.1899  -46.4344 C.3       11 UNK         0.1400 
     19 N           0.6876  -23.1086  -44.9999 N.am      11 UNK        -0.5000 
     20 C          -0.2052  -23.8770  -44.3591 C.2       10 UNK         0.5000 
     21 O          -0.8605  -24.7648  -44.9032 O.2       10 UNK        -0.5000 
     22 CA         -0.4321  -23.5743  -42.8666 C.3       10 UNK         0.1400 
     23 CB          0.6216  -24.2825  -42.0024 C.3       10 UNK        -0.1800 
     24 N          -0.4145  -22.1398  -42.5773 N.am      10 UNK        -0.5000 
     25 C          -1.3295  -21.2713  -43.0290 C.2       9 UNK         0.5000 
     26 O          -2.3052  -21.5938  -43.7045 O.2       9 UNK        -0.5000 
     27 CA         -1.0834  -19.7850  -42.7264 C.3       9 UNK         0.1400 
     28 CB         -1.6667  -19.3941  -41.3613 C.3       9 UNK        -0.1800 
     29 N           0.3272  -19.3973  -42.7826 N.am      9 UNK        -0.5000 
     30 C           1.1069  -19.4761  -43.8697 C.2       8 UNK         0.5000 
     31 O           0.7322  -19.9677  -44.9358 O.2       8 UNK        -0.5000 
     32 CA          2.5295  -18.9012  -43.7359 C.3       8 UNK         0.1400 
     33 CB          3.2478  -18.7980  -45.0913 C.3       8 UNK        -0.1800 
     34 N           2.4981  -17.5769  -43.1142 N.am      8 UNK        -0.5000 
     35 C           2.6002  -17.3351  -41.8017 C.2       7 UNK         0.5000 
     36 O           2.6862  -18.2329  -40.9622 O.2       7 UNK        -0.5000 
     37 CA          2.5630  -15.8586  -41.3505 C.3       7 UNK         0.1400 
     38 CB          3.2346  -15.6373  -39.9795 C.3       7 UNK        -0.1800 
     39 N           3.0951  -14.9127  -42.3363 N.am      7 UNK        -0.5000 
     40 C           4.3318  -14.8684  -42.8543 C.2       6 UNK         0.5000 
     41 O           5.2212  -15.6759  -42.5830 O.2       6 UNK        -0.5000 
     42 CA          4.6435  -13.7071  -43.8134 C.3       6 UNK         0.1400 
     43 CB          4.1727  -14.0222  -45.2403 C.3       6 UNK        -0.1800 
     44 N           4.0310  -12.4558  -43.3630 N.am      6 UNK        -0.5000 
     45 C           4.6798  -11.2915  -43.2223 C.2       5 UNK         0.5000 
     46 O           5.8671  -11.1302  -43.5090 O.2       5 UNK        -0.5000 
     47 CA          3.8792  -10.0949  -42.6629 C.3       5 UNK         0.1400 
     48 CB          3.3787   -9.2031  -43.8096 C.3       5 UNK        -0.1800 
     49 N           2.7352  -10.4863  -41.8382 N.am      5 UNK        -0.5000 
     50 C           2.8114  -11.1296  -40.6657 C.2       4 UNK         0.5000 
     51 O           3.8729  -11.3642  -40.0873 O.2       4 UNK        -0.5000 
     52 CA          1.4886  -11.6172  -40.0365 C.3       4 UNK         0.1400 
     53 CB          1.1174  -10.7402  -38.8305 C.3       4 UNK        -0.1800 
     54 N           0.3275  -11.6932  -40.9351 N.am      4 UNK        -0.5000 
     55 C           0.2430  -12.3900  -42.0762 C.2       3 UNK         0.5000 
     56 O           1.2040  -12.9346  -42.6242 O.2       3 UNK        -0.5000 
     57 CA         -1.1461  -12.4560  -42.7337 C.3       3 UNK         0.1400 
     58 CB         -1.3357  -11.2700  -43.6905 C.3       3 UNK        -0.1800 
     59 N          -1.3367  -13.7076  -43.4688 N.am      3 UNK        -0.5000 
     60 C          -1.3920  -14.9229  -42.9000 C.2       2 UNK         0.5000 
     61 O          -1.3604  -15.1054  -41.6822 O.2       2 UNK        -0.5000 
     62 CA         -1.5125  -16.1487  -43.8279 C.3       2 UNK         0.1400 
     63 CB         -2.9573  -16.6723  -43.8358 C.3       2 UNK        -0.1800 
     64 N          -1.1025  -15.8875  -45.2054 N.am      2 UNK        -0.5000 
     65 C           0.1564  -15.6659  -45.6082 C.2       1 UNK         0.5000 
     66 O           1.1292  -15.7618  -44.8602 O.2       1 UNK        -0.5000 
     67 C          -0.2207  -22.6615  -47.2569 C.2       11 UNK         0.5000 
     68 O          -0.6475  -23.3243  -48.2015 O.2       11 UNK        -0.5000 
     69 N          -0.7691  -21.5100  -46.8440 N.am      12 UNK        -0.5000 
     70 CA         -1.9381  -20.8825  -47.4564 C.3       12 UNK         0.1400 
     71 CB         -2.1907  -19.5154  -46.8032 C.3       12 UNK        -0.1800 
     72 C          -3.1938  -21.7718  -47.3998 C.2       12 UNK         0.5000 
     73 O          -3.8973  -21.8840  -48.4032 O.2       12 UNK        -0.5000 
     74 N          -3.4232  -22.4207  -46.2490 N.am      13 UNK        -0.5000 
     75 CA         -4.5116  -23.3747  -46.0321 C.3       13 UNK         0.1400 
     76 CB         -4.6355  -23.6735  -44.5305 C.3       13 UNK        -0.1800 
     77 C          -4.3479  -24.6842  -46.8261 C.2       13 UNK         0.5000 
     78 O          -5.3526  -25.2610  -47.2430 O.2       13 UNK        -0.5000 
     79 N          -3.1013  -25.1365  -47.0204 N.am      14 UNK        -0.5000 
     80 CA         -2.7770  -26.3134  -47.8274 C.3       14 UNK         0.1400 
     81 CB         -1.3521  -26.7889  -47.5039 C.3       14 UNK        -0.1800 
     82 C          -2.9358  -26.0438  -49.3344 C.2       14 UNK         0.5000 
     83 O          -3.4592  -26.8969  -50.0519 O.2       14 UNK        -0.5000 
     84 N          -2.4795  -24.8660  -49.7795 N.am      15 UNK        -0.5000 
     85 CA         -2.5597  -24.3939  -51.1586 C.3       15 UNK         0.1400 
     86 CB         -1.6457  -23.1691  -51.3117 C.3       15 UNK        -0.1800 
     87 C          -4.0079  -24.0861  -51.5796 C.2       15 UNK         0.5000 
     88 O          -4.5149  -24.7199  -52.5060 O.2       15 UNK        -0.5000 
     89 N          -4.6380  -23.1381  -50.8699 N.am      16 UNK        -0.5000 
     90 CA         -6.0404  -22.7162  -50.9439 C.3       16 UNK         0.1400 
     91 CB         -6.8681  -23.5831  -49.9717 C.3       16 UNK        -0.1800 
     92 C          -6.6308  -22.6345  -52.3722 C.2       16 UNK         0.5000 
     93 O          -5.9914  -22.0873  -53.2735 O.2       16 UNK        -0.5000 
     94 N          -7.8396  -23.1820  -52.5555 N.am      17 UNK        -0.5000 
     95 CA         -8.5849  -23.2078  -53.8139 C.3       17 UNK         0.1400 
     96 CB        -10.0445  -23.5827  -53.5139 C.3       17 UNK        -0.1800 
     97 C          -7.9935  -24.1551  -54.8759 C.2       17 UNK         0.5000 
     98 O          -8.3260  -24.0069  -56.0518 O.2       17 UNK        -0.5000 
     99 N          -7.1361  -25.1015  -54.4637 N.am      18 UNK        -0.5000 
    100 CA        -6.4140  -25.9966  -55.3703 C.3       18 UNK         0.1400 
    101 CB        -5.8486  -27.1935  -54.5903 C.3       18 UNK        -0.1800 
    102 C         -5.3070  -25.2479  -56.1335 C.2       18 UNK         0.5000 
    103 O         -5.1593  -25.4454  -57.3402 O.2       18 UNK        -0.5000 
    104 N         -4.5819  -24.3707  -55.4253 N.am      19 UNK        -0.5000 
    105 CA        -3.6401  -23.4189  -56.0141 C.3       19 UNK         0.1400 
    106 CB        -2.6967  -22.8947  -54.9241 C.3       19 UNK        -0.1800 
    107 C         -4.3656  -22.2488  -56.7012 C.2       19 UNK         0.5000 
    108 O         -3.9058  -21.7772  -57.7414 O.2       19 UNK        -0.5000 
    109 N         -5.4744  -21.7970  -56.0955 N.am      20 UNK        -0.5000 
    110 CA        -6.4132  -20.7479  -56.5172 C.3       20 UNK         0.1400 
    111 CB        -7.0271  -21.0584  -57.8951 C.3       20 UNK        -0.1800 
    112 C         -5.8422  -19.3179  -56.4687 C.2       20 UNK         0.5000 
    113 O         -6.5479  -18.4003  -56.0495 O.2       20 UNK        -0.5000 
    114 N         -4.5789  -19.1502  -56.8748 N.am      21 UNK        -0.5000 
    115 CA        -3.8315  -17.8936  -56.8197 C.3       21 UNK         0.1400 
    116 CB        -2.6233  -17.9986  -57.7630 C.3       21 UNK        -0.1800 
    117 C         -3.3716  -17.5277  -55.3942 C.2       21 UNK         0.5000 
    118 O         -3.0834  -16.3583  -55.1362 O.2       21 UNK        -0.5000 
    119 N         -3.2940  -18.5265  -54.5047 N.am      22 UNK        -0.5000 
    120 CA        -2.9375  -18.3653  -53.0903 C.3       22 UNK         0.1400 
    121 C         -4.0710  -17.6751  -52.2809 C.2       22 UNK         0.5000 
    122 N         -3.7559  -16.6497  -51.5012 N.am      22 UNK        -0.7600 
    123 O         -5.2284  -18.0838  -52.3329 O.2       22 UNK        -0.5000 
    124 C124       -2.5299  -19.7235  -52.4638 C.3       23 UNK        -0.0398 
    125 S125       -1.3791  -19.5067  -51.0651 S.3       23 UNK        -0.2404 
    126 C126        0.2000  -19.9586  -51.8476 C.3       23 UNK        -0.0205 
    127 H127       -2.9770  -14.1261  -49.0339 H         1 UNK         0.0600 
    128 H128       -3.6937  -13.3505  -47.6182 H         1 UNK         0.0600 
    129 H129       -2.7029  -12.4072  -48.7359 H         1 UNK         0.0600 
    130 H130       -1.2045  -15.3687  -48.5097 H         1 UNK         0.3000 
    131 H131        1.0106  -14.3694  -47.0630 H         1 UNK         0.0600 
    132 H132        0.7388  -17.3552  -47.6017 H         1 UNK         0.0800 
    133 H133        0.7703  -16.2676  -48.9576 H         1 UNK         0.0800 
    134 H134        4.4372  -16.7352  -49.5888 H         1 UNK         0.0800 
    135 H135        2.9501  -16.0924  -50.2362 H         1 UNK         0.0800 
    136 H136        1.2698  -17.5995  -51.0621 H         1 UNK         0.1150 
    137 H137        1.7520  -21.8281  -50.5866 H         1 UNK         0.1150 
    138 H138        4.4250  -19.1213  -48.5976 H         1 UNK         0.1150 
    139 H139        4.6470  -21.4392  -48.1646 H         1 UNK         0.0800 
    140 H140        4.6354  -22.1379  -49.7641 H         1 UNK         0.0800 
    141 H141        2.1563  -21.4055  -46.9132 H         1 UNK         0.0800 
    142 H142        3.0362  -22.6279  -46.0330 H         1 UNK         0.0800 
    143 H143        1.0747  -24.2524  -46.6661 H         1 UNK         0.0600 
    144 H144        1.1309  -22.3569  -44.4935 H         1 UNK         0.3000 
    145 H145       -1.4156  -23.9635  -42.5944 H         1 UNK         0.0600 
    146 H146        0.6181  -25.3577  -42.1870 H         1 UNK         0.0600 
    147 H147        0.4236  -24.1359  -40.9405 H         1 UNK         0.0600 
    148 H148        1.6279  -23.9169  -42.2105 H         1 UNK         0.0600 
    149 H149        0.3580  -21.7889  -42.0306 H         1 UNK         0.3000 
    150 H150       -1.6083  -19.2177  -43.4948 H         1 UNK         0.0600 
    151 H151       -1.1596  -19.9086  -40.5442 H         1 UNK         0.0600 
    152 H152       -2.7262  -19.6471  -41.3028 H         1 UNK         0.0600 
    153 H153       -1.5804  -18.3211  -41.1876 H         1 UNK         0.0600 
    154 H154        0.7305  -19.0095  -41.9401 H         1 UNK         0.3000 
    155 H155        3.1024  -19.5883  -43.1102 H         1 UNK         0.0600 
    156 H156        2.6585  -18.2243  -45.8048 H         1 UNK         0.0600 
    157 H157        3.4158  -19.7844  -45.5237 H         1 UNK         0.0600 
    158 H158        4.2202  -18.3153  -44.9923 H         1 UNK         0.0600 
    159 H159        2.3034  -16.7964  -43.7372 H         1 UNK         0.3000 
    160 H160        1.5069  -15.6079  -41.2417 H         1 UNK         0.0600 
    161 H161        4.2820  -15.9405  -39.9905 H         1 UNK         0.0600 
    162 H162        2.7350  -16.2130  -39.1997 H         1 UNK         0.0600 
    163 H163        3.1940  -14.5892  -39.6838 H         1 UNK         0.0600 
    164 H164        2.4173  -14.2171  -42.6427 H         1 UNK         0.3000 
    165 H165        5.7309  -13.6092  -43.8343 H         1 UNK         0.0600 
    166 H166        4.5527  -14.9886  -45.5737 H         1 UNK         0.0600 
    167 H167        3.0855  -14.0523  -45.3071 H         1 UNK         0.0600 
    168 H168        4.5275  -13.2709  -45.9457 H         1 UNK         0.0600 
    169 H169        3.0545  -12.5013  -43.0890 H         1 UNK         0.3000 
    170 H170        4.5575   -9.5073  -42.0409 H         1 UNK         0.0600 
    171 H171        2.8785   -8.3127  -43.4284 H         1 UNK         0.0600 
    172 H172        2.6771   -9.7341  -44.4543 H         1 UNK         0.0600 
    173 H173        4.2078   -8.8664  -44.4335 H         1 UNK         0.0600 
    174 H174        1.8198  -10.3437  -42.2382 H         1 UNK         0.3000 
    175 H175        1.6725  -12.6299  -39.6732 H         1 UNK         0.0600 
    176 H176        1.9394  -10.6858  -38.1152 H         1 UNK         0.0600 
    177 H177        0.8795   -9.7203  -39.1351 H         1 UNK         0.0600 
    178 H178        0.2553  -11.1429  -38.2984 H         1 UNK         0.0600 
    179 H179       -0.5111  -11.2483  -40.5905 H         1 UNK         0.3000 
    180 H180       -1.9089  -12.4037  -41.9542 H         1 UNK         0.0600 
    181 H181       -0.5710  -11.2560  -44.4683 H         1 UNK         0.0600 
    182 H182       -1.2765  -10.3210  -43.1562 H         1 UNK         0.0600 
    183 H183       -2.3094  -11.3075  -44.1794 H         1 UNK         0.0600 
    184 H184       -1.3242  -13.6365  -44.4797 H         1 UNK         0.3000 
    185 H185       -0.8600  -16.9227  -43.4230 H         1 UNK         0.0600 
    186 H186       -3.2759  -16.9552  -42.8317 H         1 UNK         0.0600 
    187 H187       -3.6550  -15.9174  -44.2007 H         1 UNK         0.0600 
    188 H188       -3.0597  -17.5531  -44.4691 H         1 UNK         0.0600 
    189 H189       -1.8411  -15.7790  -45.8845 H         1 UNK         0.3000 
    190 H190       -0.3338  -21.0098  -46.0727 H         1 UNK         0.3000 
    191 H191       -1.6999  -20.7193  -48.5071 H         1 UNK         0.0600 
    192 H192       -1.3150  -18.8709  -46.8830 H         1 UNK         0.0600 
    193 H193       -3.0210  -19.0000  -47.2872 H         1 UNK         0.0600 
    194 H194       -2.4365  -19.6171  -45.7466 H         1 UNK         0.0600 
    195 H195       -2.8269  -22.2279  -45.4489 H         1 UNK         0.3000 
    196 H196       -5.4401  -22.9042  -46.3623 H         1 UNK         0.0600 
    197 H197       -5.4471  -24.3756  -44.3356 H         1 UNK         0.0600 
    198 H198       -4.8481  -22.7664  -43.9646 H         1 UNK         0.0600 
    199 H199       -3.7186  -24.1100  -44.1319 H         1 UNK         0.0600 
    200 H200       -2.3240  -24.6367  -46.6071 H         1 UNK         0.3000 
    201 H201       -3.4658  -27.1170  -47.5580 H         1 UNK         0.0600 
    202 H202       -1.0909  -27.6688  -48.0929 H         1 UNK         0.0600 
    203 H203       -1.2584  -27.0623  -46.4529 H         1 UNK         0.0600 
    204 H204       -0.6097  -26.0192  -47.7163 H         1 UNK         0.0600 
    205 H205       -2.0058  -24.2513  -49.1219 H         1 UNK         0.3000 
    206 H206       -2.1823  -25.1816  -51.8139 H         1 UNK         0.0600 
    207 H207       -0.6042  -23.4317  -51.1253 H         1 UNK         0.0600 
    208 H208       -1.6990  -22.7505  -52.3143 H         1 UNK         0.0600 
    209 H209       -1.9143  -22.3800  -50.6095 H         1 UNK         0.0600 
    210 H210       -4.1241  -22.7004  -50.1096 H         1 UNK         0.3000 
    211 H211       -6.0601  -21.6935  -50.5650 H         1 UNK         0.0600 
    212 H212       -7.9015  -23.2424  -49.8991 H         1 UNK         0.0600 
    213 H213       -6.4547  -23.5267  -48.9653 H         1 UNK         0.0600 
    214 H214       -6.8717  -24.6330  -50.2675 H         1 UNK         0.0600 
    215 H215       -8.2877  -23.6199  -51.7636 H         1 UNK         0.3000 
    216 H216       -8.5727  -22.2004  -54.2346 H         1 UNK         0.0600 
    217 H217      -10.5006  -22.8736  -52.8227 H         1 UNK         0.0600 
    218 H218      -10.1222  -24.5784  -53.0754 H         1 UNK         0.0600 
    219 H219      -10.6455  -23.5775  -54.4244 H         1 UNK         0.0600 
    220 H220       -6.8821  -25.1390  -53.4866 H         1 UNK         0.3000 
    221 H221       -7.1221  -26.3845  -56.1059 H         1 UNK         0.0600 
    222 H222       -5.1257  -26.8861  -53.8351 H         1 UNK         0.0600 
    223 H223       -6.6425  -27.7464  -54.0881 H         1 UNK         0.0600 
    224 H224       -5.3428  -27.8888  -55.2612 H         1 UNK         0.0600 
    225 H225       -4.7323  -24.3134  -54.4220 H         1 UNK         0.3000 
    226 H226       -3.0401  -23.9346  -56.7668 H         1 UNK         0.0600 
    227 H227       -2.1311  -23.7112  -54.4752 H         1 UNK         0.0600 
    228 H228       -1.9764  -22.1856  -55.3342 H         1 UNK         0.0600 
    229 H229       -3.2477  -22.3870  -54.1318 H         1 UNK         0.0600 
    230 H230       -5.6813  -22.1841  -55.1786 H         1 UNK         0.3000 
    231 H231       -7.2233  -20.7794  -55.7874 H         1 UNK         0.0600 
    232 H232       -6.2858  -21.0140  -58.6933 H         1 UNK         0.0600 
    233 H233       -7.8112  -20.3412  -58.1404 H         1 UNK         0.0600 
    234 H234       -7.4777  -22.0508  -57.9106 H         1 UNK         0.0600 
    235 H235       -4.0971  -19.9643  -57.2467 H         1 UNK         0.3000 
    236 H236       -4.4768  -17.0881  -57.1765 H         1 UNK         0.0600 
    237 H237       -2.0506  -17.0702  -57.7712 H         1 UNK         0.0600 
    238 H238       -1.9471  -18.8001  -57.4623 H         1 UNK         0.0600 
    239 H239       -2.9393  -18.1935  -58.7880 H         1 UNK         0.0600 
    240 H240       -3.6023  -19.4420  -54.7930 H         1 UNK         0.3000 
    241 H241       -2.0609  -17.7137  -53.0733 H         1 UNK         0.0600 
    242 H242       -2.8117  -16.3026  -51.4473 H         1 UNK         0.3800 
    243 H243       -4.4831  -16.2014  -50.9668 H         1 UNK         0.3800 
    244 H244       -3.4013  -20.2918  -52.1311 H         1 UNK         0.0800 
    245 H245       -2.0397  -20.3507  -53.2091 H         1 UNK         0.0800 
    246 H246        0.3429  -19.3590  -52.7479 H         1 UNK         0.0800 
    247 H247        0.1612  -20.9993  -52.1715 H         1 UNK         0.0800 
@<TRIPOS>BOND
     1    1    2 1    
     2    1  127 1    
     3    1  128 1    
     4    1  129 1    
     5    2    3 2    
     6    2    4 am   BACKBONE|DICT|INTERRES
     7    4    5 1    
     8    4  130 1    
     9    5    6 1    
    10    5   65 1    
    11    5  131 1    
    12    6    7 1    
    13    6  132 1    
    14    6  133 1    
    15    7    8 1    
    16    8    9 1    
    17    8  134 1    
    18    8  135 1    
    19    9   10 ar   
    20    9   14 ar   
    21   10   11 ar   
    22   10  136 1    
    23   11   12 ar   
    24   11  126 1    
    25   12   13 ar   
    26   12  137 1    
    27   13   14 ar   
    28   13   15 1    
    29   14  138 1    
    30   15   16 1    
    31   15  139 1    
    32   15  140 1    
    33   16   17 1    
    34   17   18 1    
    35   17  141 1    
    36   17  142 1    
    37   18   19 1    
    38   18   67 1    
    39   18  143 1    
    40   19   20 am   BACKBONE|DICT|INTERRES
    41   19  144 1    
    42   20   21 2    
    43   20   22 1    
    44   22   23 1    
    45   22   24 1    
    46   22  145 1    
    47   23  146 1    
    48   23  147 1    
    49   23  148 1    
    50   24   25 am   BACKBONE|DICT|INTERRES
    51   24  149 1    
    52   25   26 2    
    53   25   27 1    
    54   27   28 1    
    55   27   29 1    
    56   27  150 1    
    57   28  151 1    
    58   28  152 1    
    59   28  153 1    
    60   29   30 am   BACKBONE|DICT|INTERRES
    61   29  154 1    
    62   30   31 2    
    63   30   32 1    
    64   32   33 1    
    65   32   34 1    
    66   32  155 1    
    67   33  156 1    
    68   33  157 1    
    69   33  158 1    
    70   34   35 am   BACKBONE|DICT|INTERRES
    71   34  159 1    
    72   35   36 2    
    73   35   37 1    
    74   37   38 1    
    75   37   39 1    
    76   37  160 1    
    77   38  161 1    
    78   38  162 1    
    79   38  163 1    
    80   39   40 am   BACKBONE|DICT|INTERRES
    81   39  164 1    
    82   40   41 2    
    83   40   42 1    
    84   42   43 1    
    85   42   44 1    
    86   42  165 1    
    87   43  166 1    
    88   43  167 1    
    89   43  168 1    
    90   44   45 am   BACKBONE|DICT|INTERRES
    91   44  169 1    
    92   45   46 2    
    93   45   47 1    
    94   47   48 1    
    95   47   49 1    
    96   47  170 1    
    97   48  171 1    
    98   48  172 1    
    99   48  173 1    
   100   49   50 am   BACKBONE|DICT|INTERRES
   101   49  174 1    
   102   50   51 2    
   103   50   52 1    
   104   52   53 1    
   105   52   54 1    
   106   52  175 1    
   107   53  176 1    
   108   53  177 1    
   109   53  178 1    
   110   54   55 am   BACKBONE|DICT|INTERRES
   111   54  179 1    
   112   55   56 2    
   113   55   57 1    
   114   57   58 1    
   115   57   59 1    
   116   57  180 1    
   117   58  181 1    
   118   58  182 1    
   119   58  183 1    
   120   59   60 am   BACKBONE|DICT|INTERRES
   121   59  184 1    
   122   60   61 2    
   123   60   62 1    
   124   62   63 1    
   125   62   64 1    
   126   62  185 1    
   127   63  186 1    
   128   63  187 1    
   129   63  188 1    
   130   64   65 am   BACKBONE|DICT|INTERRES
   131   64  189 1    
   132   65   66 2    
   133   67   68 2    
   134   67   69 am   BACKBONE|DICT|INTERRES
   135   69   70 1    
   136   69  190 1    
   137   70   71 1    
   138   70   72 1    
   139   70  191 1    
   140   71  192 1    
   141   71  193 1    
   142   71  194 1    
   143   72   73 2    
   144   72   74 am   BACKBONE|DICT|INTERRES
   145   74   75 1    
   146   74  195 1    
   147   75   76 1    
   148   75   77 1    
   149   75  196 1    
   150   76  197 1    
   151   76  198 1    
   152   76  199 1    
   153   77   78 2    
   154   77   79 am   BACKBONE|DICT|INTERRES
   155   79   80 1    
   156   79  200 1    
   157   80   81 1    
   158   80   82 1    
   159   80  201 1    
   160   81  202 1    
   161   81  203 1    
   162   81  204 1    
   163   82   83 2    
   164   82   84 am   BACKBONE|DICT|INTERRES
   165   84   85 1    
   166   84  205 1    
   167   85   86 1    
   168   85   87 1    
   169   85  206 1    
   170   86  207 1    
   171   86  208 1    
   172   86  209 1    
   173   87   88 2    
   174   87   89 am   BACKBONE|DICT|INTERRES
   175   89   90 1    
   176   89  210 1    
   177   90   91 1    
   178   90   92 1    
   179   90  211 1    
   180   91  212 1    
   181   91  213 1    
   182   91  214 1    
   183   92   93 2    
   184   92   94 am   BACKBONE|DICT|INTERRES
   185   94   95 1    
   186   94  215 1    
   187   95   96 1    
   188   95   97 1    
   189   95  216 1    
   190   96  217 1    
   191   96  218 1    
   192   96  219 1    
   193   97   98 2    
   194   97   99 am   BACKBONE|DICT|INTERRES
   195   99  100 1    
   196   99  220 1    
   197  100  101 1    
   198  100  102 1    
   199  100  221 1    
   200  101  222 1    
   201  101  223 1    
   202  101  224 1    
   203  102  103 2    
   204  102  104 am   BACKBONE|DICT|INTERRES
   205  104  105 1    
   206  104  225 1    
   207  105  106 1    
   208  105  107 1    
   209  105  226 1    
   210  106  227 1    
   211  106  228 1    
   212  106  229 1    
   213  107  108 2    
   214  107  109 am   BACKBONE|DICT|INTERRES
   215  109  110 1    
   216  109  230 1    
   217  110  111 1    
   218  110  112 1    
   219  110  231 1    
   220  111  232 1    
   221  111  233 1    
   222  111  234 1    
   223  112  113 2    
   224  112  114 am   BACKBONE|DICT|INTERRES
   225  114  115 1    
   226  114  235 1    
   227  115  116 1    
   228  115  117 1    
   229  115  236 1    
   230  116  237 1    
   231  116  238 1    
   232  116  239 1    
   233  117  118 2    
   234  117  119 am   BACKBONE|DICT|INTERRES
   235  119  120 1    
   236  119  240 1    
   237  120  121 1    
   238  120  124 1    
   239  120  241 1    
   240  121  122 am   BACKBONE|DICT|INTERRES
   241  121  123 2    
   242  122  242 1    
   243  122  243 1    
   244  124  125 1    
   245  124  244 1    
   246  124  245 1    
   247  125  126 1    
   248  126  246 1    
   249  126  247 1    
@<TRIPOS>SUBSTRUCTURE
     1 UNK         1 GROUP             0       ****    0 ROOT    
