@<TRIPOS>MOLECULE
3R540
247   249    1
SMALL
USER_CHARGES


@<TRIPOS>ATOM
      1 CA          4.0852   -9.7896  -50.8498 C.3       0 UNK        -0.1800 
      2 C           3.4103  -10.5187  -49.6965 C.2       0 UNK         0.5000 
      3 O           2.2313  -10.2836  -49.4329 O.2       0 UNK        -0.5000 
      4 N           4.1549  -11.4008  -49.0146 N.am      1 UNK        -0.5000 
      5 CA          3.7158  -12.1955  -47.8588 C.3       1 UNK         0.1400 
      6 C6          2.5970  -13.2140  -48.2175 C.3       23 UNK        -0.0398 
      7 S7          2.7858  -14.7823  -47.3050 S.3       23 UNK        -0.2404 
      8 C8          3.8659  -15.7373  -48.4288 C.3       23 UNK        -0.0205 
      9 C9          3.1166  -16.7461  -49.2961 C.ar      23 UNK        -0.0193 
     10 C10         2.1432  -16.3221  -50.2062 C.ar      23 UNK        -0.1150 
     11 C11         1.4936  -17.2387  -51.0367 C.ar      23 UNK        -0.0193 
     12 C12         1.8334  -18.5926  -50.9671 C.ar      23 UNK        -0.1150 
     13 C13         2.8139  -19.0331  -50.0746 C.ar      23 UNK        -0.0193 
     14 C14         3.4435  -18.1067  -49.2351 C.ar      23 UNK        -0.1150 
     15 C15         3.2409  -20.4959  -50.0700 C.3       23 UNK        -0.0205 
     16 S16         2.6192  -21.4197  -48.6314 S.3       23 UNK        -0.2404 
     17 C17         0.8466  -21.5957  -49.0245 C.3       23 UNK        -0.0398 
     18 CA          0.1383  -22.5759  -48.0556 C.3       11 UNK         0.1400 
     19 N           0.0714  -22.0714  -46.6796 N.am      11 UNK        -0.5000 
     20 C          -0.3483  -22.7779  -45.6202 C.2       10 UNK         0.5000 
     21 O          -0.6779  -23.9618  -45.6777 O.2       10 UNK        -0.5000 
     22 CA         -0.4743  -22.0302  -44.2798 C.3       10 UNK         0.1400 
     23 CB          0.8879  -21.9042  -43.5820 C.3       10 UNK        -0.1800 
     24 N          -1.0881  -20.7101  -44.4307 N.am      10 UNK        -0.5000 
     25 C          -2.3527  -20.5110  -44.8301 C.2       9 UNK         0.5000 
     26 O          -3.1485  -21.4242  -45.0493 O.2       9 UNK        -0.5000 
     27 CA         -2.7928  -19.0543  -45.0696 C.3       9 UNK         0.1400 
     28 CB         -3.1971  -18.3763  -43.7524 C.3       9 UNK        -0.1800 
     29 N          -1.7656  -18.2555  -45.7368 N.am      9 UNK        -0.5000 
     30 C          -1.2912  -18.5006  -46.9669 C.2       8 UNK         0.5000 
     31 O          -1.7088  -19.3985  -47.6968 O.2       8 UNK        -0.5000 
     32 CA         -0.1077  -17.6341  -47.4284 C.3       8 UNK         0.1400 
     33 CB         -0.6039  -16.2596  -47.9008 C.3       8 UNK        -0.1800 
     34 N           0.9042  -17.4767  -46.3790 N.am      8 UNK        -0.5000 
     35 C           1.6035  -18.4909  -45.8478 C.2       7 UNK         0.5000 
     36 O           1.4795  -19.6580  -46.2049 O.2       7 UNK        -0.5000 
     37 CA          2.5368  -18.1757  -44.6653 C.3       7 UNK         0.1400 
     38 CB          3.9239  -17.7116  -45.1300 C.3       7 UNK        -0.1800 
     39 N           1.9572  -17.1930  -43.7533 N.am      7 UNK        -0.5000 
     40 C           0.8954  -17.4395  -42.9737 C.2       6 UNK         0.5000 
     41 O           0.3402  -18.5359  -42.8989 O.2       6 UNK        -0.5000 
     42 CA          0.3324  -16.2448  -42.1880 C.3       6 UNK         0.1400 
     43 CB          1.0958  -16.0489  -40.8702 C.3       6 UNK        -0.1800 
     44 N           0.3631  -15.0035  -42.9642 N.am      6 UNK        -0.5000 
     45 C          -0.3907  -14.7752  -44.0518 C.2       5 UNK         0.5000 
     46 O          -1.1464  -15.6243  -44.5268 O.2       5 UNK        -0.5000 
     47 CA         -0.2737  -13.3879  -44.7281 C.3       5 UNK         0.1400 
     48 CB         -1.5801  -12.9489  -45.4211 C.3       5 UNK        -0.1800 
     49 N           0.2181  -12.3366  -43.8304 N.am      5 UNK        -0.5000 
     50 C          -0.3383  -11.9255  -42.6789 C.2       4 UNK         0.5000 
     51 O          -1.4472  -12.2950  -42.2890 O.2       4 UNK        -0.5000 
     52 CA          0.4956  -10.9693  -41.7950 C.3       4 UNK         0.1400 
     53 CB          0.2489  -11.2115  -40.2914 C.3       4 UNK        -0.1800 
     54 N           1.9393  -10.9814  -42.0678 N.am      4 UNK        -0.5000 
     55 C           2.7872  -12.0200  -42.0363 C.2       3 UNK         0.5000 
     56 O           2.4323  -13.1800  -41.8194 O.2       3 UNK        -0.5000 
     57 CA          4.2680  -11.7027  -42.3509 C.3       3 UNK         0.1400 
     58 CB          5.1528  -12.9627  -42.3485 C.3       3 UNK        -0.1800 
     59 N           4.4275  -11.0252  -43.6406 N.am      3 UNK        -0.5000 
     60 C           4.1076   -9.7528  -43.9133 C.2       2 UNK         0.5000 
     61 O           3.7055   -8.9613  -43.0589 O.2       2 UNK        -0.5000 
     62 CA          4.2147   -9.2828  -45.3781 C.3       2 UNK         0.1400 
     63 CB          5.4100   -8.3326  -45.5502 C.3       2 UNK        -0.1800 
     64 N           4.3177  -10.3500  -46.3789 N.am      2 UNK        -0.5000 
     65 C           3.4029  -11.2976  -46.6373 C.2       1 UNK         0.5000 
     66 O           2.3758  -11.4551  -45.9739 O.2       1 UNK        -0.5000 
     67 C          -1.2542  -22.9768  -48.5831 C.2       11 UNK         0.5000 
     68 O          -1.3876  -24.0587  -49.1546 O.2       11 UNK        -0.5000 
     69 N          -2.2700  -22.1354  -48.3393 N.am      12 UNK        -0.5000 
     70 CA         -3.6714  -22.4009  -48.6725 C.3       12 UNK         0.1400 
     71 CB         -4.5250  -21.1662  -48.3491 C.3       12 UNK        -0.1800 
     72 C          -4.2259  -23.6417  -47.9529 C.2       12 UNK         0.5000 
     73 O          -4.8787  -24.4688  -48.5898 O.2       12 UNK        -0.5000 
     74 N          -3.9304  -23.7646  -46.6509 N.am      13 UNK        -0.5000 
     75 CA         -4.3027  -24.9075  -45.8183 C.3       13 UNK         0.1400 
     76 CB         -3.9942  -24.6005  -44.3453 C.3       13 UNK        -0.1800 
     77 C          -3.6207  -26.2126  -46.2648 C.2       13 UNK         0.5000 
     78 O          -4.2966  -27.2347  -46.3824 O.2       13 UNK        -0.5000 
     79 N          -2.3115  -26.1499  -46.5485 N.am      14 UNK        -0.5000 
     80 CA         -1.5087  -27.2691  -47.0500 C.3       14 UNK         0.1400 
     81 CB         -0.0274  -26.8639  -47.0835 C.3       14 UNK        -0.1800 
     82 C          -1.9663  -27.7664  -48.4339 C.2       14 UNK         0.5000 
     83 O          -1.9761  -28.9738  -48.6756 O.2       14 UNK        -0.5000 
     84 N          -2.3729  -26.8300  -49.3001 N.am      15 UNK        -0.5000 
     85 CA         -2.9526  -27.0980  -50.6158 C.3       15 UNK         0.1400 
     86 CB         -2.7799  -25.8467  -51.4890 C.3       15 UNK        -0.1800 
     87 C          -4.4385  -27.5089  -50.5655 C.2       15 UNK         0.5000 
     88 O          -5.0026  -27.8162  -51.6154 O.2       15 UNK        -0.5000 
     89 N          -5.0648  -27.4656  -49.3787 N.am      16 UNK        -0.5000 
     90 CA         -6.4861  -27.7246  -49.1133 C.3       16 UNK         0.1400 
     91 CB         -6.7997  -29.2248  -49.2867 C.3       16 UNK        -0.1800 
     92 C          -7.4274  -26.8137  -49.9339 C.2       16 UNK         0.5000 
     93 O          -8.4930  -27.2522  -50.3701 O.2       16 UNK        -0.5000 
     94 N          -6.9839  -25.5674  -50.1554 N.am      17 UNK        -0.5000 
     95 CA         -7.5937  -24.5139  -50.9721 C.3       17 UNK         0.1400 
     96 CB         -8.9474  -24.0753  -50.3770 C.3       17 UNK        -0.1800 
     97 C          -7.6911  -24.8297  -52.4835 C.2       17 UNK         0.5000 
     98 O          -8.3373  -24.0723  -53.2094 O.2       17 UNK        -0.5000 
     99 N          -7.0372  -25.9032  -52.9562 N.am      18 UNK        -0.5000 
    100 CA        -6.9661  -26.2648  -54.3777 C.3       18 UNK         0.1400 
    101 CB        -6.6488  -27.7625  -54.5060 C.3       18 UNK        -0.1800 
    102 C         -5.9297  -25.4236  -55.1507 C.2       18 UNK         0.5000 
    103 O         -5.9770  -25.3729  -56.3804 O.2       18 UNK        -0.5000 
    104 N         -5.0244  -24.7743  -54.4147 N.am      19 UNK        -0.5000 
    105 CA        -4.0264  -23.8217  -54.8777 C.3       19 UNK         0.1400 
    106 CB        -2.7515  -24.5683  -55.3121 C.3       19 UNK        -0.1800 
    107 C         -3.7600  -22.8356  -53.7281 C.2       19 UNK         0.5000 
    108 O         -4.3114  -23.0108  -52.6367 O.2       19 UNK        -0.5000 
    109 N         -2.9255  -21.8209  -53.9970 N.am      20 UNK        -0.5000 
    110 CA        -2.5470  -20.7367  -53.0823 C.3       20 UNK         0.1400 
    111 CB        -1.6768  -21.2640  -51.9221 C.3       20 UNK        -0.1800 
    112 C         -3.7715  -19.9215  -52.6184 C.2       20 UNK         0.5000 
    113 O         -4.0394  -19.8016  -51.4222 O.2       20 UNK        -0.5000 
    114 N         -4.4899  -19.3552  -53.6006 N.am      21 UNK        -0.5000 
    115 CA        -5.6847  -18.5151  -53.4261 C.3       21 UNK         0.1400 
    116 CB        -6.2574  -18.1800  -54.8122 C.3       21 UNK        -0.1800 
    117 C         -5.4545  -17.2252  -52.6056 C.2       21 UNK         0.5000 
    118 O         -6.4203  -16.6069  -52.1563 O.2       21 UNK        -0.5000 
    119 N         -4.1818  -16.8661  -52.4067 N.am      22 UNK        -0.5000 
    120 CA        -3.6839  -15.8976  -51.4220 C.3       22 UNK         0.1400 
    121 C         -4.0474  -16.2205  -49.9397 C.2       22 UNK         0.5000 
    122 N         -4.3059  -17.4719  -49.5758 N.am      22 UNK        -0.7600 
    123 O         -4.1013  -15.3152  -49.1124 O.2       22 UNK        -0.5000 
    124 C124       -2.1527  -15.7015  -51.5863 C.3       23 UNK        -0.0398 
    125 S125       -1.2196  -17.2748  -51.4948 S.3       23 UNK        -0.2404 
    126 C126        0.4405  -16.7653  -52.0253 C.3       23 UNK        -0.0205 
    127 H127        4.0729   -8.7142  -50.6717 H         1 UNK         0.0600 
    128 H128        5.1223  -10.1015  -50.9766 H         1 UNK         0.0600 
    129 H129        3.5545   -9.9882  -51.7811 H         1 UNK         0.0600 
    130 H130        5.1155  -11.5429  -49.2954 H         1 UNK         0.3000 
    131 H131        4.6043  -12.7625  -47.5760 H         1 UNK         0.0600 
    132 H132        1.6007  -12.8060  -48.0384 H         1 UNK         0.0800 
    133 H133        2.6244  -13.4355  -49.2835 H         1 UNK         0.0800 
    134 H134        4.4285  -15.0613  -49.0739 H         1 UNK         0.0800 
    135 H135        4.6119  -16.2503  -47.8209 H         1 UNK         0.0800 
    136 H136        1.8873  -15.2761  -50.2728 H         1 UNK         0.1150 
    137 H137        1.3413  -19.2994  -51.6204 H         1 UNK         0.1150 
    138 H138        4.2082  -18.4477  -48.5517 H         1 UNK         0.1150 
    139 H139        2.9237  -20.9958  -50.9865 H         1 UNK         0.0800 
    140 H140        4.3307  -20.5438  -50.0654 H         1 UNK         0.0800 
    141 H141        0.7676  -21.9505  -50.0537 H         1 UNK         0.0800 
    142 H142        0.3756  -20.6119  -48.9975 H         1 UNK         0.0800 
    143 H143        0.7298  -23.4936  -48.0251 H         1 UNK         0.0600 
    144 H144        0.3976  -21.1177  -46.5352 H         1 UNK         0.3000 
    145 H145       -1.1248  -22.6220  -43.6325 H         1 UNK         0.0600 
    146 H146        0.7930  -21.4048  -42.6176 H         1 UNK         0.0600 
    147 H147        1.3214  -22.8881  -43.3987 H         1 UNK         0.0600 
    148 H148        1.6017  -21.3412  -44.1818 H         1 UNK         0.0600 
    149 H149       -0.5045  -19.9061  -44.2281 H         1 UNK         0.3000 
    150 H150       -3.6679  -19.0764  -45.7221 H         1 UNK         0.0600 
    151 H151       -3.9894  -18.9354  -43.2533 H         1 UNK         0.0600 
    152 H152       -3.5700  -17.3669  -43.9276 H         1 UNK         0.0600 
    153 H153       -2.3581  -18.3057  -43.0600 H         1 UNK         0.0600 
    154 H154       -1.3944  -17.4626  -45.2217 H         1 UNK         0.3000 
    155 H155        0.3637  -18.1357  -48.2759 H         1 UNK         0.0600 
    156 H156        0.2011  -15.6601  -48.3193 H         1 UNK         0.0600 
    157 H157       -1.0622  -15.6908  -47.0951 H         1 UNK         0.0600 
    158 H158       -1.3569  -16.3726  -48.6787 H         1 UNK         0.0600 
    159 H159        1.0531  -16.5440  -46.0269 H         1 UNK         0.3000 
    160 H160        2.6764  -19.1067  -44.1117 H         1 UNK         0.0600 
    161 H161        3.8999  -16.7017  -45.5323 H         1 UNK         0.0600 
    162 H162        4.3211  -18.3700  -45.9038 H         1 UNK         0.0600 
    163 H163        4.6333  -17.7182  -44.3025 H         1 UNK         0.0600 
    164 H164        2.3501  -16.2633  -43.7595 H         1 UNK         0.3000 
    165 H165       -0.7097  -16.4655  -41.9473 H         1 UNK         0.0600 
    166 H166        2.1504  -15.8309  -41.0434 H         1 UNK         0.0600 
    167 H167        0.6760  -15.2266  -40.2903 H         1 UNK         0.0600 
    168 H168        1.0427  -16.9456  -40.2517 H         1 UNK         0.0600 
    169 H169        0.9807  -14.2718  -42.6241 H         1 UNK         0.3000 
    170 H170        0.4851  -13.4995  -45.5036 H         1 UNK         0.0600 
    171 H171       -1.8694  -13.6522  -46.2019 H         1 UNK         0.0600 
    172 H172       -2.4111  -12.8862  -44.7183 H         1 UNK         0.0600 
    173 H173       -1.4650  -11.9738  -45.8942 H         1 UNK         0.0600 
    174 H174        1.1201  -11.9520  -44.0837 H         1 UNK         0.3000 
    175 H175        0.1497   -9.9623  -42.0316 H         1 UNK         0.0600 
    176 H176        0.8301  -10.5212  -39.6800 H         1 UNK         0.0600 
    177 H177       -0.8004  -11.0628  -40.0338 H         1 UNK         0.0600 
    178 H178        0.5177  -12.2271  -39.9984 H         1 UNK         0.0600 
    179 H179        2.3467  -10.0803  -42.3039 H         1 UNK         0.3000 
    180 H180        4.6288  -11.0396  -41.5621 H         1 UNK         0.0600 
    181 H181        4.8475  -13.6708  -43.1200 H         1 UNK         0.0600 
    182 H182        5.0982  -13.4780  -41.3886 H         1 UNK         0.0600 
    183 H183        6.1993  -12.7101  -42.5196 H         1 UNK         0.0600 
    184 H184        4.7223  -11.6040  -44.4124 H         1 UNK         0.3000 
    185 H185        3.3024   -8.7236  -45.5956 H         1 UNK         0.0600 
    186 H186        5.4359   -7.9074  -46.5538 H         1 UNK         0.0600 
    187 H187        5.3535   -7.4986  -44.8491 H         1 UNK         0.0600 
    188 H188        6.3575   -8.8440  -45.3760 H         1 UNK         0.0600 
    189 H189        5.1252  -10.3037  -46.9832 H         1 UNK         0.3000 
    190 H190       -2.0696  -21.2340  -47.9118 H         1 UNK         0.3000 
    191 H191       -3.7340  -22.5846  -49.7463 H         1 UNK         0.0600 
    192 H192       -4.1293  -20.2773  -48.8378 H         1 UNK         0.0600 
    193 H193       -5.5499  -21.3009  -48.6961 H         1 UNK         0.0600 
    194 H194       -4.5622  -20.9647  -47.2790 H         1 UNK         0.0600 
    195 H195       -3.4275  -23.0111  -46.1910 H         1 UNK         0.3000 
    196 H196       -5.3813  -25.0486  -45.9140 H         1 UNK         0.0600 
    197 H197       -4.2832  -25.4337  -43.7036 H         1 UNK         0.0600 
    198 H198       -4.5415  -23.7217  -44.0040 H         1 UNK         0.0600 
    199 H199       -2.9322  -24.4146  -44.1846 H         1 UNK         0.0600 
    200 H200       -1.8163  -25.2757  -46.3864 H         1 UNK         0.3000 
    201 H201       -1.6192  -28.0977  -46.3476 H         1 UNK         0.0600 
    202 H202        0.3294  -26.5930  -46.0897 H         1 UNK         0.0600 
    203 H203        0.1408  -26.0117  -47.7427 H         1 UNK         0.0600 
    204 H204        0.5956  -27.6850  -47.4404 H         1 UNK         0.0600 
    205 H205       -2.2700  -25.8516  -49.0462 H         1 UNK         0.3000 
    206 H206       -2.4043  -27.9181  -51.0835 H         1 UNK         0.0600 
    207 H207       -1.7287  -25.5794  -51.5972 H         1 UNK         0.0600 
    208 H208       -3.1786  -26.0104  -52.4898 H         1 UNK         0.0600 
    209 H209       -3.3004  -24.9885  -51.0621 H         1 UNK         0.0600 
    210 H210       -4.5249  -27.1783  -48.5719 H         1 UNK         0.3000 
    211 H211       -6.6526  -27.4687  -48.0662 H         1 UNK         0.0600 
    212 H212       -6.7049  -29.5405  -50.3262 H         1 UNK         0.0600 
    213 H213       -7.8171  -29.4521  -48.9666 H         1 UNK         0.0600 
    214 H214       -6.1274  -29.8384  -48.6870 H         1 UNK         0.0600 
    215 H215       -6.1098  -25.3006  -49.7045 H         1 UNK         0.3000 
    216 H216       -6.9146  -23.6630  -50.8968 H         1 UNK         0.0600 
    217 H217       -8.8518  -23.8313  -49.3189 H         1 UNK         0.0600 
    218 H218       -9.7052  -24.8527  -50.4762 H         1 UNK         0.0600 
    219 H219       -9.3271  -23.1849  -50.8794 H         1 UNK         0.0600 
    220 H220       -6.5191  -26.4936  -52.3146 H         1 UNK         0.3000 
    221 H221       -7.9426  -26.0888  -54.8337 H         1 UNK         0.0600 
    222 H222       -5.6419  -27.9931  -54.1574 H         1 UNK         0.0600 
    223 H223       -7.3511  -28.3679  -53.9327 H         1 UNK         0.0600 
    224 H224       -6.7134  -28.0847  -55.5460 H         1 UNK         0.0600 
    225 H225       -5.1082  -24.8086  -53.4064 H         1 UNK         0.3000 
    226 H226       -4.4292  -23.2571  -55.7211 H         1 UNK         0.0600 
    227 H227       -2.9703  -25.3082  -56.0822 H         1 UNK         0.0600 
    228 H228       -2.0140  -23.8816  -55.7282 H         1 UNK         0.0600 
    229 H229       -2.2808  -25.0862  -54.4765 H         1 UNK         0.0600 
    230 H230       -2.5280  -21.7638  -54.9241 H         1 UNK         0.3000 
    231 H231       -1.9260  -20.0460  -53.6548 H         1 UNK         0.0600 
    232 H232       -1.4004  -20.4600  -51.2383 H         1 UNK         0.0600 
    233 H233       -0.7529  -21.7053  -52.2950 H         1 UNK         0.0600 
    234 H234       -2.1936  -22.0243  -51.3401 H         1 UNK         0.0600 
    235 H235       -4.1996  -19.5142  -54.5544 H         1 UNK         0.3000 
    236 H236       -6.4238  -19.1082  -52.8839 H         1 UNK         0.0600 
    237 H237       -7.1692  -17.5872  -54.7270 H         1 UNK         0.0600 
    238 H238       -5.5485  -17.6073  -55.4114 H         1 UNK         0.0600 
    239 H239       -6.5121  -19.0850  -55.3641 H         1 UNK         0.0600 
    240 H240       -3.4696  -17.4507  -52.8169 H         1 UNK         0.3000 
    241 H241       -4.1654  -14.9450  -51.6500 H         1 UNK         0.0600 
    242 H242       -4.2201  -18.2361  -50.2398 H         1 UNK         0.3800 
    243 H243       -4.5382  -17.6682  -48.6171 H         1 UNK         0.3800 
    244 H244       -1.9522  -15.2402  -52.5542 H         1 UNK         0.0800 
    245 H245       -1.7630  -15.0082  -50.8386 H         1 UNK         0.0800 
    246 H246        0.6460  -17.1873  -53.0100 H         1 UNK         0.0800 
    247 H247        0.4856  -15.6815  -52.1409 H         1 UNK         0.0800 
@<TRIPOS>BOND
     1    1    2 1    
     2    1  127 1    
     3    1  128 1    
     4    1  129 1    
     5    2    3 2    
     6    2    4 am   BACKBONE|DICT|INTERRES
     7    4    5 1    
     8    4  130 1    
     9    5    6 1    
    10    5   65 1    
    11    5  131 1    
    12    6    7 1    
    13    6  132 1    
    14    6  133 1    
    15    7    8 1    
    16    8    9 1    
    17    8  134 1    
    18    8  135 1    
    19    9   10 ar   
    20    9   14 ar   
    21   10   11 ar   
    22   10  136 1    
    23   11   12 ar   
    24   11  126 1    
    25   12   13 ar   
    26   12  137 1    
    27   13   14 ar   
    28   13   15 1    
    29   14  138 1    
    30   15   16 1    
    31   15  139 1    
    32   15  140 1    
    33   16   17 1    
    34   17   18 1    
    35   17  141 1    
    36   17  142 1    
    37   18   19 1    
    38   18   67 1    
    39   18  143 1    
    40   19   20 am   BACKBONE|DICT|INTERRES
    41   19  144 1    
    42   20   21 2    
    43   20   22 1    
    44   22   23 1    
    45   22   24 1    
    46   22  145 1    
    47   23  146 1    
    48   23  147 1    
    49   23  148 1    
    50   24   25 am   BACKBONE|DICT|INTERRES
    51   24  149 1    
    52   25   26 2    
    53   25   27 1    
    54   27   28 1    
    55   27   29 1    
    56   27  150 1    
    57   28  151 1    
    58   28  152 1    
    59   28  153 1    
    60   29   30 am   BACKBONE|DICT|INTERRES
    61   29  154 1    
    62   30   31 2    
    63   30   32 1    
    64   32   33 1    
    65   32   34 1    
    66   32  155 1    
    67   33  156 1    
    68   33  157 1    
    69   33  158 1    
    70   34   35 am   BACKBONE|DICT|INTERRES
    71   34  159 1    
    72   35   36 2    
    73   35   37 1    
    74   37   38 1    
    75   37   39 1    
    76   37  160 1    
    77   38  161 1    
    78   38  162 1    
    79   38  163 1    
    80   39   40 am   BACKBONE|DICT|INTERRES
    81   39  164 1    
    82   40   41 2    
    83   40   42 1    
    84   42   43 1    
    85   42   44 1    
    86   42  165 1    
    87   43  166 1    
    88   43  167 1    
    89   43  168 1    
    90   44   45 am   BACKBONE|DICT|INTERRES
    91   44  169 1    
    92   45   46 2    
    93   45   47 1    
    94   47   48 1    
    95   47   49 1    
    96   47  170 1    
    97   48  171 1    
    98   48  172 1    
    99   48  173 1    
   100   49   50 am   BACKBONE|DICT|INTERRES
   101   49  174 1    
   102   50   51 2    
   103   50   52 1    
   104   52   53 1    
   105   52   54 1    
   106   52  175 1    
   107   53  176 1    
   108   53  177 1    
   109   53  178 1    
   110   54   55 am   BACKBONE|DICT|INTERRES
   111   54  179 1    
   112   55   56 2    
   113   55   57 1    
   114   57   58 1    
   115   57   59 1    
   116   57  180 1    
   117   58  181 1    
   118   58  182 1    
   119   58  183 1    
   120   59   60 am   BACKBONE|DICT|INTERRES
   121   59  184 1    
   122   60   61 2    
   123   60   62 1    
   124   62   63 1    
   125   62   64 1    
   126   62  185 1    
   127   63  186 1    
   128   63  187 1    
   129   63  188 1    
   130   64   65 am   BACKBONE|DICT|INTERRES
   131   64  189 1    
   132   65   66 2    
   133   67   68 2    
   134   67   69 am   BACKBONE|DICT|INTERRES
   135   69   70 1    
   136   69  190 1    
   137   70   71 1    
   138   70   72 1    
   139   70  191 1    
   140   71  192 1    
   141   71  193 1    
   142   71  194 1    
   143   72   73 2    
   144   72   74 am   BACKBONE|DICT|INTERRES
   145   74   75 1    
   146   74  195 1    
   147   75   76 1    
   148   75   77 1    
   149   75  196 1    
   150   76  197 1    
   151   76  198 1    
   152   76  199 1    
   153   77   78 2    
   154   77   79 am   BACKBONE|DICT|INTERRES
   155   79   80 1    
   156   79  200 1    
   157   80   81 1    
   158   80   82 1    
   159   80  201 1    
   160   81  202 1    
   161   81  203 1    
   162   81  204 1    
   163   82   83 2    
   164   82   84 am   BACKBONE|DICT|INTERRES
   165   84   85 1    
   166   84  205 1    
   167   85   86 1    
   168   85   87 1    
   169   85  206 1    
   170   86  207 1    
   171   86  208 1    
   172   86  209 1    
   173   87   88 2    
   174   87   89 am   BACKBONE|DICT|INTERRES
   175   89   90 1    
   176   89  210 1    
   177   90   91 1    
   178   90   92 1    
   179   90  211 1    
   180   91  212 1    
   181   91  213 1    
   182   91  214 1    
   183   92   93 2    
   184   92   94 am   BACKBONE|DICT|INTERRES
   185   94   95 1    
   186   94  215 1    
   187   95   96 1    
   188   95   97 1    
   189   95  216 1    
   190   96  217 1    
   191   96  218 1    
   192   96  219 1    
   193   97   98 2    
   194   97   99 am   BACKBONE|DICT|INTERRES
   195   99  100 1    
   196   99  220 1    
   197  100  101 1    
   198  100  102 1    
   199  100  221 1    
   200  101  222 1    
   201  101  223 1    
   202  101  224 1    
   203  102  103 2    
   204  102  104 am   BACKBONE|DICT|INTERRES
   205  104  105 1    
   206  104  225 1    
   207  105  106 1    
   208  105  107 1    
   209  105  226 1    
   210  106  227 1    
   211  106  228 1    
   212  106  229 1    
   213  107  108 2    
   214  107  109 am   BACKBONE|DICT|INTERRES
   215  109  110 1    
   216  109  230 1    
   217  110  111 1    
   218  110  112 1    
   219  110  231 1    
   220  111  232 1    
   221  111  233 1    
   222  111  234 1    
   223  112  113 2    
   224  112  114 am   BACKBONE|DICT|INTERRES
   225  114  115 1    
   226  114  235 1    
   227  115  116 1    
   228  115  117 1    
   229  115  236 1    
   230  116  237 1    
   231  116  238 1    
   232  116  239 1    
   233  117  118 2    
   234  117  119 am   BACKBONE|DICT|INTERRES
   235  119  120 1    
   236  119  240 1    
   237  120  121 1    
   238  120  124 1    
   239  120  241 1    
   240  121  122 am   BACKBONE|DICT|INTERRES
   241  121  123 2    
   242  122  242 1    
   243  122  243 1    
   244  124  125 1    
   245  124  244 1    
   246  124  245 1    
   247  125  126 1    
   248  126  246 1    
   249  126  247 1    
@<TRIPOS>SUBSTRUCTURE
     1 UNK         1 GROUP             0       ****    0 ROOT    
