@<TRIPOS>MOLECULE
3R540
247   249    1
SMALL
USER_CHARGES


@<TRIPOS>ATOM
      1 CA         -5.9239  -14.1520  -42.0972 C.3       0 UNK        -0.1800 
      2 C          -5.4846  -13.1469  -43.1524 C.2       0 UNK         0.5000 
      3 O          -5.6190  -11.9412  -42.9439 O.2       0 UNK        -0.5000 
      4 N          -4.9603  -13.6392  -44.2829 N.am      1 UNK        -0.5000 
      5 CA         -4.4627  -12.8280  -45.4027 C.3       1 UNK         0.1400 
      6 C6         -4.3047  -13.6934  -46.6813 C.3       23 UNK        -0.0398 
      7 S7         -4.3221  -12.7425  -48.2359 S.3       23 UNK        -0.2404 
      8 C8         -4.6265  -14.0650  -49.4525 C.3       23 UNK        -0.0205 
      9 C9         -3.4261  -14.9868  -49.6258 C.ar      23 UNK        -0.0193 
     10 C10        -2.4117  -14.6561  -50.5293 C.ar      23 UNK        -0.1150 
     11 C11        -1.3229  -15.5114  -50.7259 C.ar      23 UNK        -0.0193 
     12 C12        -1.2587  -16.7116  -50.0070 C.ar      23 UNK        -0.1150 
     13 C13        -2.2599  -17.0495  -49.0933 C.ar      23 UNK        -0.0193 
     14 C14        -3.3434  -16.1852  -48.9104 C.ar      23 UNK        -0.1150 
     15 C15        -2.1711  -18.3418  -48.2975 C.3       23 UNK        -0.0205 
     16 S16        -2.8968  -19.7418  -49.2035 S.3       23 UNK        -0.2404 
     17 C17        -3.6206  -20.7298  -47.8483 C.3       23 UNK        -0.0398 
     18 CA         -2.7914  -21.9875  -47.4987 C.3       11 UNK         0.1400 
     19 N          -1.4668  -21.6746  -46.9523 N.am      11 UNK        -0.5000 
     20 C          -0.4848  -22.5787  -46.8118 C.2       10 UNK         0.5000 
     21 O          -0.5912  -23.7560  -47.1480 O.2       10 UNK        -0.5000 
     22 CA          0.8167  -22.1085  -46.1389 C.3       10 UNK         0.1400 
     23 CB          1.7383  -21.4675  -47.1794 C.3       10 UNK        -0.1800 
     24 N           0.5837  -21.1634  -45.0473 N.am      10 UNK        -0.5000 
     25 C          -0.1149  -21.4496  -43.9382 C.2       9 UNK         0.5000 
     26 O          -0.5852  -22.5625  -43.7027 O.2       9 UNK        -0.5000 
     27 CA         -0.3757  -20.3037  -42.9442 C.3       9 UNK         0.1400 
     28 CB          0.5487  -20.4339  -41.7258 C.3       9 UNK        -0.1800 
     29 N          -0.2400  -18.9717  -43.5428 N.am      9 UNK        -0.5000 
     30 C          -1.0822  -18.4759  -44.4636 C.2       8 UNK         0.5000 
     31 O          -2.0357  -19.1188  -44.9077 O.2       8 UNK        -0.5000 
     32 CA         -0.8098  -17.0685  -45.0330 C.3       8 UNK         0.1400 
     33 CB         -2.0698  -16.1833  -45.0084 C.3       8 UNK        -0.1800 
     34 N           0.3451  -16.3862  -44.4436 N.am      8 UNK        -0.5000 
     35 C           0.4609  -15.8084  -43.2388 C.2       7 UNK         0.5000 
     36 O          -0.4686  -15.6779  -42.4425 O.2       7 UNK        -0.5000 
     37 CA          1.8747  -15.3038  -42.8717 C.3       7 UNK         0.1400 
     38 CB          2.0931  -15.1842  -41.3486 C.3       7 UNK        -0.1800 
     39 N           2.9402  -16.1006  -43.5019 N.am      7 UNK        -0.5000 
     40 C           3.1681  -17.4082  -43.3061 C.2       6 UNK         0.5000 
     41 O           2.5113  -18.0951  -42.5251 O.2       6 UNK        -0.5000 
     42 CA          4.2747  -18.0592  -44.1605 C.3       6 UNK         0.1400 
     43 CB          4.3279  -19.5935  -43.9939 C.3       6 UNK        -0.1800 
     44 N           4.1909  -17.7113  -45.5832 N.am      6 UNK        -0.5000 
     45 C           3.1732  -17.9385  -46.4253 C.2       5 UNK         0.5000 
     46 O           2.0791  -18.3913  -46.0790 O.2       5 UNK        -0.5000 
     47 CA          3.4382  -17.5696  -47.9009 C.3       5 UNK         0.1400 
     48 CB          2.3997  -18.1612  -48.8665 C.3       5 UNK        -0.1800 
     49 N           3.4754  -16.1222  -48.0887 N.am      5 UNK        -0.5000 
     50 C           4.4923  -15.3190  -47.7499 C.2       4 UNK         0.5000 
     51 O           5.5538  -15.7282  -47.2764 O.2       4 UNK        -0.5000 
     52 CA          4.2831  -13.8042  -47.9486 C.3       4 UNK         0.1400 
     53 CB          4.8742  -13.3590  -49.2950 C.3       4 UNK        -0.1800 
     54 N           2.8821  -13.3748  -47.8817 N.am      4 UNK        -0.5000 
     55 C           2.0746  -13.5246  -46.8233 C.2       3 UNK         0.5000 
     56 O           2.4163  -14.0765  -45.7759 O.2       3 UNK        -0.5000 
     57 CA          0.6350  -13.0149  -47.0048 C.3       3 UNK         0.1400 
     58 CB         -0.1352  -13.9144  -47.9785 C.3       3 UNK        -0.1800 
     59 N          -0.1182  -12.9770  -45.7576 N.am      3 UNK        -0.5000 
     60 C          -0.0140  -12.0463  -44.8033 C.2       2 UNK         0.5000 
     61 O           0.8122  -11.1322  -44.8223 O.2       2 UNK        -0.5000 
     62 CA         -1.0485  -12.1544  -43.6592 C.3       2 UNK         0.1400 
     63 CB         -1.2018  -10.8452  -42.8582 C.3       2 UNK        -0.1800 
     64 N          -2.3601  -12.6395  -44.1203 N.am      2 UNK        -0.5000 
     65 C          -3.1561  -12.0759  -45.0486 C.2       1 UNK         0.5000 
     66 O          -2.9011  -11.0120  -45.6139 O.2       1 UNK        -0.5000 
     67 C          -3.5861  -22.9081  -46.5536 C.2       11 UNK         0.5000 
     68 O          -4.2718  -23.8111  -47.0325 O.2       11 UNK        -0.5000 
     69 N          -3.4572  -22.6909  -45.2370 N.am      12 UNK        -0.5000 
     70 CA         -4.0649  -23.5330  -44.2070 C.3       12 UNK         0.1400 
     71 CB         -3.9815  -22.8319  -42.8422 C.3       12 UNK        -0.1800 
     72 C          -3.4231  -24.9308  -44.1596 C.2       12 UNK         0.5000 
     73 O          -4.1453  -25.9270  -44.1240 O.2       12 UNK        -0.5000 
     74 N          -2.0841  -24.9790  -44.2122 N.am      13 UNK        -0.5000 
     75 CA         -1.2875  -26.2076  -44.2435 C.3       13 UNK         0.1400 
     76 CB          0.2011  -25.8512  -44.1149 C.3       13 UNK        -0.1800 
     77 C          -1.5360  -27.0584  -45.5036 C.2       13 UNK         0.5000 
     78 O          -1.6238  -28.2826  -45.4036 O.2       13 UNK        -0.5000 
     79 N          -1.6739  -26.3942  -46.6589 N.am      14 UNK        -0.5000 
     80 CA         -1.9860  -27.0127  -47.9483 C.3       14 UNK         0.1400 
     81 CB         -1.5809  -26.0438  -49.0712 C.3       14 UNK        -0.1800 
     82 C          -3.4677  -27.4080  -48.1040 C.2       14 UNK         0.5000 
     83 O          -3.7992  -28.0811  -49.0787 O.2       14 UNK        -0.5000 
     84 N          -4.3363  -26.9593  -47.1848 N.am      15 UNK        -0.5000 
     85 CA         -5.7965  -27.1042  -47.2068 C.3       15 UNK         0.1400 
     86 CB         -6.2083  -28.5781  -47.0115 C.3       15 UNK        -0.1800 
     87 C          -6.4155  -26.4549  -48.4636 C.2       15 UNK         0.5000 
     88 O          -7.1983  -27.0838  -49.1770 O.2       15 UNK        -0.5000 
     89 N          -6.0003  -25.2062  -48.7176 N.am      16 UNK        -0.5000 
     90 CA         -6.3547  -24.3198  -49.8309 C.3       16 UNK         0.1400 
     91 CB         -7.8790  -24.1117  -49.9333 C.3       16 UNK        -0.1800 
     92 C          -5.7313  -24.6960  -51.1908 C.2       16 UNK         0.5000 
     93 O          -5.8970  -23.9340  -52.1444 O.2       16 UNK        -0.5000 
     94 N          -4.9782  -25.8049  -51.2732 N.am      17 UNK        -0.5000 
     95 CA         -4.3257  -26.2777  -52.5033 C.3       17 UNK         0.1400 
     96 CB         -3.8153  -27.7118  -52.3016 C.3       17 UNK        -0.1800 
     97 C          -3.1931  -25.3609  -53.0134 C.2       17 UNK         0.5000 
     98 O          -2.8038  -25.4729  -54.1762 O.2       17 UNK        -0.5000 
     99 N          -2.7102  -24.4495  -52.1555 N.am      18 UNK        -0.5000 
    100 CA        -1.7882  -23.3660  -52.5069 C.3       18 UNK         0.1400 
    101 CB        -1.2381  -22.7423  -51.2150 C.3       18 UNK        -0.1800 
    102 C         -2.4373  -22.2776  -53.3899 C.2       18 UNK         0.5000 
    103 O         -1.7120  -21.4936  -54.0034 O.2       18 UNK        -0.5000 
    104 N         -3.7810  -22.2337  -53.4225 N.am      19 UNK        -0.5000 
    105 CA        -4.6391  -21.4068  -54.2819 C.3       19 UNK         0.1400 
    106 CB        -4.5035  -21.8651  -55.7487 C.3       19 UNK        -0.1800 
    107 C         -4.4442  -19.8820  -54.1320 C.2       19 UNK         0.5000 
    108 O         -4.8440  -19.1314  -55.0237 O.2       19 UNK        -0.5000 
    109 N         -3.8258  -19.4547  -53.0200 N.am      20 UNK        -0.5000 
    110 CA        -3.3873  -18.0872  -52.7230 C.3       20 UNK         0.1400 
    111 CB        -4.5997  -17.1697  -52.4611 C.3       20 UNK        -0.1800 
    112 C         -2.4107  -17.5268  -53.7829 C.2       20 UNK         0.5000 
    113 O         -2.4792  -16.3446  -54.1237 O.2       20 UNK        -0.5000 
    114 N         -1.5347  -18.3953  -54.3111 N.am      21 UNK        -0.5000 
    115 CA        -0.6040  -18.0635  -55.3896 C.3       21 UNK         0.1400 
    116 CB        -0.1852  -19.3558  -56.1073 C.3       21 UNK        -0.1800 
    117 C          0.6368  -17.2849  -54.9145 C.2       21 UNK         0.5000 
    118 O          1.0836  -16.3832  -55.6241 O.2       21 UNK        -0.5000 
    119 N          1.1815  -17.6572  -53.7448 N.am      22 UNK        -0.5000 
    120 CA         2.4450  -17.1370  -53.1745 C.3       22 UNK         0.1400 
    121 C          3.7172  -17.4371  -54.0333 C.2       22 UNK         0.5000 
    122 N          3.6930  -18.4156  -54.9306 N.am      22 UNK        -0.7600 
    123 O          4.7574  -16.8063  -53.8651 O.2       22 UNK        -0.5000 
    124 C124        2.3482  -15.6466  -52.7206 C.3       23 UNK        -0.0398 
    125 S125        1.4420  -15.4602  -51.1500 S.3       23 UNK        -0.2404 
    126 C126       -0.2488  -15.1462  -51.7451 C.3       23 UNK        -0.0205 
    127 H127       -5.7414  -15.1793  -42.4135 H         1 UNK         0.0600 
    128 H128       -6.9895  -14.0426  -41.8955 H         1 UNK         0.0600 
    129 H129       -5.3806  -13.9812  -41.1678 H         1 UNK         0.0600 
    130 H130       -4.8976  -14.6406  -44.3971 H         1 UNK         0.3000 
    131 H131       -5.2228  -12.0698  -45.6047 H         1 UNK         0.0600 
    132 H132       -5.1257  -14.4097  -46.7380 H         1 UNK         0.0800 
    133 H133       -3.3924  -14.2850  -46.6562 H         1 UNK         0.0800 
    134 H134       -4.8711  -13.6061  -50.4116 H         1 UNK         0.0800 
    135 H135       -5.5086  -14.6377  -49.1623 H         1 UNK         0.0800 
    136 H136       -2.4783  -13.7336  -51.0885 H         1 UNK         0.1150 
    137 H137       -0.4310  -17.3884  -50.1622 H         1 UNK         0.1150 
    138 H138       -4.1270  -16.4496  -48.2147 H         1 UNK         0.1150 
    139 H139       -2.6833  -18.2055  -47.3466 H         1 UNK         0.0800 
    140 H140       -1.1316  -18.5712  -48.0596 H         1 UNK         0.0800 
    141 H141       -4.6187  -21.0207  -48.1818 H         1 UNK         0.0800 
    142 H142       -3.7763  -20.1122  -46.9626 H         1 UNK         0.0800 
    143 H143       -2.6403  -22.5528  -48.4195 H         1 UNK         0.0600 
    144 H144       -1.3245  -20.7349  -46.6101 H         1 UNK         0.3000 
    145 H145        1.3197  -22.9840  -45.7240 H         1 UNK         0.0600 
    146 H146        1.2543  -20.6033  -47.6321 H         1 UNK         0.0600 
    147 H147        1.9780  -22.1694  -47.9791 H         1 UNK         0.0600 
    148 H148        2.6785  -21.1410  -46.7349 H         1 UNK         0.0600 
    149 H149        0.9440  -20.2249  -45.1703 H         1 UNK         0.3000 
    150 H150       -1.4052  -20.4046  -42.5944 H         1 UNK         0.0600 
    151 H151        1.5985  -20.4669  -42.0185 H         1 UNK         0.0600 
    152 H152        0.3381  -21.3530  -41.1776 H         1 UNK         0.0600 
    153 H153        0.4156  -19.6028  -41.0330 H         1 UNK         0.0600 
    154 H154        0.5588  -18.4220  -43.2460 H         1 UNK         0.3000 
    155 H155       -0.5400  -17.2191  -46.0786 H         1 UNK         0.0600 
    156 H156       -2.4918  -16.0998  -44.0069 H         1 UNK         0.0600 
    157 H157       -2.8507  -16.5887  -45.6514 H         1 UNK         0.0600 
    158 H158       -1.8371  -15.1834  -45.3630 H         1 UNK         0.0600 
    159 H159        1.1949  -16.4631  -44.9877 H         1 UNK         0.3000 
    160 H160        1.9524  -14.2965  -43.2803 H         1 UNK         0.0600 
    161 H161        1.9407  -16.1352  -40.8377 H         1 UNK         0.0600 
    162 H162        1.3986  -14.4663  -40.9108 H         1 UNK         0.0600 
    163 H163        3.1011  -14.8380  -41.1210 H         1 UNK         0.0600 
    164 H164        3.4770  -15.6156  -44.2095 H         1 UNK         0.3000 
    165 H165        5.2197  -17.6538  -43.7965 H         1 UNK         0.0600 
    166 H166        4.5030  -19.8685  -42.9531 H         1 UNK         0.0600 
    167 H167        3.3963  -20.0683  -44.3040 H         1 UNK         0.0600 
    168 H168        5.1362  -20.0266  -44.5829 H         1 UNK         0.0600 
    169 H169        5.0057  -17.2470  -45.9710 H         1 UNK         0.3000 
    170 H170        4.4111  -17.9820  -48.1767 H         1 UNK         0.0600 
    171 H171        2.5902  -17.8396  -49.8885 H         1 UNK         0.0600 
    172 H172        2.4555  -19.2475  -48.8733 H         1 UNK         0.0600 
    173 H173        1.3819  -17.8708  -48.6041 H         1 UNK         0.0600 
    174 H174        2.6401  -15.6968  -48.4631 H         1 UNK         0.3000 
    175 H175        4.8236  -13.2939  -47.1489 H         1 UNK         0.0600 
    176 H176        5.9255  -13.6395  -49.3730 H         1 UNK         0.0600 
    177 H177        4.3493  -13.8165  -50.1349 H         1 UNK         0.0600 
    178 H178        4.8192  -12.2767  -49.4127 H         1 UNK         0.0600 
    179 H179        2.5167  -12.9300  -48.7113 H         1 UNK         0.3000 
    180 H180        0.6758  -12.0037  -47.4151 H         1 UNK         0.0600 
    181 H181       -0.1394  -14.9572  -47.6578 H         1 UNK         0.0600 
    182 H182        0.3056  -13.8745  -48.9732 H         1 UNK         0.0600 
    183 H183       -1.1712  -13.5907  -48.0791 H         1 UNK         0.0600 
    184 H184       -0.8061  -13.7017  -45.6353 H         1 UNK         0.3000 
    185 H185       -0.6645  -12.9107  -42.9740 H         1 UNK         0.0600 
    186 H186       -0.2565  -10.5553  -42.3980 H         1 UNK         0.0600 
    187 H187       -1.5245  -10.0179  -43.4908 H         1 UNK         0.0600 
    188 H188       -1.9312  -10.9578  -42.0561 H         1 UNK         0.0600 
    189 H189       -2.6821  -13.4937  -43.6878 H         1 UNK         0.3000 
    190 H190       -2.8509  -21.9475  -44.9218 H         1 UNK         0.3000 
    191 H191       -5.1212  -23.6597  -44.4543 H         1 UNK         0.0600 
    192 H192       -4.4719  -21.8586  -42.8686 H         1 UNK         0.0600 
    193 H193       -4.4766  -23.4242  -42.0718 H         1 UNK         0.0600 
    194 H194       -2.9510  -22.6787  -42.5226 H         1 UNK         0.0600 
    195 H195       -1.5655  -24.1042  -44.1956 H         1 UNK         0.3000 
    196 H196       -1.5701  -26.8082  -43.3764 H         1 UNK         0.0600 
    197 H197        0.5395  -25.2342  -44.9477 H         1 UNK         0.0600 
    198 H198        0.8186  -26.7501  -44.0989 H         1 UNK         0.0600 
    199 H199        0.3975  -25.3041  -43.1926 H         1 UNK         0.0600 
    200 H200       -1.5094  -25.3913  -46.6716 H         1 UNK         0.3000 
    201 H201       -1.3916  -27.9226  -48.0521 H         1 UNK         0.0600 
    202 H202       -2.1588  -25.1198  -49.0295 H         1 UNK         0.0600 
    203 H203       -0.5248  -25.7822  -49.0045 H         1 UNK         0.0600 
    204 H204       -1.7372  -26.4876  -50.0539 H         1 UNK         0.0600 
    205 H205       -3.9681  -26.4025  -46.4246 H         1 UNK         0.3000 
    206 H206       -6.1733  -26.5410  -46.3517 H         1 UNK         0.0600 
    207 H207       -5.7650  -28.9926  -46.1060 H         1 UNK         0.0600 
    208 H208       -7.2906  -28.6697  -46.9147 H         1 UNK         0.0600 
    209 H209       -5.9022  -29.2030  -47.8509 H         1 UNK         0.0600 
    210 H210       -5.3388  -24.7966  -48.0574 H         1 UNK         0.3000 
    211 H211       -5.9184  -23.3543  -49.5708 H         1 UNK         0.0600 
    212 H212       -8.3036  -23.8207  -48.9725 H         1 UNK         0.0600 
    213 H213       -8.1168  -23.3199  -50.6446 H         1 UNK         0.0600 
    214 H214       -8.3928  -25.0119  -50.2709 H         1 UNK         0.0600 
    215 H215       -4.8896  -26.3961  -50.4573 H         1 UNK         0.3000 
    216 H216       -5.0878  -26.3046  -53.2850 H         1 UNK         0.0600 
    217 H217       -2.9929  -27.7525  -51.5886 H         1 UNK         0.0600 
    218 H218       -3.4500  -28.1297  -53.2405 H         1 UNK         0.0600 
    219 H219       -4.6072  -28.3684  -51.9406 H         1 UNK         0.0600 
    220 H220       -3.0821  -24.4431  -51.2185 H         1 UNK         0.3000 
    221 H221       -0.9539  -23.7921  -53.0676 H         1 UNK         0.0600 
    222 H222       -2.0312  -22.2775  -50.6312 H         1 UNK         0.0600 
    223 H223       -0.7472  -23.4868  -50.5880 H         1 UNK         0.0600 
    224 H224       -0.5012  -21.9690  -51.4361 H         1 UNK         0.0600 
    225 H225       -4.2907  -22.9092  -52.8629 H         1 UNK         0.3000 
    226 H226       -5.6633  -21.6094  -53.9660 H         1 UNK         0.0600 
    227 H227       -4.6593  -22.9402  -55.8410 H         1 UNK         0.0600 
    228 H228       -5.2420  -21.3771  -56.3857 H         1 UNK         0.0600 
    229 H229       -3.5174  -21.6334  -56.1529 H         1 UNK         0.0600 
    230 H230       -3.5434  -20.1572  -52.3519 H         1 UNK         0.3000 
    231 H231       -2.8170  -18.1483  -51.7976 H         1 UNK         0.0600 
    232 H232       -5.2230  -17.0548  -53.3479 H         1 UNK         0.0600 
    233 H233       -4.2790  -16.1729  -52.1595 H         1 UNK         0.0600 
    234 H234       -5.2225  -17.5634  -51.6581 H         1 UNK         0.0600 
    235 H235       -1.5737  -19.3688  -54.0286 H         1 UNK         0.3000 
    236 H236       -1.1271  -17.4379  -56.1164 H         1 UNK         0.0600 
    237 H237        0.3265  -20.0446  -55.4341 H         1 UNK         0.0600 
    238 H238       -1.0517  -19.8752  -56.5176 H         1 UNK         0.0600 
    239 H239        0.4893  -19.1426  -56.9376 H         1 UNK         0.0600 
    240 H240        0.7427  -18.4071  -53.2314 H         1 UNK         0.3000 
    241 H241        2.6161  -17.7339  -52.2788 H         1 UNK         0.0600 
    242 H242        4.5213  -18.6106  -55.4710 H         1 UNK         0.3800 
    243 H243        2.8607  -18.9633  -55.0749 H         1 UNK         0.3800 
    244 H244        1.9031  -15.0184  -53.4925 H         1 UNK         0.0800 
    245 H245        3.3360  -15.2236  -52.5339 H         1 UNK         0.0800 
    246 H246       -0.4264  -15.7223  -52.6488 H         1 UNK         0.0800 
    247 H247       -0.3250  -14.0959  -52.0296 H         1 UNK         0.0800 
@<TRIPOS>BOND
     1    1    2 1    
     2    1  127 1    
     3    1  128 1    
     4    1  129 1    
     5    2    3 2    
     6    2    4 am   BACKBONE|DICT|INTERRES
     7    4    5 1    
     8    4  130 1    
     9    5    6 1    
    10    5   65 1    
    11    5  131 1    
    12    6    7 1    
    13    6  132 1    
    14    6  133 1    
    15    7    8 1    
    16    8    9 1    
    17    8  134 1    
    18    8  135 1    
    19    9   10 ar   
    20    9   14 ar   
    21   10   11 ar   
    22   10  136 1    
    23   11   12 ar   
    24   11  126 1    
    25   12   13 ar   
    26   12  137 1    
    27   13   14 ar   
    28   13   15 1    
    29   14  138 1    
    30   15   16 1    
    31   15  139 1    
    32   15  140 1    
    33   16   17 1    
    34   17   18 1    
    35   17  141 1    
    36   17  142 1    
    37   18   19 1    
    38   18   67 1    
    39   18  143 1    
    40   19   20 am   BACKBONE|DICT|INTERRES
    41   19  144 1    
    42   20   21 2    
    43   20   22 1    
    44   22   23 1    
    45   22   24 1    
    46   22  145 1    
    47   23  146 1    
    48   23  147 1    
    49   23  148 1    
    50   24   25 am   BACKBONE|DICT|INTERRES
    51   24  149 1    
    52   25   26 2    
    53   25   27 1    
    54   27   28 1    
    55   27   29 1    
    56   27  150 1    
    57   28  151 1    
    58   28  152 1    
    59   28  153 1    
    60   29   30 am   BACKBONE|DICT|INTERRES
    61   29  154 1    
    62   30   31 2    
    63   30   32 1    
    64   32   33 1    
    65   32   34 1    
    66   32  155 1    
    67   33  156 1    
    68   33  157 1    
    69   33  158 1    
    70   34   35 am   BACKBONE|DICT|INTERRES
    71   34  159 1    
    72   35   36 2    
    73   35   37 1    
    74   37   38 1    
    75   37   39 1    
    76   37  160 1    
    77   38  161 1    
    78   38  162 1    
    79   38  163 1    
    80   39   40 am   BACKBONE|DICT|INTERRES
    81   39  164 1    
    82   40   41 2    
    83   40   42 1    
    84   42   43 1    
    85   42   44 1    
    86   42  165 1    
    87   43  166 1    
    88   43  167 1    
    89   43  168 1    
    90   44   45 am   BACKBONE|DICT|INTERRES
    91   44  169 1    
    92   45   46 2    
    93   45   47 1    
    94   47   48 1    
    95   47   49 1    
    96   47  170 1    
    97   48  171 1    
    98   48  172 1    
    99   48  173 1    
   100   49   50 am   BACKBONE|DICT|INTERRES
   101   49  174 1    
   102   50   51 2    
   103   50   52 1    
   104   52   53 1    
   105   52   54 1    
   106   52  175 1    
   107   53  176 1    
   108   53  177 1    
   109   53  178 1    
   110   54   55 am   BACKBONE|DICT|INTERRES
   111   54  179 1    
   112   55   56 2    
   113   55   57 1    
   114   57   58 1    
   115   57   59 1    
   116   57  180 1    
   117   58  181 1    
   118   58  182 1    
   119   58  183 1    
   120   59   60 am   BACKBONE|DICT|INTERRES
   121   59  184 1    
   122   60   61 2    
   123   60   62 1    
   124   62   63 1    
   125   62   64 1    
   126   62  185 1    
   127   63  186 1    
   128   63  187 1    
   129   63  188 1    
   130   64   65 am   BACKBONE|DICT|INTERRES
   131   64  189 1    
   132   65   66 2    
   133   67   68 2    
   134   67   69 am   BACKBONE|DICT|INTERRES
   135   69   70 1    
   136   69  190 1    
   137   70   71 1    
   138   70   72 1    
   139   70  191 1    
   140   71  192 1    
   141   71  193 1    
   142   71  194 1    
   143   72   73 2    
   144   72   74 am   BACKBONE|DICT|INTERRES
   145   74   75 1    
   146   74  195 1    
   147   75   76 1    
   148   75   77 1    
   149   75  196 1    
   150   76  197 1    
   151   76  198 1    
   152   76  199 1    
   153   77   78 2    
   154   77   79 am   BACKBONE|DICT|INTERRES
   155   79   80 1    
   156   79  200 1    
   157   80   81 1    
   158   80   82 1    
   159   80  201 1    
   160   81  202 1    
   161   81  203 1    
   162   81  204 1    
   163   82   83 2    
   164   82   84 am   BACKBONE|DICT|INTERRES
   165   84   85 1    
   166   84  205 1    
   167   85   86 1    
   168   85   87 1    
   169   85  206 1    
   170   86  207 1    
   171   86  208 1    
   172   86  209 1    
   173   87   88 2    
   174   87   89 am   BACKBONE|DICT|INTERRES
   175   89   90 1    
   176   89  210 1    
   177   90   91 1    
   178   90   92 1    
   179   90  211 1    
   180   91  212 1    
   181   91  213 1    
   182   91  214 1    
   183   92   93 2    
   184   92   94 am   BACKBONE|DICT|INTERRES
   185   94   95 1    
   186   94  215 1    
   187   95   96 1    
   188   95   97 1    
   189   95  216 1    
   190   96  217 1    
   191   96  218 1    
   192   96  219 1    
   193   97   98 2    
   194   97   99 am   BACKBONE|DICT|INTERRES
   195   99  100 1    
   196   99  220 1    
   197  100  101 1    
   198  100  102 1    
   199  100  221 1    
   200  101  222 1    
   201  101  223 1    
   202  101  224 1    
   203  102  103 2    
   204  102  104 am   BACKBONE|DICT|INTERRES
   205  104  105 1    
   206  104  225 1    
   207  105  106 1    
   208  105  107 1    
   209  105  226 1    
   210  106  227 1    
   211  106  228 1    
   212  106  229 1    
   213  107  108 2    
   214  107  109 am   BACKBONE|DICT|INTERRES
   215  109  110 1    
   216  109  230 1    
   217  110  111 1    
   218  110  112 1    
   219  110  231 1    
   220  111  232 1    
   221  111  233 1    
   222  111  234 1    
   223  112  113 2    
   224  112  114 am   BACKBONE|DICT|INTERRES
   225  114  115 1    
   226  114  235 1    
   227  115  116 1    
   228  115  117 1    
   229  115  236 1    
   230  116  237 1    
   231  116  238 1    
   232  116  239 1    
   233  117  118 2    
   234  117  119 am   BACKBONE|DICT|INTERRES
   235  119  120 1    
   236  119  240 1    
   237  120  121 1    
   238  120  124 1    
   239  120  241 1    
   240  121  122 am   BACKBONE|DICT|INTERRES
   241  121  123 2    
   242  122  242 1    
   243  122  243 1    
   244  124  125 1    
   245  124  244 1    
   246  124  245 1    
   247  125  126 1    
   248  126  246 1    
   249  126  247 1    
@<TRIPOS>SUBSTRUCTURE
     1 UNK         1 GROUP             0       ****    0 ROOT    
