@<TRIPOS>MOLECULE
3R540
247   249    1
SMALL
USER_CHARGES


@<TRIPOS>ATOM
      1 CA         -4.8925  -15.3522  -47.3911 C.3       0 UNK        -0.1800 
      2 C          -3.8131  -14.5804  -48.1369 C.2       0 UNK         0.5000 
      3 O          -4.1176  -13.8731  -49.0964 O.2       0 UNK        -0.5000 
      4 N          -2.5548  -14.7175  -47.7001 N.am      1 UNK        -0.5000 
      5 CA         -1.3896  -14.0354  -48.2696 C.3       1 UNK         0.1400 
      6 C6         -0.0691  -14.6403  -47.7247 C.3       23 UNK        -0.0398 
      7 S7          1.3590  -14.2865  -48.8028 S.3       23 UNK        -0.2404 
      8 C8          2.3295  -15.8290  -48.6736 C.3       23 UNK        -0.0205 
      9 C9          1.9173  -16.9501  -49.6302 C.ar      23 UNK        -0.0193 
     10 C10         1.4114  -16.6867  -50.9102 C.ar      23 UNK        -0.1150 
     11 C11         1.1373  -17.7281  -51.8031 C.ar      23 UNK        -0.0193 
     12 C12         1.3772  -19.0476  -51.4033 C.ar      23 UNK        -0.1150 
     13 C13         1.8771  -19.3356  -50.1314 C.ar      23 UNK        -0.0193 
     14 C14         2.1442  -18.2781  -49.2524 C.ar      23 UNK        -0.1150 
     15 C15         2.2152  -20.7844  -49.7801 C.3       23 UNK        -0.0205 
     16 S16         1.9693  -21.2226  -48.0270 S.3       23 UNK        -0.2404 
     17 C17         0.2028  -21.6737  -47.9622 C.3       23 UNK        -0.0398 
     18 CA         -0.0063  -22.9977  -47.1856 C.3       11 UNK         0.1400 
     19 N           0.2793  -22.8489  -45.7541 N.am      11 UNK        -0.5000 
     20 C           0.3364  -23.8553  -44.8707 C.2       10 UNK         0.5000 
     21 O           0.2148  -25.0396  -45.1795 O.2       10 UNK        -0.5000 
     22 CA          0.4906  -23.4740  -43.3857 C.3       10 UNK         0.1400 
     23 CB          1.9564  -23.1790  -43.0356 C.3       10 UNK        -0.1800 
     24 N          -0.3529  -22.3364  -43.0127 N.am      10 UNK        -0.5000 
     25 C          -1.6936  -22.3526  -43.0378 C.2       9 UNK         0.5000 
     26 O          -2.3563  -23.3520  -43.3111 O.2       9 UNK        -0.5000 
     27 CA         -2.4182  -21.0228  -42.7675 C.3       9 UNK         0.1400 
     28 CB         -2.6090  -20.7904  -41.2612 C.3       9 UNK        -0.1800 
     29 N          -1.7183  -19.8852  -43.3621 N.am      9 UNK        -0.5000 
     30 C          -1.6270  -19.6565  -44.6800 C.2       8 UNK         0.5000 
     31 O          -2.1669  -20.3554  -45.5390 O.2       8 UNK        -0.5000 
     32 CA         -0.7366  -18.4748  -45.1067 C.3       8 UNK         0.1400 
     33 CB         -1.5173  -17.1543  -45.0386 C.3       8 UNK        -0.1800 
     34 N           0.4782  -18.3708  -44.2943 N.am      8 UNK        -0.5000 
     35 C           1.4561  -19.2903  -44.2990 C.2       7 UNK         0.5000 
     36 O           1.4212  -20.3067  -44.9868 O.2       7 UNK        -0.5000 
     37 CA          2.6403  -19.0815  -43.3359 C.3       7 UNK         0.1400 
     38 CB          3.7036  -18.1830  -43.9848 C.3       7 UNK        -0.1800 
     39 N           2.2430  -18.5073  -42.0517 N.am      7 UNK        -0.5000 
     40 C           1.3390  -19.0315  -41.2116 C.2       6 UNK         0.5000 
     41 O           0.8193  -20.1350  -41.3776 O.2       6 UNK        -0.5000 
     42 CA          0.8976  -18.1553  -40.0194 C.3       6 UNK         0.1400 
     43 CB          1.5557  -18.6468  -38.7218 C.3       6 UNK        -0.1800 
     44 N           1.1741  -16.7211  -40.1841 N.am      6 UNK        -0.5000 
     45 C           0.7012  -15.9454  -41.1698 C.2       5 UNK         0.5000 
     46 O          -0.0438  -16.3568  -42.0659 O.2       5 UNK        -0.5000 
     47 CA          1.1990  -14.4922  -41.1962 C.3       5 UNK         0.1400 
     48 CB          2.7187  -14.4452  -41.4658 C.3       5 UNK        -0.1800 
     49 N           0.4772  -13.7950  -42.2535 N.am      5 UNK        -0.5000 
     50 C           0.4936  -12.4858  -42.5121 C.2       4 UNK         0.5000 
     51 O           1.0905  -11.6495  -41.8299 O.2       4 UNK        -0.5000 
     52 CA         -0.2940  -12.0377  -43.7565 C.3       4 UNK         0.1400 
     53 CB         -1.4907  -11.1568  -43.3661 C.3       4 UNK        -0.1800 
     54 N           0.5442  -11.3136  -44.7110 N.am      4 UNK        -0.5000 
     55 C           1.6208  -11.8090  -45.3356 C.2       3 UNK         0.5000 
     56 O           2.0523  -12.9499  -45.1613 O.2       3 UNK        -0.5000 
     57 CA          2.2549  -10.8958  -46.4014 C.3       3 UNK         0.1400 
     58 CB          3.6235  -11.4069  -46.8863 C.3       3 UNK        -0.1800 
     59 N           1.3468  -10.8279  -47.5423 N.am      3 UNK        -0.5000 
     60 C           0.3332   -9.9618  -47.6749 C.2       2 UNK         0.5000 
     61 O           0.1563   -8.9950  -46.9330 O.2       2 UNK        -0.5000 
     62 CA         -0.6926  -10.2797  -48.7809 C.3       2 UNK         0.1400 
     63 CB         -0.2501   -9.6789  -50.1234 C.3       2 UNK        -0.1800 
     64 N          -0.9033  -11.7225  -48.9388 N.am      2 UNK        -0.5000 
     65 C          -1.4488  -12.5149  -48.0042 C.2       1 UNK         0.5000 
     66 O          -1.9319  -12.0965  -46.9492 O.2       1 UNK        -0.5000 
     67 C          -1.4128  -23.5865  -47.4281 C.2       11 UNK         0.5000 
     68 O          -1.5576  -24.4882  -48.2549 O.2       11 UNK        -0.5000 
     69 N          -2.4168  -23.1142  -46.6740 N.am      12 UNK        -0.5000 
     70 CA         -3.7799  -23.6502  -46.6950 C.3       12 UNK         0.1400 
     71 CB         -4.7181  -22.7296  -45.9024 C.3       12 UNK        -0.1800 
     72 C          -3.8628  -25.1059  -46.2005 C.2       12 UNK         0.5000 
     73 O          -4.5208  -25.9216  -46.8461 O.2       12 UNK        -0.5000 
     74 N          -3.1537  -25.4252  -45.1087 N.am      13 UNK        -0.5000 
     75 CA         -3.0306  -26.7795  -44.5586 C.3       13 UNK         0.1400 
     76 CB         -2.3056  -26.7207  -43.2059 C.3       13 UNK        -0.1800 
     77 C          -2.3248  -27.7620  -45.5151 C.2       13 UNK         0.5000 
     78 O          -2.6865  -28.9382  -45.5553 O.2       13 UNK        -0.5000 
     79 N          -1.3658  -27.2524  -46.2995 N.am      14 UNK        -0.5000 
     80 CA         -0.6725  -27.9681  -47.3729 C.3       14 UNK         0.1400 
     81 CB          0.6524  -27.2466  -47.6713 C.3       14 UNK        -0.1800 
     82 C          -1.5118  -28.1264  -48.6610 C.2       14 UNK         0.5000 
     83 O          -1.0373  -28.7624  -49.6031 O.2       14 UNK        -0.5000 
     84 N          -2.7254  -27.5527  -48.6888 N.am      15 UNK        -0.5000 
     85 CA         -3.6885  -27.5439  -49.7950 C.3       15 UNK         0.1400 
     86 CB         -4.1625  -28.9720  -50.1379 C.3       15 UNK        -0.1800 
     87 C          -3.1977  -26.7507  -51.0245 C.2       15 UNK         0.5000 
     88 O          -3.5491  -27.0841  -52.1576 O.2       15 UNK        -0.5000 
     89 N          -2.4168  -25.6945  -50.7747 N.am      16 UNK        -0.5000 
     90 CA         -1.9108  -24.7499  -51.7660 C.3       16 UNK         0.1400 
     91 CB         -0.4282  -25.0573  -52.0459 C.3       16 UNK        -0.1800 
     92 C          -2.1451  -23.3300  -51.2272 C.2       16 UNK         0.5000 
     93 O          -1.2034  -22.5433  -51.1302 O.2       16 UNK        -0.5000 
     94 N          -3.3987  -23.0715  -50.8218 N.am      17 UNK        -0.5000 
     95 CA         -3.8686  -21.8863  -50.1027 C.3       17 UNK         0.1400 
     96 CB         -5.3978  -21.9548  -49.9749 C.3       17 UNK        -0.1800 
     97 C          -3.4369  -20.5535  -50.7323 C.2       17 UNK         0.5000 
     98 O          -3.6513  -20.3419  -51.9281 O.2       17 UNK        -0.5000 
     99 N          -2.8469  -19.6871  -49.8999 N.am      18 UNK        -0.5000 
    100 CA        -2.2976  -18.3939  -50.2909 C.3       18 UNK         0.1400 
    101 CB        -1.6523  -17.7345  -49.0697 C.3       18 UNK        -0.1800 
    102 C         -3.3539  -17.4751  -50.9288 C.2       18 UNK         0.5000 
    103 O         -4.4755  -17.3910  -50.4232 O.2       18 UNK        -0.5000 
    104 N         -2.9802  -16.8528  -52.0538 N.am      19 UNK        -0.5000 
    105 CA        -3.7984  -16.0660  -52.9855 C.3       19 UNK         0.1400 
    106 CB        -4.4526  -14.8508  -52.3038 C.3       19 UNK        -0.1800 
    107 C         -4.8328  -16.9078  -53.7600 C.2       19 UNK         0.5000 
    108 O         -4.8913  -16.8079  -54.9862 O.2       19 UNK        -0.5000 
    109 N         -5.6068  -17.7308  -53.0419 N.am      20 UNK        -0.5000 
    110 CA        -6.6901  -18.5707  -53.5523 C.3       20 UNK         0.1400 
    111 CB        -7.3834  -19.2690  -52.3726 C.3       20 UNK        -0.1800 
    112 C         -6.2394  -19.5931  -54.6110 C.2       20 UNK         0.5000 
    113 O         -6.8491  -19.6638  -55.6791 O.2       20 UNK        -0.5000 
    114 N         -5.1751  -20.3485  -54.3101 N.am      21 UNK        -0.5000 
    115 CA        -4.5554  -21.2905  -55.2442 C.3       21 UNK         0.1400 
    116 CB        -3.9033  -22.4354  -54.4524 C.3       21 UNK        -0.1800 
    117 C         -3.5120  -20.6018  -56.1425 C.2       21 UNK         0.5000 
    118 O         -3.2347  -21.0967  -57.2359 O.2       21 UNK        -0.5000 
    119 N         -2.9401  -19.4922  -55.6584 N.am      22 UNK        -0.5000 
    120 CA        -1.8838  -18.7215  -56.3327 C.3       22 UNK         0.1400 
    121 C         -2.3811  -17.9475  -57.5848 C.2       22 UNK         0.5000 
    122 N         -3.5945  -17.4085  -57.5752 N.am      22 UNK        -0.7600 
    123 O         -1.6594  -17.8354  -58.5717 O.2       22 UNK        -0.5000 
    124 C124       -1.1491  -17.7550  -55.3673 C.3       23 UNK        -0.0398 
    125 S125       -0.6600  -18.5390  -53.7940 S.3       23 UNK        -0.2404 
    126 C126        0.6482  -17.4099  -53.2147 C.3       23 UNK        -0.0205 
    127 H127       -4.4823  -15.9273  -46.5609 H         1 UNK         0.0600 
    128 H128       -5.3915  -16.0445  -48.0694 H         1 UNK         0.0600 
    129 H129       -5.6388  -14.6647  -46.9934 H         1 UNK         0.0600 
    130 H130       -2.3839  -15.2603  -46.8684 H         1 UNK         0.3000 
    131 H131       -1.4283  -14.1984  -49.3493 H         1 UNK         0.0600 
    132 H132        0.1473  -14.2847  -46.7155 H         1 UNK         0.0800 
    133 H133       -0.1574  -15.7227  -47.6375 H         1 UNK         0.0800 
    134 H134        3.3723  -15.5862  -48.8806 H         1 UNK         0.0800 
    135 H135        2.3000  -16.1779  -47.6399 H         1 UNK         0.0800 
    136 H136        1.2631  -15.6652  -51.2292 H         1 UNK         0.1150 
    137 H137        1.1978  -19.8569  -52.0971 H         1 UNK         0.1150 
    138 H138        2.5688  -18.4856  -48.2804 H         1 UNK         0.1150 
    139 H139        1.6509  -21.4772  -50.4071 H         1 UNK         0.0800 
    140 H140        3.2661  -20.9458  -50.0223 H         1 UNK         0.0800 
    141 H141       -0.1743  -21.7566  -48.9799 H         1 UNK         0.0800 
    142 H142       -0.3512  -20.8563  -47.5001 H         1 UNK         0.0800 
    143 H143        0.7015  -23.7306  -47.5790 H         1 UNK         0.0600 
    144 H144        0.4782  -21.9053  -45.4310 H         1 UNK         0.3000 
    145 H145        0.1706  -24.3300  -42.7884 H         1 UNK         0.0600 
    146 H146        2.0660  -22.9119  -41.9843 H         1 UNK         0.0600 
    147 H147        2.5808  -24.0545  -43.2172 H         1 UNK         0.0600 
    148 H148        2.3609  -22.3628  -43.6327 H         1 UNK         0.0600 
    149 H149        0.1184  -21.4863  -42.7226 H         1 UNK         0.3000 
    150 H150       -3.4079  -21.0848  -43.2246 H         1 UNK         0.0600 
    151 H151       -3.1797  -21.6050  -40.8135 H         1 UNK         0.0600 
    152 H152       -3.1567  -19.8674  -41.0706 H         1 UNK         0.0600 
    153 H153       -1.6577  -20.7314  -40.7328 H         1 UNK         0.0600 
    154 H154       -1.2047  -19.2863  -42.7322 H         1 UNK         0.3000 
    155 H155       -0.4342  -18.6396  -46.1430 H         1 UNK         0.0600 
    156 H156       -1.8804  -16.9527  -44.0300 H         1 UNK         0.0600 
    157 H157       -0.8961  -16.3122  -45.3413 H         1 UNK         0.0600 
    158 H158       -2.3847  -17.1837  -45.6984 H         1 UNK         0.0600 
    159 H159        0.5300  -17.5924  -43.6467 H         1 UNK         0.3000 
    160 H160        3.0871  -20.0577  -43.1387 H         1 UNK         0.0600 
    161 H161        4.5855  -18.0930  -43.3505 H         1 UNK         0.0600 
    162 H162        3.3218  -17.1789  -44.1750 H         1 UNK         0.0600 
    163 H163        4.0320  -18.5956  -44.9399 H         1 UNK         0.0600 
    164 H164        2.6221  -17.6001  -41.8274 H         1 UNK         0.3000 
    165 H165       -0.1835  -18.2729  -39.9210 H         1 UNK         0.0600 
    166 H166        1.1797  -18.1008  -37.8564 H         1 UNK         0.0600 
    167 H167        1.3457  -19.7039  -38.5525 H         1 UNK         0.0600 
    168 H168        2.6395  -18.5280  -38.7507 H         1 UNK         0.0600 
    169 H169        1.7863  -16.3081  -39.4951 H         1 UNK         0.3000 
    170 H170        0.9704  -14.0259  -40.2361 H         1 UNK         0.0600 
    171 H171        3.0948  -13.4224  -41.4678 H         1 UNK         0.0600 
    172 H172        2.9670  -14.8898  -42.4306 H         1 UNK         0.0600 
    173 H173        3.2788  -14.9830  -40.7003 H         1 UNK         0.0600 
    174 H174       -0.0651  -14.4225  -42.8355 H         1 UNK         0.3000 
    175 H175       -0.6805  -12.9210  -44.2696 H         1 UNK         0.0600 
    176 H176       -2.0889  -10.8967  -44.2398 H         1 UNK         0.0600 
    177 H177       -1.1702  -10.2295  -42.8894 H         1 UNK         0.0600 
    178 H178       -2.1465  -11.6771  -42.6669 H         1 UNK         0.0600 
    179 H179        0.2477  -10.3760  -44.9447 H         1 UNK         0.3000 
    180 H180        2.3964   -9.9042  -45.9663 H         1 UNK         0.0600 
    181 H181        3.5492  -12.3921  -47.3488 H         1 UNK         0.0600 
    182 H182        4.3262  -11.4850  -46.0559 H         1 UNK         0.0600 
    183 H183        4.0592  -10.7270  -47.6185 H         1 UNK         0.0600 
    184 H184        1.3833  -11.6129  -48.1769 H         1 UNK         0.3000 
    185 H185       -1.6438   -9.8249  -48.4965 H         1 UNK         0.0600 
    186 H186        0.6892  -10.1116  -50.4701 H         1 UNK         0.0600 
    187 H187       -1.0016   -9.8436  -50.8959 H         1 UNK         0.0600 
    188 H188       -0.1037   -8.6013  -50.0384 H         1 UNK         0.0600 
    189 H189       -0.5284  -12.1413  -49.7780 H         1 UNK         0.3000 
    190 H190       -2.2361  -22.3462  -46.0359 H         1 UNK         0.3000 
    191 H191       -4.1184  -23.6559  -47.7313 H         1 UNK         0.0600 
    192 H192       -4.7028  -21.7148  -46.3004 H         1 UNK         0.0600 
    193 H193       -5.7479  -23.0849  -45.9554 H         1 UNK         0.0600 
    194 H194       -4.4431  -22.6802  -44.8494 H         1 UNK         0.0600 
    195 H195       -2.6826  -24.6828  -44.5970 H         1 UNK         0.3000 
    196 H196       -4.0399  -27.1583  -44.3853 H         1 UNK         0.0600 
    197 H197       -2.2371  -27.7118  -42.7560 H         1 UNK         0.0600 
    198 H198       -2.8358  -26.0793  -42.5017 H         1 UNK         0.0600 
    199 H199       -1.2909  -26.3365  -43.3094 H         1 UNK         0.0600 
    200 H200       -1.0789  -26.2914  -46.1437 H         1 UNK         0.3000 
    201 H201       -0.4361  -28.9734  -47.0186 H         1 UNK         0.0600 
    202 H202        1.2691  -27.1675  -46.7759 H         1 UNK         0.0600 
    203 H203        0.4850  -26.2393  -48.0522 H         1 UNK         0.0600 
    204 H204        1.2353  -27.7863  -48.4186 H         1 UNK         0.0600 
    205 H205       -3.0211  -27.0386  -47.8675 H         1 UNK         0.3000 
    206 H206       -4.5575  -26.9991  -49.4238 H         1 UNK         0.0600 
    207 H207       -4.5030  -29.4987  -49.2464 H         1 UNK         0.0600 
    208 H208       -4.9986  -28.9480  -50.8377 H         1 UNK         0.0600 
    209 H209       -3.3716  -29.5649  -50.5976 H         1 UNK         0.0600 
    210 H210       -2.1840  -25.4666  -49.8102 H         1 UNK         0.3000 
    211 H211       -2.4679  -24.8320  -52.7015 H         1 UNK         0.0600 
    212 H212        0.1762  -24.9678  -51.1420 H         1 UNK         0.0600 
    213 H213       -0.0189  -24.3714  -52.7885 H         1 UNK         0.0600 
    214 H214       -0.3034  -26.0690  -52.4321 H         1 UNK         0.0600 
    215 H215       -4.0869  -23.7950  -50.9644 H         1 UNK         0.3000 
    216 H216       -3.4400  -21.9345  -49.1018 H         1 UNK         0.0600 
    217 H217       -5.7884  -21.0799  -49.4533 H         1 UNK         0.0600 
    218 H218       -5.7121  -22.8339  -49.4125 H         1 UNK         0.0600 
    219 H219       -5.8774  -21.9968  -50.9536 H         1 UNK         0.0600 
    220 H220       -2.7605  -19.9268  -48.9243 H         1 UNK         0.3000 
    221 H221       -1.5134  -18.5932  -51.0208 H         1 UNK         0.0600 
    222 H222       -2.3794  -17.5487  -48.2789 H         1 UNK         0.0600 
    223 H223       -0.8528  -18.3523  -48.6607 H         1 UNK         0.0600 
    224 H224       -1.2112  -16.7812  -49.3563 H         1 UNK         0.0600 
    225 H225       -2.0468  -17.0489  -52.3893 H         1 UNK         0.3000 
    226 H226       -3.1024  -15.6681  -53.7241 H         1 UNK         0.0600 
    227 H227       -3.7043  -14.2252  -51.8175 H         1 UNK         0.0600 
    228 H228       -4.9702  -14.2288  -53.0348 H         1 UNK         0.0600 
    229 H229       -5.1855  -15.1419  -51.5512 H         1 UNK         0.0600 
    230 H230       -5.4461  -17.7513  -52.0387 H         1 UNK         0.3000 
    231 H231       -7.4173  -17.9089  -54.0268 H         1 UNK         0.0600 
    232 H232       -6.6834  -19.8791  -51.8019 H         1 UNK         0.0600 
    233 H233       -8.1866  -19.9212  -52.7176 H         1 UNK         0.0600 
    234 H234       -7.8245  -18.5425  -51.6899 H         1 UNK         0.0600 
    235 H235       -4.7175  -20.2429  -53.4054 H         1 UNK         0.3000 
    236 H236       -5.3231  -21.7234  -55.8890 H         1 UNK         0.0600 
    237 H237       -4.6156  -22.9062  -53.7747 H         1 UNK         0.0600 
    238 H238       -3.5296  -23.2092  -55.1239 H         1 UNK         0.0600 
    239 H239       -3.0581  -22.0824  -53.8609 H         1 UNK         0.0600 
    240 H240       -3.2205  -19.1694  -54.7453 H         1 UNK         0.3000 
    241 H241       -1.1443  -19.4441  -56.6841 H         1 UNK         0.0600 
    242 H242       -4.1636  -17.4253  -56.7346 H         1 UNK         0.3800 
    243 H243       -3.9224  -16.9101  -58.3870 H         1 UNK         0.3800 
    244 H244       -0.2553  -17.3589  -55.8527 H         1 UNK         0.0800 
    245 H245       -1.7756  -16.8937  -55.1376 H         1 UNK         0.0800 
    246 H246        0.2733  -16.3862  -53.2626 H         1 UNK         0.0800 
    247 H247        1.4961  -17.4651  -53.8986 H         1 UNK         0.0800 
@<TRIPOS>BOND
     1    1    2 1    
     2    1  127 1    
     3    1  128 1    
     4    1  129 1    
     5    2    3 2    
     6    2    4 am   BACKBONE|DICT|INTERRES
     7    4    5 1    
     8    4  130 1    
     9    5    6 1    
    10    5   65 1    
    11    5  131 1    
    12    6    7 1    
    13    6  132 1    
    14    6  133 1    
    15    7    8 1    
    16    8    9 1    
    17    8  134 1    
    18    8  135 1    
    19    9   10 ar   
    20    9   14 ar   
    21   10   11 ar   
    22   10  136 1    
    23   11   12 ar   
    24   11  126 1    
    25   12   13 ar   
    26   12  137 1    
    27   13   14 ar   
    28   13   15 1    
    29   14  138 1    
    30   15   16 1    
    31   15  139 1    
    32   15  140 1    
    33   16   17 1    
    34   17   18 1    
    35   17  141 1    
    36   17  142 1    
    37   18   19 1    
    38   18   67 1    
    39   18  143 1    
    40   19   20 am   BACKBONE|DICT|INTERRES
    41   19  144 1    
    42   20   21 2    
    43   20   22 1    
    44   22   23 1    
    45   22   24 1    
    46   22  145 1    
    47   23  146 1    
    48   23  147 1    
    49   23  148 1    
    50   24   25 am   BACKBONE|DICT|INTERRES
    51   24  149 1    
    52   25   26 2    
    53   25   27 1    
    54   27   28 1    
    55   27   29 1    
    56   27  150 1    
    57   28  151 1    
    58   28  152 1    
    59   28  153 1    
    60   29   30 am   BACKBONE|DICT|INTERRES
    61   29  154 1    
    62   30   31 2    
    63   30   32 1    
    64   32   33 1    
    65   32   34 1    
    66   32  155 1    
    67   33  156 1    
    68   33  157 1    
    69   33  158 1    
    70   34   35 am   BACKBONE|DICT|INTERRES
    71   34  159 1    
    72   35   36 2    
    73   35   37 1    
    74   37   38 1    
    75   37   39 1    
    76   37  160 1    
    77   38  161 1    
    78   38  162 1    
    79   38  163 1    
    80   39   40 am   BACKBONE|DICT|INTERRES
    81   39  164 1    
    82   40   41 2    
    83   40   42 1    
    84   42   43 1    
    85   42   44 1    
    86   42  165 1    
    87   43  166 1    
    88   43  167 1    
    89   43  168 1    
    90   44   45 am   BACKBONE|DICT|INTERRES
    91   44  169 1    
    92   45   46 2    
    93   45   47 1    
    94   47   48 1    
    95   47   49 1    
    96   47  170 1    
    97   48  171 1    
    98   48  172 1    
    99   48  173 1    
   100   49   50 am   BACKBONE|DICT|INTERRES
   101   49  174 1    
   102   50   51 2    
   103   50   52 1    
   104   52   53 1    
   105   52   54 1    
   106   52  175 1    
   107   53  176 1    
   108   53  177 1    
   109   53  178 1    
   110   54   55 am   BACKBONE|DICT|INTERRES
   111   54  179 1    
   112   55   56 2    
   113   55   57 1    
   114   57   58 1    
   115   57   59 1    
   116   57  180 1    
   117   58  181 1    
   118   58  182 1    
   119   58  183 1    
   120   59   60 am   BACKBONE|DICT|INTERRES
   121   59  184 1    
   122   60   61 2    
   123   60   62 1    
   124   62   63 1    
   125   62   64 1    
   126   62  185 1    
   127   63  186 1    
   128   63  187 1    
   129   63  188 1    
   130   64   65 am   BACKBONE|DICT|INTERRES
   131   64  189 1    
   132   65   66 2    
   133   67   68 2    
   134   67   69 am   BACKBONE|DICT|INTERRES
   135   69   70 1    
   136   69  190 1    
   137   70   71 1    
   138   70   72 1    
   139   70  191 1    
   140   71  192 1    
   141   71  193 1    
   142   71  194 1    
   143   72   73 2    
   144   72   74 am   BACKBONE|DICT|INTERRES
   145   74   75 1    
   146   74  195 1    
   147   75   76 1    
   148   75   77 1    
   149   75  196 1    
   150   76  197 1    
   151   76  198 1    
   152   76  199 1    
   153   77   78 2    
   154   77   79 am   BACKBONE|DICT|INTERRES
   155   79   80 1    
   156   79  200 1    
   157   80   81 1    
   158   80   82 1    
   159   80  201 1    
   160   81  202 1    
   161   81  203 1    
   162   81  204 1    
   163   82   83 2    
   164   82   84 am   BACKBONE|DICT|INTERRES
   165   84   85 1    
   166   84  205 1    
   167   85   86 1    
   168   85   87 1    
   169   85  206 1    
   170   86  207 1    
   171   86  208 1    
   172   86  209 1    
   173   87   88 2    
   174   87   89 am   BACKBONE|DICT|INTERRES
   175   89   90 1    
   176   89  210 1    
   177   90   91 1    
   178   90   92 1    
   179   90  211 1    
   180   91  212 1    
   181   91  213 1    
   182   91  214 1    
   183   92   93 2    
   184   92   94 am   BACKBONE|DICT|INTERRES
   185   94   95 1    
   186   94  215 1    
   187   95   96 1    
   188   95   97 1    
   189   95  216 1    
   190   96  217 1    
   191   96  218 1    
   192   96  219 1    
   193   97   98 2    
   194   97   99 am   BACKBONE|DICT|INTERRES
   195   99  100 1    
   196   99  220 1    
   197  100  101 1    
   198  100  102 1    
   199  100  221 1    
   200  101  222 1    
   201  101  223 1    
   202  101  224 1    
   203  102  103 2    
   204  102  104 am   BACKBONE|DICT|INTERRES
   205  104  105 1    
   206  104  225 1    
   207  105  106 1    
   208  105  107 1    
   209  105  226 1    
   210  106  227 1    
   211  106  228 1    
   212  106  229 1    
   213  107  108 2    
   214  107  109 am   BACKBONE|DICT|INTERRES
   215  109  110 1    
   216  109  230 1    
   217  110  111 1    
   218  110  112 1    
   219  110  231 1    
   220  111  232 1    
   221  111  233 1    
   222  111  234 1    
   223  112  113 2    
   224  112  114 am   BACKBONE|DICT|INTERRES
   225  114  115 1    
   226  114  235 1    
   227  115  116 1    
   228  115  117 1    
   229  115  236 1    
   230  116  237 1    
   231  116  238 1    
   232  116  239 1    
   233  117  118 2    
   234  117  119 am   BACKBONE|DICT|INTERRES
   235  119  120 1    
   236  119  240 1    
   237  120  121 1    
   238  120  124 1    
   239  120  241 1    
   240  121  122 am   BACKBONE|DICT|INTERRES
   241  121  123 2    
   242  122  242 1    
   243  122  243 1    
   244  124  125 1    
   245  124  244 1    
   246  124  245 1    
   247  125  126 1    
   248  126  246 1    
   249  126  247 1    
@<TRIPOS>SUBSTRUCTURE
     1 UNK         1 GROUP             0       ****    0 ROOT    
