@<TRIPOS>MOLECULE
3R540
247   249    1
SMALL
USER_CHARGES


@<TRIPOS>ATOM
      1 CA          5.3763  -14.2050  -43.8503 C.3       0 UNK        -0.1800 
      2 C           4.1365  -13.4688  -44.3354 C.2       0 UNK         0.5000 
      3 O           3.1809  -13.3249  -43.5750 O.2       0 UNK        -0.5000 
      4 N           4.1493  -13.0161  -45.5948 N.am      1 UNK        -0.5000 
      5 CA          3.0881  -12.2044  -46.2115 C.3       1 UNK         0.1400 
      6 C6          2.7625  -12.6675  -47.6531 C.3       23 UNK        -0.0398 
      7 S7          1.9781  -14.3127  -47.6804 S.3       23 UNK        -0.2404 
      8 C8          2.5614  -14.9368  -49.2858 C.3       23 UNK        -0.0205 
      9 C9          1.8637  -16.2304  -49.6809 C.ar      23 UNK        -0.0193 
     10 C10         0.5237  -16.2058  -50.0794 C.ar      23 UNK        -0.1150 
     11 C11        -0.1306  -17.3757  -50.4763 C.ar      23 UNK        -0.0193 
     12 C12         0.5848  -18.5787  -50.4863 C.ar      23 UNK        -0.1150 
     13 C13         1.9259  -18.6205  -50.0955 C.ar      23 UNK        -0.0193 
     14 C14         2.5585  -17.4437  -49.6834 C.ar      23 UNK        -0.1150 
     15 C15         2.6942  -19.9342  -50.1539 C.3       23 UNK        -0.0205 
     16 S16         2.5564  -20.8958  -48.6144 S.3       23 UNK        -0.2404 
     17 C17         0.7786  -21.3044  -48.6040 C.3       23 UNK        -0.0398 
     18 CA          0.4155  -22.3865  -47.5635 C.3       11 UNK         0.1400 
     19 N           0.6077  -21.9245  -46.1843 N.am      11 UNK        -0.5000 
     20 C           0.5107  -22.6921  -45.0897 C.2       10 UNK         0.5000 
     21 O           0.2411  -23.8931  -45.1206 O.2       10 UNK        -0.5000 
     22 CA          0.7084  -21.9931  -43.7323 C.3       10 UNK         0.1400 
     23 CB          2.1948  -21.7187  -43.4565 C.3       10 UNK        -0.1800 
     24 N          -0.0520  -20.7463  -43.6475 N.am      10 UNK        -0.5000 
     25 C          -1.3862  -20.6880  -43.5308 C.2       9 UNK         0.5000 
     26 O          -2.1025  -21.6806  -43.3992 O.2       9 UNK        -0.5000 
     27 CA         -2.0384  -19.2931  -43.5932 C.3       9 UNK         0.1400 
     28 CB         -2.0823  -18.6523  -42.1980 C.3       9 UNK        -0.1800 
     29 N          -1.3736  -18.3810  -44.5244 N.am      9 UNK        -0.5000 
     30 C          -1.2876  -18.5695  -45.8490 C.2       8 UNK         0.5000 
     31 O          -1.7882  -19.5249  -46.4396 O.2       8 UNK        -0.5000 
     32 CA         -0.4486  -17.5500  -46.6390 C.3       8 UNK         0.1400 
     33 CB         -1.2554  -16.2689  -46.8977 C.3       8 UNK        -0.1800 
     34 N           0.8146  -17.2239  -45.9735 N.am      8 UNK        -0.5000 
     35 C           1.7685  -18.1219  -45.6866 C.2       7 UNK         0.5000 
     36 O           1.6799  -19.3175  -45.9504 O.2       7 UNK        -0.5000 
     37 CA          2.9876  -17.6244  -44.8960 C.3       7 UNK         0.1400 
     38 CB          4.0179  -16.9450  -45.8089 C.3       7 UNK        -0.1800 
     39 N           2.5941  -16.7337  -43.8046 N.am      7 UNK        -0.5000 
     40 C           1.9400  -17.1516  -42.7115 C.2       6 UNK         0.5000 
     41 O           1.6528  -18.3286  -42.4914 O.2       6 UNK        -0.5000 
     42 CA          1.4986  -16.0648  -41.7189 C.3       6 UNK         0.1400 
     43 CB          2.6509  -15.6848  -40.7769 C.3       6 UNK        -0.1800 
     44 N           1.0025  -14.8598  -42.3832 N.am      6 UNK        -0.5000 
     45 C          -0.1216  -14.7876  -43.1092 C.2       5 UNK         0.5000 
     46 O          -0.8357  -15.7620  -43.3464 O.2       5 UNK        -0.5000 
     47 CA         -0.5123  -13.3940  -43.6349 C.3       5 UNK         0.1400 
     48 CB         -2.0257  -13.2484  -43.8788 C.3       5 UNK        -0.1800 
     49 N          -0.0688  -12.3626  -42.6951 N.am      5 UNK        -0.5000 
     50 C           0.5140  -11.2104  -43.0386 C.2       4 UNK         0.5000 
     51 O           0.6479  -10.8434  -44.2076 O.2       4 UNK        -0.5000 
     52 CA          1.0419  -10.3413  -41.8754 C.3       4 UNK         0.1400 
     53 CB          2.0239  -11.1253  -40.9847 C.3       4 UNK        -0.1800 
     54 N           1.7332   -9.1518  -42.3655 N.am      4 UNK        -0.5000 
     55 C           1.1592   -8.0456  -42.8482 C.2       3 UNK         0.5000 
     56 O          -0.0507   -7.8219  -42.7842 O.2       3 UNK        -0.5000 
     57 CA          2.0843   -7.0256  -43.5463 C.3       3 UNK         0.1400 
     58 CB          2.7204   -6.0573  -42.5303 C.3       3 UNK        -0.1800 
     59 N           3.0947   -7.6284  -44.4328 N.am      3 UNK        -0.5000 
     60 C           4.1604   -8.3768  -44.1149 C.2       2 UNK         0.5000 
     61 O           4.4731   -8.6795  -42.9617 O.2       2 UNK        -0.5000 
     62 CA          4.9691   -8.9496  -45.2915 C.3       2 UNK         0.1400 
     63 CB          6.4817   -8.9232  -45.0136 C.3       2 UNK        -0.1800 
     64 N           4.5555  -10.3291  -45.5364 N.am      2 UNK        -0.5000 
     65 C           3.4313  -10.6951  -46.1693 C.2       1 UNK         0.5000 
     66 O           2.6816   -9.8842  -46.7159 O.2       1 UNK        -0.5000 
     67 C          -1.0121  -22.9081  -47.8231 C.2       11 UNK         0.5000 
     68 O          -1.1676  -23.8534  -48.5943 O.2       11 UNK        -0.5000 
     69 N          -2.0195  -22.3261  -47.1549 N.am      12 UNK        -0.5000 
     70 CA         -3.4346  -22.7041  -47.2355 C.3       12 UNK         0.1400 
     71 CB         -4.2765  -21.7031  -46.4293 C.3       12 UNK        -0.1800 
     72 C          -3.7534  -24.1511  -46.8034 C.2       12 UNK         0.5000 
     73 O          -4.8353  -24.6403  -47.1254 O.2       12 UNK        -0.5000 
     74 N          -2.8177  -24.8244  -46.1160 N.am      13 UNK        -0.5000 
     75 CA         -2.8741  -26.2625  -45.8395 C.3       13 UNK         0.1400 
     76 CB         -1.7964  -26.6191  -44.8051 C.3       13 UNK        -0.1800 
     77 C          -2.7110  -27.1240  -47.1114 C.2       13 UNK         0.5000 
     78 O          -3.1869  -28.2598  -47.1362 O.2       13 UNK        -0.5000 
     79 N          -2.0581  -26.5650  -48.1387 N.am      14 UNK        -0.5000 
     80 CA         -1.9746  -27.0949  -49.4925 C.3       14 UNK         0.1400 
     81 CB         -0.4989  -27.0983  -49.9388 C.3       14 UNK        -0.1800 
     82 C          -2.8996  -26.2292  -50.3669 C.2       14 UNK         0.5000 
     83 O          -4.1149  -26.2934  -50.1810 O.2       14 UNK        -0.5000 
     84 N          -2.3289  -25.4344  -51.2862 N.am      15 UNK        -0.5000 
     85 CA         -2.9925  -24.4275  -52.1285 C.3       15 UNK         0.1400 
     86 CB         -3.3853  -23.2040  -51.2766 C.3       15 UNK        -0.1800 
     87 C          -4.1786  -24.9845  -52.9452 C.2       15 UNK         0.5000 
     88 O          -5.2291  -24.3420  -53.0247 O.2       15 UNK        -0.5000 
     89 N          -3.9764  -26.1834  -53.5134 N.am      16 UNK        -0.5000 
     90 CA         -4.9474  -26.9951  -54.2566 C.3       16 UNK         0.1400 
     91 CB         -5.3300  -26.3250  -55.5915 C.3       16 UNK        -0.1800 
     92 C          -6.1641  -27.3925  -53.3945 C.2       16 UNK         0.5000 
     93 O          -7.3085  -27.2240  -53.8157 O.2       16 UNK        -0.5000 
     94 N          -5.8712  -27.9130  -52.1936 N.am      17 UNK        -0.5000 
     95 CA         -6.8104  -28.3464  -51.1534 C.3       17 UNK         0.1400 
     96 CB         -7.6751  -29.5306  -51.6365 C.3       17 UNK        -0.1800 
     97 C          -7.6341  -27.1708  -50.5922 C.2       17 UNK         0.5000 
     98 O          -8.8652  -27.2246  -50.5645 O.2       17 UNK        -0.5000 
     99 N          -6.9143  -26.1266  -50.1585 N.am      18 UNK        -0.5000 
    100 CA        -7.4101  -24.8871  -49.5535 C.3       18 UNK         0.1400 
    101 CB        -8.0882  -25.1704  -48.1966 C.3       18 UNK        -0.1800 
    102 C         -8.2895  -24.0426  -50.5001 C.2       18 UNK         0.5000 
    103 O         -9.1668  -23.3112  -50.0378 O.2       18 UNK        -0.5000 
    104 N         -8.0215  -24.1294  -51.8100 N.am      19 UNK        -0.5000 
    105 CA        -8.6848  -23.3404  -52.8514 C.3       19 UNK         0.1400 
    106 CB        -8.6476  -24.1287  -54.1685 C.3       19 UNK        -0.1800 
    107 C         -8.0497  -21.9471  -53.0355 C.2       19 UNK         0.5000 
    108 O         -8.5750  -21.1464  -53.8099 O.2       19 UNK        -0.5000 
    109 N         -6.9330  -21.6928  -52.3358 N.am      20 UNK        -0.5000 
    110 CA        -6.0986  -20.4891  -52.3851 C.3       20 UNK         0.1400 
    111 CB        -6.8815  -19.2332  -51.9481 C.3       20 UNK        -0.1800 
    112 C         -5.3854  -20.3268  -53.7422 C.2       20 UNK         0.5000 
    113 O         -5.1902  -19.2037  -54.2121 O.2       20 UNK        -0.5000 
    114 N         -4.9778  -21.4555  -54.3422 N.am      21 UNK        -0.5000 
    115 CA        -4.1778  -21.5169  -55.5666 C.3       21 UNK         0.1400 
    116 CB        -4.3709  -22.8939  -56.2226 C.3       21 UNK        -0.1800 
    117 C         -2.6957  -21.1977  -55.2746 C.2       21 UNK         0.5000 
    118 O         -1.8307  -22.0666  -55.3965 O.2       21 UNK        -0.5000 
    119 N         -2.4446  -19.9553  -54.8513 N.am      22 UNK        -0.5000 
    120 CA        -1.1290  -19.4273  -54.4560 C.3       22 UNK         0.1400 
    121 C         -0.1776  -19.0960  -55.6441 C.2       22 UNK         0.5000 
    122 N         -0.6337  -19.1072  -56.8909 N.am      22 UNK        -0.7600 
    123 O          1.0020  -18.8309  -55.4308 O.2       22 UNK        -0.5000 
    124 C124       -1.2778  -18.2059  -53.5127 C.3       23 UNK        -0.0398 
    125 S125       -2.2003  -18.6096  -51.9882 S.3       23 UNK        -0.2404 
    126 C126       -1.6108  -17.3029  -50.8553 C.3       23 UNK        -0.0205 
    127 H127        5.8961  -13.6053  -43.1033 H         1 UNK         0.0600 
    128 H128        6.0695  -14.4130  -44.6656 H         1 UNK         0.0600 
    129 H129        5.0991  -15.1529  -43.3900 H         1 UNK         0.0600 
    130 H130        4.9571  -13.1898  -46.1766 H         1 UNK         0.3000 
    131 H131        2.1711  -12.3142  -45.6326 H         1 UNK         0.0600 
    132 H132        2.0670  -11.9816  -48.1403 H         1 UNK         0.0800 
    133 H133        3.6663  -12.6741  -48.2643 H         1 UNK         0.0800 
    134 H134        2.3772  -14.1854  -50.0551 H         1 UNK         0.0800 
    135 H135        3.6423  -15.0792  -49.2429 H         1 UNK         0.0800 
    136 H136       -0.0136  -15.2677  -50.0695 H         1 UNK         0.1150 
    137 H137        0.1013  -19.4934  -50.7949 H         1 UNK         0.1150 
    138 H138        3.5961  -17.4712  -49.3817 H         1 UNK         0.1150 
    139 H139        2.3444  -20.5378  -50.9928 H         1 UNK         0.0800 
    140 H140        3.7493  -19.7351  -50.3468 H         1 UNK         0.0800 
    141 H141        0.5103  -21.6349  -49.6095 H         1 UNK         0.0800 
    142 H142        0.2084  -20.3949  -48.4085 H         1 UNK         0.0800 
    143 H143        1.0865  -23.2351  -47.7128 H         1 UNK         0.0600 
    144 H144        0.8841  -20.9496  -46.0760 H         1 UNK         0.3000 
    145 H145        0.3455  -22.6678  -42.9541 H         1 UNK         0.0600 
    146 H146        2.3350  -21.2620  -42.4765 H         1 UNK         0.0600 
    147 H147        2.7697  -22.6453  -43.4701 H         1 UNK         0.0600 
    148 H148        2.6322  -21.0521  -44.1994 H         1 UNK         0.0600 
    149 H149        0.4712  -19.8836  -43.7303 H         1 UNK         0.3000 
    150 H150       -3.0656  -19.4264  -43.9389 H         1 UNK         0.0600 
    151 H151       -2.5893  -19.3023  -41.4839 H         1 UNK         0.0600 
    152 H152       -2.6220  -17.7053  -42.2164 H         1 UNK         0.0600 
    153 H153       -1.0804  -18.4581  -41.8137 H         1 UNK         0.0600 
    154 H154       -0.9734  -17.5372  -44.1236 H         1 UNK         0.3000 
    155 H155       -0.2036  -17.9995  -47.6028 H         1 UNK         0.0600 
    156 H156       -1.5078  -15.7565  -45.9705 H         1 UNK         0.0600 
    157 H157       -2.1901  -16.4959  -47.4117 H         1 UNK         0.0600 
    158 H158       -0.7046  -15.5712  -47.5262 H         1 UNK         0.0600 
    159 H159        0.9580  -16.2601  -45.7152 H         1 UNK         0.3000 
    160 H160        3.4689  -18.5032  -44.4607 H         1 UNK         0.0600 
    161 H161        4.9637  -16.7975  -45.2887 H         1 UNK         0.0600 
    162 H162        3.6742  -15.9746  -46.1589 H         1 UNK         0.0600 
    163 H163        4.2260  -17.5567  -46.6879 H         1 UNK         0.0600 
    164 H164        2.7644  -15.7446  -43.9160 H         1 UNK         0.3000 
    165 H165        0.6860  -16.4767  -41.1166 H         1 UNK         0.0600 
    166 H166        2.3202  -14.9772  -40.0164 H         1 UNK         0.0600 
    167 H167        3.0371  -16.5629  -40.2577 H         1 UNK         0.0600 
    168 H168        3.4815  -15.2298  -41.3177 H         1 UNK         0.0600 
    169 H169        1.6039  -14.0443  -42.3532 H         1 UNK         0.3000 
    170 H170        0.0040  -13.2799  -44.5904 H         1 UNK         0.0600 
    171 H171       -2.3822  -13.9747  -44.6094 H         1 UNK         0.0600 
    172 H172       -2.5946  -13.3980  -42.9606 H         1 UNK         0.0600 
    173 H173       -2.2673  -12.2583  -44.2655 H         1 UNK         0.0600 
    174 H174       -0.1509  -12.6015  -41.7165 H         1 UNK         0.3000 
    175 H175        0.1875  -10.0311  -41.2706 H         1 UNK         0.0600 
    176 H176        2.8795  -11.4884  -41.5556 H         1 UNK         0.0600 
    177 H177        2.4062  -10.4994  -40.1781 H         1 UNK         0.0600 
    178 H178        1.5480  -11.9882  -40.5184 H         1 UNK         0.0600 
    179 H179        2.7401   -9.2265  -42.4761 H         1 UNK         0.3000 
    180 H180        1.4456   -6.4305  -44.2010 H         1 UNK         0.0600 
    181 H181        3.3510   -6.5759  -41.8079 H         1 UNK         0.0600 
    182 H182        1.9509   -5.5291  -41.9661 H         1 UNK         0.0600 
    183 H183        3.3305   -5.3052  -43.0305 H         1 UNK         0.0600 
    184 H184        2.8916   -7.5265  -45.4184 H         1 UNK         0.3000 
    185 H185        4.7806   -8.3478  -46.1833 H         1 UNK         0.0600 
    186 H186        6.8209   -7.9076  -44.8059 H         1 UNK         0.0600 
    187 H187        6.7498   -9.5410  -44.1555 H         1 UNK         0.0600 
    188 H188        7.0455   -9.2844  -45.8739 H         1 UNK         0.0600 
    189 H189        5.1008  -11.0477  -45.0845 H         1 UNK         0.3000 
    190 H190       -1.8113  -21.5017  -46.5994 H         1 UNK         0.3000 
    191 H191       -3.7293  -22.6204  -48.2827 H         1 UNK         0.0600 
    192 H192       -3.9837  -21.6872  -45.3795 H         1 UNK         0.0600 
    193 H193       -5.3367  -21.9560  -46.4710 H         1 UNK         0.0600 
    194 H194       -4.1733  -20.6925  -46.8238 H         1 UNK         0.0600 
    195 H195       -1.9574  -24.3497  -45.8731 H         1 UNK         0.3000 
    196 H196       -3.8513  -26.4886  -45.4079 H         1 UNK         0.0600 
    197 H197       -1.8568  -27.6718  -44.5263 H         1 UNK         0.0600 
    198 H198       -1.9131  -26.0330  -43.8932 H         1 UNK         0.0600 
    199 H199       -0.7930  -26.4400  -45.1932 H         1 UNK         0.0600 
    200 H200       -1.7502  -25.6008  -48.0468 H         1 UNK         0.3000 
    201 H201       -2.3496  -28.1192  -49.5356 H         1 UNK         0.0600 
    202 H202        0.0935  -27.7553  -49.3016 H         1 UNK         0.0600 
    203 H203       -0.0500  -26.1054  -49.8876 H         1 UNK         0.0600 
    204 H204       -0.3949  -27.4662  -50.9603 H         1 UNK         0.0600 
    205 H205       -1.3212  -25.4571  -51.3539 H         1 UNK         0.3000 
    206 H206       -2.2521  -24.0952  -52.8578 H         1 UNK         0.0600 
    207 H207       -2.5338  -22.8270  -50.7111 H         1 UNK         0.0600 
    208 H208       -3.7312  -22.3873  -51.9077 H         1 UNK         0.0600 
    209 H209       -4.1805  -23.4433  -50.5699 H         1 UNK         0.0600 
    210 H210       -3.0728  -26.6124  -53.3721 H         1 UNK         0.3000 
    211 H211       -4.4396  -27.9289  -54.5026 H         1 UNK         0.0600 
    212 H212       -5.8573  -25.3853  -55.4388 H         1 UNK         0.0600 
    213 H213       -5.9812  -26.9715  -56.1807 H         1 UNK         0.0600 
    214 H214       -4.4466  -26.1198  -56.1957 H         1 UNK         0.0600 
    215 H215       -4.8976  -27.9449  -51.9273 H         1 UNK         0.3000 
    216 H216       -6.1996  -28.7096  -50.3253 H         1 UNK         0.0600 
    217 H217       -8.2823  -29.9248  -50.8209 H         1 UNK         0.0600 
    218 H218       -7.0545  -30.3481  -52.0030 H         1 UNK         0.0600 
    219 H219       -8.3563  -29.2412  -52.4370 H         1 UNK         0.0600 
    220 H220       -5.8980  -26.1928  -50.2227 H         1 UNK         0.3000 
    221 H221       -6.5238  -24.2833  -49.3538 H         1 UNK         0.0600 
    222 H222       -9.0290  -25.7082  -48.3163 H         1 UNK         0.0600 
    223 H223       -7.4408  -25.7634  -47.5504 H         1 UNK         0.0600 
    224 H224       -8.3062  -24.2422  -47.6673 H         1 UNK         0.0600 
    225 H225       -7.2621  -24.7252  -52.1175 H         1 UNK         0.3000 
    226 H226       -9.7311  -23.1902  -52.5779 H         1 UNK         0.0600 
    227 H227       -9.1161  -25.1066  -54.0569 H         1 UNK         0.0600 
    228 H228       -9.1818  -23.6010  -54.9594 H         1 UNK         0.0600 
    229 H229       -7.6248  -24.2825  -54.5097 H         1 UNK         0.0600 
    230 H230       -6.5764  -22.4513  -51.7726 H         1 UNK         0.3000 
    231 H231       -5.3083  -20.6388  -51.6489 H         1 UNK         0.0600 
    232 H232       -7.3795  -19.3916  -50.9916 H         1 UNK         0.0600 
    233 H233       -7.6382  -18.9478  -52.6789 H         1 UNK         0.0600 
    234 H234       -6.2108  -18.3817  -51.8268 H         1 UNK         0.0600 
    235 H235       -5.1787  -22.3417  -53.8936 H         1 UNK         0.3000 
    236 H236       -4.5461  -20.7647  -56.2674 H         1 UNK         0.0600 
    237 H237       -3.8456  -22.9480  -57.1767 H         1 UNK         0.0600 
    238 H238       -3.9870  -23.6959  -55.5933 H         1 UNK         0.0600 
    239 H239       -5.4243  -23.0937  -56.4191 H         1 UNK         0.0600 
    240 H240       -3.2355  -19.3329  -54.7226 H         1 UNK         0.3000 
    241 H241       -0.6228  -20.2119  -53.8900 H         1 UNK         0.0600 
    242 H242       -1.5988  -19.3227  -57.0820 H         1 UNK         0.3800 
    243 H243       -0.0065  -18.8958  -57.6514 H         1 UNK         0.3800 
    244 H244       -0.2944  -17.8242  -53.2332 H         1 UNK         0.0800 
    245 H245       -1.7897  -17.3879  -54.0220 H         1 UNK         0.0800 
    246 H246       -2.1976  -17.3571  -49.9376 H         1 UNK         0.0800 
    247 H247       -1.8323  -16.3343  -51.3063 H         1 UNK         0.0800 
@<TRIPOS>BOND
     1    1    2 1    
     2    1  127 1    
     3    1  128 1    
     4    1  129 1    
     5    2    3 2    
     6    2    4 am   BACKBONE|DICT|INTERRES
     7    4    5 1    
     8    4  130 1    
     9    5    6 1    
    10    5   65 1    
    11    5  131 1    
    12    6    7 1    
    13    6  132 1    
    14    6  133 1    
    15    7    8 1    
    16    8    9 1    
    17    8  134 1    
    18    8  135 1    
    19    9   10 ar   
    20    9   14 ar   
    21   10   11 ar   
    22   10  136 1    
    23   11   12 ar   
    24   11  126 1    
    25   12   13 ar   
    26   12  137 1    
    27   13   14 ar   
    28   13   15 1    
    29   14  138 1    
    30   15   16 1    
    31   15  139 1    
    32   15  140 1    
    33   16   17 1    
    34   17   18 1    
    35   17  141 1    
    36   17  142 1    
    37   18   19 1    
    38   18   67 1    
    39   18  143 1    
    40   19   20 am   BACKBONE|DICT|INTERRES
    41   19  144 1    
    42   20   21 2    
    43   20   22 1    
    44   22   23 1    
    45   22   24 1    
    46   22  145 1    
    47   23  146 1    
    48   23  147 1    
    49   23  148 1    
    50   24   25 am   BACKBONE|DICT|INTERRES
    51   24  149 1    
    52   25   26 2    
    53   25   27 1    
    54   27   28 1    
    55   27   29 1    
    56   27  150 1    
    57   28  151 1    
    58   28  152 1    
    59   28  153 1    
    60   29   30 am   BACKBONE|DICT|INTERRES
    61   29  154 1    
    62   30   31 2    
    63   30   32 1    
    64   32   33 1    
    65   32   34 1    
    66   32  155 1    
    67   33  156 1    
    68   33  157 1    
    69   33  158 1    
    70   34   35 am   BACKBONE|DICT|INTERRES
    71   34  159 1    
    72   35   36 2    
    73   35   37 1    
    74   37   38 1    
    75   37   39 1    
    76   37  160 1    
    77   38  161 1    
    78   38  162 1    
    79   38  163 1    
    80   39   40 am   BACKBONE|DICT|INTERRES
    81   39  164 1    
    82   40   41 2    
    83   40   42 1    
    84   42   43 1    
    85   42   44 1    
    86   42  165 1    
    87   43  166 1    
    88   43  167 1    
    89   43  168 1    
    90   44   45 am   BACKBONE|DICT|INTERRES
    91   44  169 1    
    92   45   46 2    
    93   45   47 1    
    94   47   48 1    
    95   47   49 1    
    96   47  170 1    
    97   48  171 1    
    98   48  172 1    
    99   48  173 1    
   100   49   50 am   BACKBONE|DICT|INTERRES
   101   49  174 1    
   102   50   51 2    
   103   50   52 1    
   104   52   53 1    
   105   52   54 1    
   106   52  175 1    
   107   53  176 1    
   108   53  177 1    
   109   53  178 1    
   110   54   55 am   BACKBONE|DICT|INTERRES
   111   54  179 1    
   112   55   56 2    
   113   55   57 1    
   114   57   58 1    
   115   57   59 1    
   116   57  180 1    
   117   58  181 1    
   118   58  182 1    
   119   58  183 1    
   120   59   60 am   BACKBONE|DICT|INTERRES
   121   59  184 1    
   122   60   61 2    
   123   60   62 1    
   124   62   63 1    
   125   62   64 1    
   126   62  185 1    
   127   63  186 1    
   128   63  187 1    
   129   63  188 1    
   130   64   65 am   BACKBONE|DICT|INTERRES
   131   64  189 1    
   132   65   66 2    
   133   67   68 2    
   134   67   69 am   BACKBONE|DICT|INTERRES
   135   69   70 1    
   136   69  190 1    
   137   70   71 1    
   138   70   72 1    
   139   70  191 1    
   140   71  192 1    
   141   71  193 1    
   142   71  194 1    
   143   72   73 2    
   144   72   74 am   BACKBONE|DICT|INTERRES
   145   74   75 1    
   146   74  195 1    
   147   75   76 1    
   148   75   77 1    
   149   75  196 1    
   150   76  197 1    
   151   76  198 1    
   152   76  199 1    
   153   77   78 2    
   154   77   79 am   BACKBONE|DICT|INTERRES
   155   79   80 1    
   156   79  200 1    
   157   80   81 1    
   158   80   82 1    
   159   80  201 1    
   160   81  202 1    
   161   81  203 1    
   162   81  204 1    
   163   82   83 2    
   164   82   84 am   BACKBONE|DICT|INTERRES
   165   84   85 1    
   166   84  205 1    
   167   85   86 1    
   168   85   87 1    
   169   85  206 1    
   170   86  207 1    
   171   86  208 1    
   172   86  209 1    
   173   87   88 2    
   174   87   89 am   BACKBONE|DICT|INTERRES
   175   89   90 1    
   176   89  210 1    
   177   90   91 1    
   178   90   92 1    
   179   90  211 1    
   180   91  212 1    
   181   91  213 1    
   182   91  214 1    
   183   92   93 2    
   184   92   94 am   BACKBONE|DICT|INTERRES
   185   94   95 1    
   186   94  215 1    
   187   95   96 1    
   188   95   97 1    
   189   95  216 1    
   190   96  217 1    
   191   96  218 1    
   192   96  219 1    
   193   97   98 2    
   194   97   99 am   BACKBONE|DICT|INTERRES
   195   99  100 1    
   196   99  220 1    
   197  100  101 1    
   198  100  102 1    
   199  100  221 1    
   200  101  222 1    
   201  101  223 1    
   202  101  224 1    
   203  102  103 2    
   204  102  104 am   BACKBONE|DICT|INTERRES
   205  104  105 1    
   206  104  225 1    
   207  105  106 1    
   208  105  107 1    
   209  105  226 1    
   210  106  227 1    
   211  106  228 1    
   212  106  229 1    
   213  107  108 2    
   214  107  109 am   BACKBONE|DICT|INTERRES
   215  109  110 1    
   216  109  230 1    
   217  110  111 1    
   218  110  112 1    
   219  110  231 1    
   220  111  232 1    
   221  111  233 1    
   222  111  234 1    
   223  112  113 2    
   224  112  114 am   BACKBONE|DICT|INTERRES
   225  114  115 1    
   226  114  235 1    
   227  115  116 1    
   228  115  117 1    
   229  115  236 1    
   230  116  237 1    
   231  116  238 1    
   232  116  239 1    
   233  117  118 2    
   234  117  119 am   BACKBONE|DICT|INTERRES
   235  119  120 1    
   236  119  240 1    
   237  120  121 1    
   238  120  124 1    
   239  120  241 1    
   240  121  122 am   BACKBONE|DICT|INTERRES
   241  121  123 2    
   242  122  242 1    
   243  122  243 1    
   244  124  125 1    
   245  124  244 1    
   246  124  245 1    
   247  125  126 1    
   248  126  246 1    
   249  126  247 1    
@<TRIPOS>SUBSTRUCTURE
     1 UNK         1 GROUP             0       ****    0 ROOT    
