@<TRIPOS>MOLECULE
3R540
247   249    1
SMALL
USER_CHARGES


@<TRIPOS>ATOM
      1 CA         -2.2445   -9.0049  -47.4464 C.3       0 UNK        -0.1800 
      2 C          -1.8951  -10.4832  -47.3652 C.2       0 UNK         0.5000 
      3 O          -1.2266  -10.9003  -46.4183 O.2       0 UNK        -0.5000 
      4 N          -2.3577  -11.2779  -48.3428 N.am      1 UNK        -0.5000 
      5 CA         -2.1146  -12.7228  -48.4656 C.3       1 UNK         0.1400 
      6 C6         -2.7589  -13.3020  -49.7521 C.3       23 UNK        -0.0398 
      7 S7         -2.2896  -15.0371  -50.0917 S.3       23 UNK        -0.2404 
      8 C8         -3.8247  -15.9058  -49.6307 C.3       23 UNK        -0.0205 
      9 C9         -3.5598  -17.3334  -49.1764 C.ar      23 UNK        -0.0193 
     10 C10        -3.0957  -18.2850  -50.0858 C.ar      23 UNK        -0.1150 
     11 C11        -2.8783  -19.6091  -49.6958 C.ar      23 UNK        -0.0193 
     12 C12        -3.1390  -19.9778  -48.3723 C.ar      23 UNK        -0.1150 
     13 C13        -3.6212  -19.0407  -47.4518 C.ar      23 UNK        -0.0193 
     14 C14        -3.8209  -17.7182  -47.8585 C.ar      23 UNK        -0.1150 
     15 C15        -3.9749  -19.4606  -46.0328 C.3       23 UNK        -0.0205 
     16 S16        -2.5568  -19.2803  -44.9066 S.3       23 UNK        -0.2404 
     17 C17        -2.4301  -20.9580  -44.2075 C.3       23 UNK        -0.0398 
     18 CA         -1.7135  -21.9368  -45.1666 C.3       11 UNK         0.1400 
     19 N          -0.3337  -21.5310  -45.4560 N.am      11 UNK        -0.5000 
     20 C           0.4367  -22.0329  -46.4319 C.2       10 UNK         0.5000 
     21 O           0.0451  -22.8902  -47.2251 O.2       10 UNK        -0.5000 
     22 CA          1.9001  -21.5513  -46.4713 C.3       10 UNK         0.1400 
     23 CB          2.0819  -20.3964  -47.4655 C.3       10 UNK        -0.1800 
     24 N           2.3629  -21.0953  -45.1618 N.am      10 UNK        -0.5000 
     25 C           2.6529  -21.8707  -44.1104 C.2       9 UNK         0.5000 
     26 O           2.5790  -23.0994  -44.1377 O.2       9 UNK        -0.5000 
     27 CA          3.0466  -21.1380  -42.8076 C.3       9 UNK         0.1400 
     28 CB          3.9547  -21.9835  -41.8915 C.3       9 UNK        -0.1800 
     29 N           3.6143  -19.8042  -43.0459 N.am      9 UNK        -0.5000 
     30 C           4.7578  -19.5010  -43.6805 C.2       8 UNK         0.5000 
     31 O           5.5669  -20.3412  -44.0754 O.2       8 UNK        -0.5000 
     32 CA          5.0356  -18.0096  -43.9639 C.3       8 UNK         0.1400 
     33 CB          4.8756  -17.7222  -45.4655 C.3       8 UNK        -0.1800 
     34 N           4.1699  -17.0929  -43.2183 N.am      8 UNK        -0.5000 
     35 C           4.2917  -16.8145  -41.9133 C.2       7 UNK         0.5000 
     36 O           5.1843  -17.2699  -41.1975 O.2       7 UNK        -0.5000 
     37 CA          3.2146  -15.9002  -41.2980 C.3       7 UNK         0.1400 
     38 CB          3.5710  -14.4211  -41.5100 C.3       7 UNK        -0.1800 
     39 N           1.8746  -16.1576  -41.8301 N.am      7 UNK        -0.5000 
     40 C           1.1933  -17.3020  -41.6717 C.2       6 UNK         0.5000 
     41 O           1.6094  -18.2646  -41.0272 O.2       6 UNK        -0.5000 
     42 CA         -0.1511  -17.4134  -42.4101 C.3       6 UNK         0.1400 
     43 CB         -1.2674  -16.6742  -41.6594 C.3       6 UNK        -0.1800 
     44 N          -0.0556  -16.9134  -43.7798 N.am      6 UNK        -0.5000 
     45 C           0.6327  -17.5255  -44.7531 C.2       5 UNK         0.5000 
     46 O           1.2188  -18.5967  -44.6019 O.2       5 UNK        -0.5000 
     47 CA          0.7142  -16.8087  -46.1099 C.3       5 UNK         0.1400 
     48 CB         -0.4504  -17.2277  -47.0172 C.3       5 UNK        -0.1800 
     49 N           0.7311  -15.3537  -45.9671 N.am      5 UNK        -0.5000 
     50 C           1.7611  -14.6661  -45.4563 C.2       4 UNK         0.5000 
     51 O           2.7978  -15.1936  -45.0527 O.2       4 UNK        -0.5000 
     52 CA          1.5964  -13.1416  -45.3425 C.3       4 UNK         0.1400 
     53 CB          1.7980  -12.4689  -46.7082 C.3       4 UNK        -0.1800 
     54 N           0.3101  -12.7289  -44.7801 N.am      4 UNK        -0.5000 
     55 C          -0.1125  -13.0201  -43.5415 C.2       3 UNK         0.5000 
     56 O           0.5002  -13.7519  -42.7640 O.2       3 UNK        -0.5000 
     57 CA         -1.4449  -12.3940  -43.1010 C.3       3 UNK         0.1400 
     58 CB         -1.2779  -10.8926  -42.8185 C.3       3 UNK        -0.1800 
     59 N          -2.4691  -12.5860  -44.1237 N.am      3 UNK        -0.5000 
     60 C          -3.3123  -13.6267  -44.1592 C.2       2 UNK         0.5000 
     61 O          -3.3847  -14.4779  -43.2733 O.2       2 UNK        -0.5000 
     62 CA         -4.2245  -13.7549  -45.3973 C.3       2 UNK         0.1400 
     63 CB         -5.6088  -13.1539  -45.1110 C.3       2 UNK        -0.1800 
     64 N          -3.6821  -13.1417  -46.6128 N.am      2 UNK        -0.5000 
     65 C          -2.5353  -13.5065  -47.2037 C.2       1 UNK         0.5000 
     66 O          -1.7910  -14.3782  -46.7612 O.2       1 UNK        -0.5000 
     67 C          -1.8433  -23.3955  -44.6716 C.2       11 UNK         0.5000 
     68 O          -2.9603  -23.9108  -44.6442 O.2       11 UNK        -0.5000 
     69 N          -0.7227  -24.0572  -44.3416 N.am      12 UNK        -0.5000 
     70 CA         -0.6625  -25.4951  -44.0695 C.3       12 UNK         0.1400 
     71 CB          0.7173  -25.8469  -43.4946 C.3       12 UNK        -0.1800 
     72 C          -0.9637  -26.3500  -45.3186 C.2       12 UNK         0.5000 
     73 O          -1.5525  -27.4233  -45.1855 O.2       12 UNK        -0.5000 
     74 N          -0.5826  -25.8536  -46.5064 N.am      13 UNK        -0.5000 
     75 CA         -0.9350  -26.4513  -47.7976 C.3       13 UNK         0.1400 
     76 CB          0.0970  -26.0236  -48.8494 C.3       13 UNK        -0.1800 
     77 C          -2.3513  -26.0459  -48.2469 C.2       13 UNK         0.5000 
     78 O          -3.0053  -26.8063  -48.9618 O.2       13 UNK        -0.5000 
     79 N          -2.7901  -24.8562  -47.8109 N.am      14 UNK        -0.5000 
     80 CA         -4.0926  -24.2099  -48.0029 C.3       14 UNK         0.1400 
     81 CB         -5.2415  -25.0603  -47.4304 C.3       14 UNK        -0.1800 
     82 C          -4.3792  -23.7773  -49.4506 C.2       14 UNK         0.5000 
     83 O          -4.7103  -22.6124  -49.6629 O.2       14 UNK        -0.5000 
     84 N          -4.2583  -24.7105  -50.4064 N.am      15 UNK        -0.5000 
     85 CA         -4.3899  -24.5551  -51.8640 C.3       15 UNK         0.1400 
     86 CB         -3.0586  -24.0526  -52.4547 C.3       15 UNK        -0.1800 
     87 C          -5.6037  -23.7105  -52.3162 C.2       15 UNK         0.5000 
     88 O          -5.4803  -22.8741  -53.2121 O.2       15 UNK        -0.5000 
     89 N          -6.7443  -23.9080  -51.6360 N.am      16 UNK        -0.5000 
     90 CA         -8.0205  -23.1968  -51.8017 C.3       16 UNK         0.1400 
     91 CB         -8.6626  -23.5699  -53.1544 C.3       16 UNK        -0.1800 
     92 C          -7.9390  -21.6634  -51.5996 C.2       16 UNK         0.5000 
     93 O          -8.8271  -20.9461  -52.0634 O.2       16 UNK        -0.5000 
     94 N          -6.8783  -21.1860  -50.9275 N.am      17 UNK        -0.5000 
     95 CA         -6.5045  -19.7811  -50.7304 C.3       17 UNK         0.1400 
     96 CB         -7.4954  -19.0734  -49.7845 C.3       17 UNK        -0.1800 
     97 C          -6.2766  -19.0173  -52.0564 C.2       17 UNK         0.5000 
     98 O          -6.5432  -17.8169  -52.1304 O.2       17 UNK        -0.5000 
     99 N          -5.8039  -19.7306  -53.0904 N.am      18 UNK        -0.5000 
    100 CA        -5.6959  -19.2415  -54.4684 C.3       18 UNK         0.1400 
    101 CB        -5.4961  -20.4476  -55.3998 C.3       18 UNK        -0.1800 
    102 C         -4.5888  -18.1964  -54.7127 C.2       18 UNK         0.5000 
    103 O         -4.6002  -17.5593  -55.7667 O.2       18 UNK        -0.5000 
    104 N         -3.6448  -18.0619  -53.7684 N.am      19 UNK        -0.5000 
    105 CA        -2.4337  -17.2275  -53.8435 C.3       19 UNK         0.1400 
    106 CB        -2.7821  -15.7285  -53.9531 C.3       19 UNK        -0.1800 
    107 C         -1.4383  -17.7096  -54.9206 C.2       19 UNK         0.5000 
    108 O         -0.6466  -16.9213  -55.4402 O.2       19 UNK        -0.5000 
    109 N         -1.4839  -19.0131  -55.2084 N.am      20 UNK        -0.5000 
    110 CA        -0.5983  -19.7517  -56.0914 C.3       20 UNK         0.1400 
    111 CB        -1.0582  -19.6047  -57.5516 C.3       20 UNK        -0.1800 
    112 C         -0.6452  -21.2144  -55.6345 C.2       20 UNK         0.5000 
    113 O         -1.7030  -21.6756  -55.1981 O.2       20 UNK        -0.5000 
    114 N          0.4986  -21.9052  -55.7308 N.am      21 UNK        -0.5000 
    115 CA         0.7164  -23.3037  -55.3325 C.3       21 UNK         0.1400 
    116 CB        -0.1133  -24.2616  -56.2141 C.3       21 UNK        -0.1800 
    117 C          0.5218  -23.5717  -53.8216 C.2       21 UNK         0.5000 
    118 O          0.2657  -24.7131  -53.4325 O.2       21 UNK        -0.5000 
    119 N          0.6786  -22.5310  -52.9912 N.am      22 UNK        -0.5000 
    120 CA         0.5534  -22.5530  -51.5214 C.3       22 UNK         0.1400 
    121 C          1.7305  -23.2966  -50.8127 C.2       22 UNK         0.5000 
    122 N          2.0767  -24.5025  -51.2397 N.am      22 UNK        -0.7600 
    123 O          2.3487  -22.7863  -49.8844 O.2       22 UNK        -0.5000 
    124 C124        0.2961  -21.1343  -50.9324 C.3       23 UNK        -0.0398 
    125 S125       -1.0541  -20.2177  -51.7542 S.3       23 UNK        -0.2404 
    126 C126       -2.4882  -20.6651  -50.7242 C.3       23 UNK        -0.0205 
    127 H127       -2.8487   -8.7776  -48.3249 H         1 UNK         0.0600 
    128 H128       -2.8034   -8.7035  -46.5606 H         1 UNK         0.0600 
    129 H129       -1.3337   -8.4081  -47.4953 H         1 UNK         0.0600 
    130 H130       -2.9047  -10.8629  -49.0838 H         1 UNK         0.3000 
    131 H131       -1.0342  -12.8416  -48.5625 H         1 UNK         0.0600 
    132 H132       -2.4373  -12.7144  -50.6130 H         1 UNK         0.0800 
    133 H133       -3.8454  -13.2060  -49.7206 H         1 UNK         0.0800 
    134 H134       -4.5016  -15.9171  -50.4865 H         1 UNK         0.0800 
    135 H135       -4.3381  -15.3575  -48.8398 H         1 UNK         0.0800 
    136 H136       -2.9235  -17.9911  -51.1057 H         1 UNK         0.1150 
    137 H137       -3.0077  -21.0062  -48.0721 H         1 UNK         0.1150 
    138 H138       -4.1919  -16.9920  -47.1492 H         1 UNK         0.1150 
    139 H139       -4.7992  -18.8522  -45.6578 H         1 UNK         0.0800 
    140 H140       -4.3408  -20.4882  -46.0367 H         1 UNK         0.0800 
    141 H141       -1.8943  -20.8947  -43.2590 H         1 UNK         0.0800 
    142 H142       -3.4365  -21.3039  -43.9635 H         1 UNK         0.0800 
    143 H143       -2.2492  -21.9130  -46.1159 H         1 UNK         0.0600 
    144 H144        0.0551  -20.8049  -44.8699 H         1 UNK         0.3000 
    145 H145        2.5216  -22.3896  -46.7925 H         1 UNK         0.0600 
    146 H146        3.1243  -20.0812  -47.5159 H         1 UNK         0.0600 
    147 H147        1.7866  -20.6889  -48.4697 H         1 UNK         0.0600 
    148 H148        1.4842  -19.5303  -47.1901 H         1 UNK         0.0600 
    149 H149        2.3345  -20.0917  -45.0066 H         1 UNK         0.3000 
    150 H150        2.1124  -20.9673  -42.2709 H         1 UNK         0.0600 
    151 H151        3.4515  -22.9007  -41.5832 H         1 UNK         0.0600 
    152 H152        4.2168  -21.4380  -40.9850 H         1 UNK         0.0600 
    153 H153        4.8798  -22.2735  -42.3898 H         1 UNK         0.0600 
    154 H154        3.0202  -19.0328  -42.7709 H         1 UNK         0.3000 
    155 H155        6.0727  -17.8105  -43.6863 H         1 UNK         0.0600 
    156 H156        5.5347  -18.3556  -46.0605 H         1 UNK         0.0600 
    157 H157        5.1250  -16.6868  -45.6983 H         1 UNK         0.0600 
    158 H158        3.8545  -17.9049  -45.8012 H         1 UNK         0.0600 
    159 H159        3.4525  -16.6129  -43.7526 H         1 UNK         0.3000 
    160 H160        3.1897  -16.0940  -40.2237 H         1 UNK         0.0600 
    161 H161        3.5786  -14.1565  -42.5679 H         1 UNK         0.0600 
    162 H162        2.8560  -13.7684  -41.0087 H         1 UNK         0.0600 
    163 H163        4.5584  -14.1942  -41.1062 H         1 UNK         0.0600 
    164 H164        1.4389  -15.3969  -42.3447 H         1 UNK         0.3000 
    165 H165       -0.4211  -18.4709  -42.4541 H         1 UNK         0.0600 
    166 H166       -2.2306  -16.8220  -42.1482 H         1 UNK         0.0600 
    167 H167       -1.3614  -17.0438  -40.6377 H         1 UNK         0.0600 
    168 H168       -1.0821  -15.6014  -41.6051 H         1 UNK         0.0600 
    169 H169       -0.4915  -16.0251  -43.9786 H         1 UNK         0.3000 
    170 H170        1.6445  -17.1127  -46.5931 H         1 UNK         0.0600 
    171 H171       -0.4736  -18.3067  -47.1700 H         1 UNK         0.0600 
    172 H172       -1.4093  -16.9485  -46.5816 H         1 UNK         0.0600 
    173 H173       -0.3816  -16.7598  -47.9993 H         1 UNK         0.0600 
    174 H174       -0.1167  -14.8638  -46.2489 H         1 UNK         0.3000 
    175 H175        2.3768  -12.7782  -44.6707 H         1 UNK         0.0600 
    176 H176        1.0358  -12.7768  -47.4236 H         1 UNK         0.0600 
    177 H177        1.7572  -11.3828  -46.6232 H         1 UNK         0.0600 
    178 H178        2.7697  -12.7268  -47.1313 H         1 UNK         0.0600 
    179 H179       -0.2579  -12.1165  -45.3599 H         1 UNK         0.3000 
    180 H180       -1.7507  -12.8750  -42.1693 H         1 UNK         0.0600 
    181 H181       -0.5162  -10.7224  -42.0565 H         1 UNK         0.0600 
    182 H182       -0.9797  -10.3398  -43.7101 H         1 UNK         0.0600 
    183 H183       -2.2075  -10.4572  -42.4518 H         1 UNK         0.0600 
    184 H184       -2.4361  -11.9603  -44.9184 H         1 UNK         0.3000 
    185 H185       -4.3493  -14.8216  -45.5957 H         1 UNK         0.0600 
    186 H186       -6.0566  -13.6078  -44.2259 H         1 UNK         0.0600 
    187 H187       -5.5513  -12.0789  -44.9354 H         1 UNK         0.0600 
    188 H188       -6.2931  -13.3238  -45.9424 H         1 UNK         0.0600 
    189 H189       -4.2170  -12.3879  -47.0185 H         1 UNK         0.3000 
    190 H190        0.1624  -23.5704  -44.3818 H         1 UNK         0.3000 
    191 H191       -1.4164  -25.7292  -43.3148 H         1 UNK         0.0600 
    192 H192        0.7703  -26.9030  -43.2270 H         1 UNK         0.0600 
    193 H193        0.9295  -25.2715  -42.5933 H         1 UNK         0.0600 
    194 H194        1.5144  -25.6506  -44.2129 H         1 UNK         0.0600 
    195 H195       -0.1106  -24.9579  -46.5393 H         1 UNK         0.3000 
    196 H196       -0.9052  -27.5397  -47.7137 H         1 UNK         0.0600 
    197 H197       -0.1184  -26.4767  -49.8180 H         1 UNK         0.0600 
    198 H198        1.1042  -26.3272  -48.5640 H         1 UNK         0.0600 
    199 H199        0.0996  -24.9427  -48.9878 H         1 UNK         0.0600 
    200 H200       -2.1294  -24.3173  -47.2707 H         1 UNK         0.3000 
    201 H201       -4.0502  -23.2947  -47.4105 H         1 UNK         0.0600 
    202 H202       -5.0687  -25.2925  -46.3792 H         1 UNK         0.0600 
    203 H203       -5.3647  -26.0022  -47.9653 H         1 UNK         0.0600 
    204 H204       -6.1893  -24.5242  -47.4928 H         1 UNK         0.0600 
    205 H205       -3.9677  -25.6323  -50.0892 H         1 UNK         0.3000 
    206 H206       -4.5623  -25.5568  -52.2598 H         1 UNK         0.0600 
    207 H207       -2.2287  -24.6913  -52.1532 H         1 UNK         0.0600 
    208 H208       -3.0839  -24.0509  -53.5452 H         1 UNK         0.0600 
    209 H209       -2.8316  -23.0375  -52.1365 H         1 UNK         0.0600 
    210 H210       -6.7251  -24.5933  -50.8940 H         1 UNK         0.3000 
    211 H211       -8.6765  -23.5659  -51.0122 H         1 UNK         0.0600 
    212 H212       -8.0938  -23.1699  -53.9946 H         1 UNK         0.0600 
    213 H213       -9.6774  -23.1780  -53.2309 H         1 UNK         0.0600 
    214 H214       -8.7258  -24.6511  -53.2765 H         1 UNK         0.0600 
    215 H215       -6.1969  -21.8538  -50.5737 H         1 UNK         0.3000 
    216 H216       -5.5423  -19.8040  -50.2234 H         1 UNK         0.0600 
    217 H217       -7.6183  -19.6307  -48.8559 H         1 UNK         0.0600 
    218 H218       -8.4787  -18.9561  -50.2406 H         1 UNK         0.0600 
    219 H219       -7.1358  -18.0788  -49.5177 H         1 UNK         0.0600 
    220 H220       -5.6387  -20.7231  -52.9597 H         1 UNK         0.3000 
    221 H221       -6.6445  -18.7679  -54.7291 H         1 UNK         0.0600 
    222 H222       -4.5726  -20.9819  -55.1712 H         1 UNK         0.0600 
    223 H223       -6.3216  -21.1544  -55.3122 H         1 UNK         0.0600 
    224 H224       -5.4456  -20.1374  -56.4443 H         1 UNK         0.0600 
    225 H225       -3.7326  -18.6446  -52.9494 H         1 UNK         0.3000 
    226 H226       -1.9032  -17.3582  -52.9014 H         1 UNK         0.0600 
    227 H227       -3.4879  -15.4316  -53.1771 H         1 UNK         0.0600 
    228 H228       -1.8909  -15.1123  -53.8302 H         1 UNK         0.0600 
    229 H229       -3.2186  -15.4790  -54.9202 H         1 UNK         0.0600 
    230 H230       -2.1418  -19.6037  -54.7147 H         1 UNK         0.3000 
    231 H231        0.4198  -19.3720  -55.9828 H         1 UNK         0.0600 
    232 H232       -1.0254  -18.5639  -57.8740 H         1 UNK         0.0600 
    233 H233       -0.4147  -20.1743  -58.2229 H         1 UNK         0.0600 
    234 H234       -2.0790  -19.9646  -57.6877 H         1 UNK         0.0600 
    235 H235        1.3127  -21.4330  -56.0999 H         1 UNK         0.3000 
    236 H236        1.7686  -23.5101  -55.5328 H         1 UNK         0.0600 
    237 H237        0.0419  -24.0577  -57.2735 H         1 UNK         0.0600 
    238 H238        0.1716  -25.2999  -56.0406 H         1 UNK         0.0600 
    239 H239       -1.1810  -24.1793  -56.0085 H         1 UNK         0.0600 
    240 H240        0.8957  -21.6333  -53.3958 H         1 UNK         0.3000 
    241 H241       -0.3341  -23.1426  -51.2856 H         1 UNK         0.0600 
    242 H242        2.8386  -24.9953  -50.8029 H         1 UNK         0.3800 
    243 H243        1.5625  -24.9189  -52.0094 H         1 UNK         0.3800 
    244 H244        0.0643  -21.2065  -49.8688 H         1 UNK         0.0800 
    245 H245        1.1992  -20.5267  -51.0076 H         1 UNK         0.0800 
    246 H246       -3.3441  -20.8262  -51.3804 H         1 UNK         0.0800 
    247 H247       -2.2955  -21.6223  -50.2387 H         1 UNK         0.0800 
@<TRIPOS>BOND
     1    1    2 1    
     2    1  127 1    
     3    1  128 1    
     4    1  129 1    
     5    2    3 2    
     6    2    4 am   BACKBONE|DICT|INTERRES
     7    4    5 1    
     8    4  130 1    
     9    5    6 1    
    10    5   65 1    
    11    5  131 1    
    12    6    7 1    
    13    6  132 1    
    14    6  133 1    
    15    7    8 1    
    16    8    9 1    
    17    8  134 1    
    18    8  135 1    
    19    9   10 ar   
    20    9   14 ar   
    21   10   11 ar   
    22   10  136 1    
    23   11   12 ar   
    24   11  126 1    
    25   12   13 ar   
    26   12  137 1    
    27   13   14 ar   
    28   13   15 1    
    29   14  138 1    
    30   15   16 1    
    31   15  139 1    
    32   15  140 1    
    33   16   17 1    
    34   17   18 1    
    35   17  141 1    
    36   17  142 1    
    37   18   19 1    
    38   18   67 1    
    39   18  143 1    
    40   19   20 am   BACKBONE|DICT|INTERRES
    41   19  144 1    
    42   20   21 2    
    43   20   22 1    
    44   22   23 1    
    45   22   24 1    
    46   22  145 1    
    47   23  146 1    
    48   23  147 1    
    49   23  148 1    
    50   24   25 am   BACKBONE|DICT|INTERRES
    51   24  149 1    
    52   25   26 2    
    53   25   27 1    
    54   27   28 1    
    55   27   29 1    
    56   27  150 1    
    57   28  151 1    
    58   28  152 1    
    59   28  153 1    
    60   29   30 am   BACKBONE|DICT|INTERRES
    61   29  154 1    
    62   30   31 2    
    63   30   32 1    
    64   32   33 1    
    65   32   34 1    
    66   32  155 1    
    67   33  156 1    
    68   33  157 1    
    69   33  158 1    
    70   34   35 am   BACKBONE|DICT|INTERRES
    71   34  159 1    
    72   35   36 2    
    73   35   37 1    
    74   37   38 1    
    75   37   39 1    
    76   37  160 1    
    77   38  161 1    
    78   38  162 1    
    79   38  163 1    
    80   39   40 am   BACKBONE|DICT|INTERRES
    81   39  164 1    
    82   40   41 2    
    83   40   42 1    
    84   42   43 1    
    85   42   44 1    
    86   42  165 1    
    87   43  166 1    
    88   43  167 1    
    89   43  168 1    
    90   44   45 am   BACKBONE|DICT|INTERRES
    91   44  169 1    
    92   45   46 2    
    93   45   47 1    
    94   47   48 1    
    95   47   49 1    
    96   47  170 1    
    97   48  171 1    
    98   48  172 1    
    99   48  173 1    
   100   49   50 am   BACKBONE|DICT|INTERRES
   101   49  174 1    
   102   50   51 2    
   103   50   52 1    
   104   52   53 1    
   105   52   54 1    
   106   52  175 1    
   107   53  176 1    
   108   53  177 1    
   109   53  178 1    
   110   54   55 am   BACKBONE|DICT|INTERRES
   111   54  179 1    
   112   55   56 2    
   113   55   57 1    
   114   57   58 1    
   115   57   59 1    
   116   57  180 1    
   117   58  181 1    
   118   58  182 1    
   119   58  183 1    
   120   59   60 am   BACKBONE|DICT|INTERRES
   121   59  184 1    
   122   60   61 2    
   123   60   62 1    
   124   62   63 1    
   125   62   64 1    
   126   62  185 1    
   127   63  186 1    
   128   63  187 1    
   129   63  188 1    
   130   64   65 am   BACKBONE|DICT|INTERRES
   131   64  189 1    
   132   65   66 2    
   133   67   68 2    
   134   67   69 am   BACKBONE|DICT|INTERRES
   135   69   70 1    
   136   69  190 1    
   137   70   71 1    
   138   70   72 1    
   139   70  191 1    
   140   71  192 1    
   141   71  193 1    
   142   71  194 1    
   143   72   73 2    
   144   72   74 am   BACKBONE|DICT|INTERRES
   145   74   75 1    
   146   74  195 1    
   147   75   76 1    
   148   75   77 1    
   149   75  196 1    
   150   76  197 1    
   151   76  198 1    
   152   76  199 1    
   153   77   78 2    
   154   77   79 am   BACKBONE|DICT|INTERRES
   155   79   80 1    
   156   79  200 1    
   157   80   81 1    
   158   80   82 1    
   159   80  201 1    
   160   81  202 1    
   161   81  203 1    
   162   81  204 1    
   163   82   83 2    
   164   82   84 am   BACKBONE|DICT|INTERRES
   165   84   85 1    
   166   84  205 1    
   167   85   86 1    
   168   85   87 1    
   169   85  206 1    
   170   86  207 1    
   171   86  208 1    
   172   86  209 1    
   173   87   88 2    
   174   87   89 am   BACKBONE|DICT|INTERRES
   175   89   90 1    
   176   89  210 1    
   177   90   91 1    
   178   90   92 1    
   179   90  211 1    
   180   91  212 1    
   181   91  213 1    
   182   91  214 1    
   183   92   93 2    
   184   92   94 am   BACKBONE|DICT|INTERRES
   185   94   95 1    
   186   94  215 1    
   187   95   96 1    
   188   95   97 1    
   189   95  216 1    
   190   96  217 1    
   191   96  218 1    
   192   96  219 1    
   193   97   98 2    
   194   97   99 am   BACKBONE|DICT|INTERRES
   195   99  100 1    
   196   99  220 1    
   197  100  101 1    
   198  100  102 1    
   199  100  221 1    
   200  101  222 1    
   201  101  223 1    
   202  101  224 1    
   203  102  103 2    
   204  102  104 am   BACKBONE|DICT|INTERRES
   205  104  105 1    
   206  104  225 1    
   207  105  106 1    
   208  105  107 1    
   209  105  226 1    
   210  106  227 1    
   211  106  228 1    
   212  106  229 1    
   213  107  108 2    
   214  107  109 am   BACKBONE|DICT|INTERRES
   215  109  110 1    
   216  109  230 1    
   217  110  111 1    
   218  110  112 1    
   219  110  231 1    
   220  111  232 1    
   221  111  233 1    
   222  111  234 1    
   223  112  113 2    
   224  112  114 am   BACKBONE|DICT|INTERRES
   225  114  115 1    
   226  114  235 1    
   227  115  116 1    
   228  115  117 1    
   229  115  236 1    
   230  116  237 1    
   231  116  238 1    
   232  116  239 1    
   233  117  118 2    
   234  117  119 am   BACKBONE|DICT|INTERRES
   235  119  120 1    
   236  119  240 1    
   237  120  121 1    
   238  120  124 1    
   239  120  241 1    
   240  121  122 am   BACKBONE|DICT|INTERRES
   241  121  123 2    
   242  122  242 1    
   243  122  243 1    
   244  124  125 1    
   245  124  244 1    
   246  124  245 1    
   247  125  126 1    
   248  126  246 1    
   249  126  247 1    
@<TRIPOS>SUBSTRUCTURE
     1 UNK         1 GROUP             0       ****    0 ROOT    
