@<TRIPOS>MOLECULE
3R540
247   249    1
SMALL
USER_CHARGES


@<TRIPOS>ATOM
      1 CA          3.4900  -10.3687  -50.2799 C.3       0 UNK        -0.1800 
      2 C           2.5566  -10.8689  -49.1868 C.2       0 UNK         0.5000 
      3 O           1.8570  -10.0715  -48.5617 O.2       0 UNK        -0.5000 
      4 N           2.5223  -12.1881  -48.9646 N.am      1 UNK        -0.5000 
      5 CA          1.7196  -12.8875  -47.9505 C.3       1 UNK         0.1400 
      6 C6          2.3737  -14.2351  -47.5355 C.3       23 UNK        -0.0398 
      7 S7          2.7601  -15.3548  -48.9312 S.3       23 UNK        -0.2404 
      8 C8          1.5649  -16.6915  -48.6380 C.3       23 UNK        -0.0205 
      9 C9          1.6492  -17.7721  -49.7015 C.ar      23 UNK        -0.0193 
     10 C10         1.0792  -17.5685  -50.9618 C.ar      23 UNK        -0.1150 
     11 C11         1.1312  -18.5730  -51.9326 C.ar      23 UNK        -0.0193 
     12 C12         1.7428  -19.7921  -51.6277 C.ar      23 UNK        -0.1150 
     13 C13         2.3192  -20.0092  -50.3729 C.ar      23 UNK        -0.0193 
     14 C14         2.2792  -18.9861  -49.4182 C.ar      23 UNK        -0.1150 
     15 C15         3.0028  -21.3437  -50.0850 C.3       23 UNK        -0.0205 
     16 S16         2.7531  -21.9588  -48.3870 S.3       23 UNK        -0.2404 
     17 C17         0.9356  -22.1091  -48.3209 C.3       23 UNK        -0.0398 
     18 CA          0.5011  -23.2070  -47.3294 C.3       11 UNK         0.1400 
     19 N           0.8648  -22.8975  -45.9462 N.am      11 UNK        -0.5000 
     20 C           0.9301  -23.8185  -44.9768 C.2       10 UNK         0.5000 
     21 O           0.7160  -25.0168  -45.1607 O.2       10 UNK        -0.5000 
     22 CA          1.2482  -23.3137  -43.5598 C.3       10 UNK         0.1400 
     23 CB          2.7560  -23.0712  -43.3959 C.3       10 UNK        -0.1800 
     24 N           0.5084  -22.0987  -43.2141 N.am      10 UNK        -0.5000 
     25 C          -0.8270  -22.0253  -43.1190 C.2       9 UNK         0.5000 
     26 O          -1.5764  -22.9869  -43.2938 O.2       9 UNK        -0.5000 
     27 CA         -1.4303  -20.6413  -42.8136 C.3       9 UNK         0.1400 
     28 CB         -1.3073  -20.3068  -41.3198 C.3       9 UNK        -0.1800 
     29 N          -0.8269  -19.5686  -43.6043 N.am      9 UNK        -0.5000 
     30 C          -0.8936  -19.4729  -44.9398 C.2       8 UNK         0.5000 
     31 O          -1.4957  -20.2684  -45.6585 O.2       8 UNK        -0.5000 
     32 CA         -0.1057  -18.3242  -45.5897 C.3       8 UNK         0.1400 
     33 CB         -0.8727  -16.9957  -45.4944 C.3       8 UNK        -0.1800 
     34 N           1.2253  -18.1720  -45.0038 N.am      8 UNK        -0.5000 
     35 C           2.1912  -19.0990  -45.0763 C.2       7 UNK         0.5000 
     36 O           2.0673  -20.1736  -45.6612 O.2       7 UNK        -0.5000 
     37 CA          3.4958  -18.7854  -44.3250 C.3       7 UNK         0.1400 
     38 CB          4.3479  -17.7842  -45.1210 C.3       7 UNK        -0.1800 
     39 N           3.2491  -18.2608  -42.9801 N.am      7 UNK        -0.5000 
     40 C           2.6670  -18.9540  -41.9899 C.2       6 UNK         0.5000 
     41 O           2.3115  -20.1268  -42.0921 O.2       6 UNK        -0.5000 
     42 CA          2.3864  -18.1930  -40.6806 C.3       6 UNK         0.1400 
     43 CB          3.6150  -18.2297  -39.7598 C.3       6 UNK        -0.1800 
     44 N           1.9776  -16.8016  -40.8944 N.am      6 UNK        -0.5000 
     45 C           0.8873  -16.4267  -41.5753 C.2       5 UNK         0.5000 
     46 O           0.1049  -17.2194  -42.1092 O.2       5 UNK        -0.5000 
     47 CA          0.6614  -14.9170  -41.7233 C.3       5 UNK         0.1400 
     48 CB          1.6562  -14.3178  -42.7378 C.3       5 UNK        -0.1800 
     49 N          -0.7040  -14.7029  -42.1852 N.am      5 UNK        -0.5000 
     50 C          -1.3763  -13.5505  -42.1493 C.2       4 UNK         0.5000 
     51 O          -0.9468  -12.5144  -41.6353 O.2       4 UNK        -0.5000 
     52 CA         -2.7700  -13.5595  -42.8080 C.3       4 UNK         0.1400 
     53 CB         -3.8771  -13.5591  -41.7425 C.3       4 UNK        -0.1800 
     54 N          -2.9649  -12.4203  -43.7084 N.am      4 UNK        -0.5000 
     55 C          -2.2092  -12.1597  -44.7837 C.2       3 UNK         0.5000 
     56 O          -1.2658  -12.8674  -45.1455 O.2       3 UNK        -0.5000 
     57 CA         -2.5506  -10.8784  -45.5675 C.3       3 UNK         0.1400 
     58 CB         -1.9320   -9.6479  -44.8849 C.3       3 UNK        -0.1800 
     59 N          -2.0339  -10.9635  -46.9316 N.am      3 UNK        -0.5000 
     60 C          -2.6254  -11.6248  -47.9357 C.2       2 UNK         0.5000 
     61 O          -3.7687  -12.0796  -47.8792 O.2       2 UNK        -0.5000 
     62 CA         -1.7827  -11.8294  -49.2105 C.3       2 UNK         0.1400 
     63 CB         -1.9990  -10.6741  -50.2001 C.3       2 UNK        -0.1800 
     64 N          -0.3527  -11.9471  -48.9136 N.am      2 UNK        -0.5000 
     65 C           0.2187  -13.0064  -48.3234 C.2       1 UNK         0.5000 
     66 O          -0.4034  -14.0360  -48.0664 O.2       1 UNK        -0.5000 
     67 C          -0.9950  -23.5554  -47.4629 C.2       11 UNK         0.5000 
     68 O          -1.3250  -24.4518  -48.2371 O.2       11 UNK        -0.5000 
     69 N          -1.8758  -22.9163  -46.6772 N.am      12 UNK        -0.5000 
     70 CA         -3.2989  -23.2608  -46.5950 C.3       12 UNK         0.1400 
     71 CB         -4.0615  -22.2110  -45.7742 C.3       12 UNK        -0.1800 
     72 C          -3.5442  -24.6762  -46.0468 C.2       12 UNK         0.5000 
     73 O          -4.3915  -25.3894  -46.5839 O.2       12 UNK        -0.5000 
     74 N          -2.7537  -25.0908  -45.0468 N.am      13 UNK        -0.5000 
     75 CA         -2.7398  -26.4583  -44.5170 C.3       13 UNK         0.1400 
     76 CB         -1.8878  -26.5026  -43.2399 C.3       13 UNK        -0.1800 
     77 C          -2.2546  -27.5064  -45.5431 C.2       13 UNK         0.5000 
     78 O          -2.6575  -28.6667  -45.4597 O.2       13 UNK        -0.5000 
     79 N          -1.4365  -27.0726  -46.5116 N.am      14 UNK        -0.5000 
     80 CA         -0.9752  -27.8582  -47.6583 C.3       14 UNK         0.1400 
     81 CB          0.4518  -27.4098  -48.0187 C.3       14 UNK        -0.1800 
     82 C          -1.9181  -27.7550  -48.8800 C.2       14 UNK         0.5000 
     83 O          -1.5862  -28.2966  -49.9352 O.2       14 UNK        -0.5000 
     84 N          -3.0641  -27.0715  -48.7266 N.am      15 UNK        -0.5000 
     85 CA         -4.1092  -26.8267  -49.7285 C.3       15 UNK         0.1400 
     86 CB         -4.7407  -28.1486  -50.2144 C.3       15 UNK        -0.1800 
     87 C          -3.6711  -25.9013  -50.8858 C.2       15 UNK         0.5000 
     88 O          -4.2221  -25.9900  -51.9839 O.2       15 UNK        -0.5000 
     89 N          -2.7195  -25.0025  -50.6115 N.am      16 UNK        -0.5000 
     90 CA         -2.2192  -23.9685  -51.5156 C.3       16 UNK         0.1400 
     91 CB         -0.7552  -24.2855  -51.8728 C.3       16 UNK        -0.1800 
     92 C          -2.3843  -22.5946  -50.8397 C.2       16 UNK         0.5000 
     93 O          -1.4309  -21.8207  -50.7638 O.2       16 UNK        -0.5000 
     94 N          -3.5889  -22.3479  -50.3042 N.am      17 UNK        -0.5000 
     95 CA         -3.9763  -21.1467  -49.5633 C.3       17 UNK         0.1400 
     96 CB         -5.4547  -21.2709  -49.1624 C.3       17 UNK        -0.1800 
     97 C          -3.7453  -19.8393  -50.3407 C.2       17 UNK         0.5000 
     98 O          -4.0260  -19.7877  -51.5410 O.2       17 UNK        -0.5000 
     99 N          -3.2668  -18.8182  -49.6152 N.am      18 UNK        -0.5000 
    100 CA        -2.8860  -17.4930  -50.1052 C.3       18 UNK         0.1400 
    101 CB        -2.5255  -16.6034  -48.9079 C.3       18 UNK        -0.1800 
    102 C         -3.9733  -16.8306  -50.9688 C.2       18 UNK         0.5000 
    103 O         -5.0833  -16.6021  -50.4835 O.2       18 UNK        -0.5000 
    104 N         -3.6380  -16.5896  -52.2428 N.am      19 UNK        -0.5000 
    105 CA        -4.4625  -16.0746  -53.3432 C.3       19 UNK         0.1400 
    106 CB        -5.0170  -14.6727  -53.0267 C.3       19 UNK        -0.1800 
    107 C         -5.5834  -17.0303  -53.8031 C.2       19 UNK         0.5000 
    108 O         -5.8053  -17.1581  -55.0072 O.2       19 UNK        -0.5000 
    109 N         -6.2582  -17.6869  -52.8529 N.am      20 UNK        -0.5000 
    110 CA        -7.3882  -18.5911  -53.0596 C.3       20 UNK         0.1400 
    111 CB        -7.9812  -18.9612  -51.6917 C.3       20 UNK        -0.1800 
    112 C         -7.0467  -19.8618  -53.8595 C.2       20 UNK         0.5000 
    113 O         -7.8862  -20.3225  -54.6347 O.2       20 UNK        -0.5000 
    114 N         -5.8381  -20.4036  -53.6649 N.am      21 UNK        -0.5000 
    115 CA        -5.3616  -21.6264  -54.3127 C.3       21 UNK         0.1400 
    116 CB        -5.6265  -22.8340  -53.3957 C.3       21 UNK        -0.1800 
    117 C         -3.8922  -21.5030  -54.7575 C.2       21 UNK         0.5000 
    118 O         -3.2013  -22.5156  -54.8793 O.2       21 UNK        -0.5000 
    119 N         -3.4472  -20.2686  -55.0239 N.am      22 UNK        -0.5000 
    120 CA        -2.1244  -19.9588  -55.5976 C.3       22 UNK         0.1400 
    121 C         -2.0693  -20.0685  -57.1508 C.2       22 UNK         0.5000 
    122 N         -3.1778  -20.2813  -57.8502 N.am      22 UNK        -0.7600 
    123 O         -0.9938  -19.9704  -57.7354 O.2       22 UNK        -0.5000 
    124 C124       -1.6040  -18.5798  -55.1191 C.3       23 UNK        -0.0398 
    125 S125       -1.2519  -18.5823  -53.3306 S.3       23 UNK        -0.2404 
    126 C126        0.5481  -18.3401  -53.3176 C.3       23 UNK        -0.0205 
    127 H127        4.0356  -11.1861  -50.7522 H         1 UNK         0.0600 
    128 H128        4.2165   -9.6715  -49.8623 H         1 UNK         0.0600 
    129 H129        2.9207   -9.8489  -51.0507 H         1 UNK         0.0600 
    130 H130        3.0900  -12.7970  -49.5380 H         1 UNK         0.3000 
    131 H131        1.7271  -12.2650  -47.0530 H         1 UNK         0.0600 
    132 H132        3.3167  -14.0251  -47.0289 H         1 UNK         0.0800 
    133 H133        1.7651  -14.7521  -46.7909 H         1 UNK         0.0800 
    134 H134        1.7451  -17.1149  -47.6497 H         1 UNK         0.0800 
    135 H135        0.5538  -16.2894  -48.6246 H         1 UNK         0.0800 
    136 H136        0.5990  -16.6265  -51.1871 H         1 UNK         0.1150 
    137 H137        1.7765  -20.5724  -52.3751 H         1 UNK         0.1150 
    138 H138        2.7274  -19.1384  -48.4463 H         1 UNK         0.1150 
    139 H139        2.6555  -22.1084  -50.7818 H         1 UNK         0.0800 
    140 H140        4.0730  -21.2285  -50.2601 H         1 UNK         0.0800 
    141 H141        0.5862  -22.3500  -49.3246 H         1 UNK         0.0800 
    142 H142        0.5000  -21.1436  -48.0567 H         1 UNK         0.0800 
    143 H143        1.0433  -24.1130  -47.6095 H         1 UNK         0.0600 
    144 H144        1.1113  -21.9333  -45.7416 H         1 UNK         0.3000 
    145 H145        0.9520  -24.0950  -42.8567 H         1 UNK         0.0600 
    146 H146        3.0034  -22.8145  -42.3658 H         1 UNK         0.0600 
    147 H147        3.3267  -23.9641  -43.6541 H         1 UNK         0.0600 
    148 H148        3.1052  -22.2602  -44.0360 H         1 UNK         0.0600 
    149 H149        1.0652  -21.2730  -43.0112 H         1 UNK         0.3000 
    150 H150       -2.4921  -20.6799  -43.0648 H         1 UNK         0.0600 
    151 H151       -1.7846  -21.0729  -40.7076 H         1 UNK         0.0600 
    152 H152       -1.7887  -19.3565  -41.0878 H         1 UNK         0.0600 
    153 H153       -0.2654  -20.2377  -41.0066 H         1 UNK         0.0600 
    154 H154       -0.3323  -18.8456  -43.0900 H         1 UNK         0.3000 
    155 H155        0.0166  -18.5704  -46.6467 H         1 UNK         0.0600 
    156 H156       -0.9826  -16.6617  -44.4638 H         1 UNK         0.0600 
    157 H157       -0.3678  -16.2044  -46.0493 H         1 UNK         0.0600 
    158 H158       -1.8760  -17.0933  -45.9099 H         1 UNK         0.0600 
    159 H159        1.3864  -17.3465  -44.4478 H         1 UNK         0.3000 
    160 H160        4.0587  -19.7163  -44.2291 H         1 UNK         0.0600 
    161 H161        5.3114  -17.6167  -44.6394 H         1 UNK         0.0600 
    162 H162        3.8513  -16.8184  -45.2237 H         1 UNK         0.0600 
    163 H163        4.5486  -18.1569  -46.1265 H         1 UNK         0.0600 
    164 H164        3.5120  -17.3024  -42.8061 H         1 UNK         0.3000 
    165 H165        1.5660  -18.7046  -40.1732 H         1 UNK         0.0600 
    166 H166        3.3978  -17.7739  -38.7936 H         1 UNK         0.0600 
    167 H167        3.9291  -19.2569  -39.5694 H         1 UNK         0.0600 
    168 H168        4.4637  -17.7026  -40.1974 H         1 UNK         0.0600 
    169 H169        2.5721  -16.0920  -40.4907 H         1 UNK         0.3000 
    170 H170        0.7916  -14.4476  -40.7462 H         1 UNK         0.0600 
    171 H171        1.5199  -13.2411  -42.8394 H         1 UNK         0.0600 
    172 H172        1.5348  -14.7605  -43.7275 H         1 UNK         0.0600 
    173 H173        2.6886  -14.4807  -42.4268 H         1 UNK         0.0600 
    174 H174       -1.1361  -15.5375  -42.5615 H         1 UNK         0.3000 
    175 H175       -2.8707  -14.4683  -43.4054 H         1 UNK         0.0600 
    176 H176       -4.8650  -13.6279  -42.1983 H         1 UNK         0.0600 
    177 H177       -3.8490  -12.6544  -41.1337 H         1 UNK         0.0600 
    178 H178       -3.7707  -14.4109  -41.0694 H         1 UNK         0.0600 
    179 H179       -3.6959  -11.7718  -43.4556 H         1 UNK         0.3000 
    180 H180       -3.6358  -10.7589  -45.5971 H         1 UNK         0.0600 
    181 H181       -0.8459   -9.7272  -44.8195 H         1 UNK         0.0600 
    182 H182       -2.3131   -9.5289  -43.8698 H         1 UNK         0.0600 
    183 H183       -2.1696   -8.7338  -45.4294 H         1 UNK         0.0600 
    184 H184       -1.0770  -10.6709  -47.0620 H         1 UNK         0.3000 
    185 H185       -2.1158  -12.7549  -49.6861 H         1 UNK         0.0600 
    186 H186       -1.6670   -9.7211  -49.7857 H         1 UNK         0.0600 
    187 H187       -1.4546  -10.8441  -51.1293 H         1 UNK         0.0600 
    188 H188       -3.0546  -10.5724  -50.4561 H         1 UNK         0.0600 
    189 H189        0.2236  -11.1252  -49.0602 H         1 UNK         0.3000 
    190 H190       -1.5623  -22.1414  -46.0993 H         1 UNK         0.3000 
    191 H191       -3.6970  -23.2506  -47.6094 H         1 UNK         0.0600 
    192 H192       -3.9796  -21.2211  -46.2221 H         1 UNK         0.0600 
    193 H193       -5.1235  -22.4537  -45.7206 H         1 UNK         0.0600 
    194 H194       -3.6879  -22.1480  -44.7527 H         1 UNK         0.0600 
    195 H195       -2.1162  -24.4261  -44.6189 H         1 UNK         0.3000 
    196 H196       -3.7651  -26.7189  -44.2466 H         1 UNK         0.0600 
    197 H197       -1.9069  -27.4972  -42.7926 H         1 UNK         0.0600 
    198 H198       -2.2609  -25.8021  -42.4924 H         1 UNK         0.0600 
    199 H199       -0.8459  -26.2537  -43.4394 H         1 UNK         0.0600 
    200 H200       -1.1477  -26.1033  -46.4946 H         1 UNK         0.3000 
    201 H201       -0.9313  -28.9119  -47.3758 H         1 UNK         0.0600 
    202 H202        1.1113  -27.4537  -47.1517 H         1 UNK         0.0600 
    203 H203        0.4713  -26.3904  -48.4027 H         1 UNK         0.0600 
    204 H204        0.8822  -28.0542  -48.7860 H         1 UNK         0.0600 
    205 H205       -3.2394  -26.6448  -47.8246 H         1 UNK         0.3000 
    206 H206       -4.8906  -26.2773  -49.2019 H         1 UNK         0.0600 
    207 H207       -5.0457  -28.7724  -49.3743 H         1 UNK         0.0600 
    208 H208       -5.6312  -27.9587  -50.8147 H         1 UNK         0.0600 
    209 H209       -4.0518  -28.7266  -50.8306 H         1 UNK         0.0600 
    210 H210       -2.3151  -24.9798  -49.6763 H         1 UNK         0.3000 
    211 H211       -2.8006  -23.9423  -52.4391 H         1 UNK         0.0600 
    212 H212       -0.1199  -24.2986  -50.9860 H         1 UNK         0.0600 
    213 H213       -0.3503  -23.5424  -52.5611 H         1 UNK         0.0600 
    214 H214       -0.6720  -25.2581  -52.3577 H         1 UNK         0.0600 
    215 H215       -4.3053  -23.0478  -50.4200 H         1 UNK         0.3000 
    216 H216       -3.3662  -21.1164  -48.6590 H         1 UNK         0.0600 
    217 H217       -5.7833  -20.3969  -48.5984 H         1 UNK         0.0600 
    218 H218       -5.6289  -22.1443  -48.5347 H         1 UNK         0.0600 
    219 H219       -6.0986  -21.3577  -50.0385 H         1 UNK         0.0600 
    220 H220       -3.1111  -18.9711  -48.6304 H         1 UNK         0.3000 
    221 H221       -1.9831  -17.6200  -50.7030 H         1 UNK         0.0600 
    222 H222       -3.3640  -16.4894  -48.2198 H         1 UNK         0.0600 
    223 H223       -1.6859  -17.0174  -48.3514 H         1 UNK         0.0600 
    224 H224       -2.2356  -15.6057  -49.2390 H         1 UNK         0.0600 
    225 H225       -2.7213  -16.9061  -52.5331 H         1 UNK         0.3000 
    226 H226       -3.7815  -15.9687  -54.1890 H         1 UNK         0.0600 
    227 H227       -4.2172  -13.9847  -52.7528 H         1 UNK         0.0600 
    228 H228       -5.5246  -14.2521  -53.8956 H         1 UNK         0.0600 
    229 H229       -5.7382  -14.6919  -52.2093 H         1 UNK         0.0600 
    230 H230       -5.9912  -17.5010  -51.8904 H         1 UNK         0.3000 
    231 H231       -8.1472  -18.0448  -53.6231 H         1 UNK         0.0600 
    232 H232       -7.2443  -19.4547  -51.0575 H         1 UNK         0.0600 
    233 H233       -8.8300  -19.6376  -51.8004 H         1 UNK         0.0600 
    234 H234       -8.3363  -18.0759  -51.1638 H         1 UNK         0.0600 
    235 H235       -5.2074  -19.9927  -52.9769 H         1 UNK         0.3000 
    236 H236       -5.9175  -21.7892  -55.2381 H         1 UNK         0.0600 
    237 H237       -6.6919  -22.9486  -53.1966 H         1 UNK         0.0600 
    238 H238       -5.2815  -23.7651  -53.8468 H         1 UNK         0.0600 
    239 H239       -5.1217  -22.7224  -52.4396 H         1 UNK         0.0600 
    240 H240       -4.0808  -19.4924  -54.9032 H         1 UNK         0.3000 
    241 H241       -1.4159  -20.7082  -55.2388 H         1 UNK         0.0600 
    242 H242       -4.0701  -20.3646  -57.3911 H         1 UNK         0.3800 
    243 H243       -3.1228  -20.3556  -58.8542 H         1 UNK         0.3800 
    244 H244       -0.6962  -18.2951  -55.6540 H         1 UNK         0.0800 
    245 H245       -2.3352  -17.7996  -55.3345 H         1 UNK         0.0800 
    246 H246        0.7810  -17.3283  -53.6529 H         1 UNK         0.0800 
    247 H247        1.0107  -19.0190  -54.0359 H         1 UNK         0.0800 
@<TRIPOS>BOND
     1    1    2 1    
     2    1  127 1    
     3    1  128 1    
     4    1  129 1    
     5    2    3 2    
     6    2    4 am   BACKBONE|DICT|INTERRES
     7    4    5 1    
     8    4  130 1    
     9    5    6 1    
    10    5   65 1    
    11    5  131 1    
    12    6    7 1    
    13    6  132 1    
    14    6  133 1    
    15    7    8 1    
    16    8    9 1    
    17    8  134 1    
    18    8  135 1    
    19    9   10 ar   
    20    9   14 ar   
    21   10   11 ar   
    22   10  136 1    
    23   11   12 ar   
    24   11  126 1    
    25   12   13 ar   
    26   12  137 1    
    27   13   14 ar   
    28   13   15 1    
    29   14  138 1    
    30   15   16 1    
    31   15  139 1    
    32   15  140 1    
    33   16   17 1    
    34   17   18 1    
    35   17  141 1    
    36   17  142 1    
    37   18   19 1    
    38   18   67 1    
    39   18  143 1    
    40   19   20 am   BACKBONE|DICT|INTERRES
    41   19  144 1    
    42   20   21 2    
    43   20   22 1    
    44   22   23 1    
    45   22   24 1    
    46   22  145 1    
    47   23  146 1    
    48   23  147 1    
    49   23  148 1    
    50   24   25 am   BACKBONE|DICT|INTERRES
    51   24  149 1    
    52   25   26 2    
    53   25   27 1    
    54   27   28 1    
    55   27   29 1    
    56   27  150 1    
    57   28  151 1    
    58   28  152 1    
    59   28  153 1    
    60   29   30 am   BACKBONE|DICT|INTERRES
    61   29  154 1    
    62   30   31 2    
    63   30   32 1    
    64   32   33 1    
    65   32   34 1    
    66   32  155 1    
    67   33  156 1    
    68   33  157 1    
    69   33  158 1    
    70   34   35 am   BACKBONE|DICT|INTERRES
    71   34  159 1    
    72   35   36 2    
    73   35   37 1    
    74   37   38 1    
    75   37   39 1    
    76   37  160 1    
    77   38  161 1    
    78   38  162 1    
    79   38  163 1    
    80   39   40 am   BACKBONE|DICT|INTERRES
    81   39  164 1    
    82   40   41 2    
    83   40   42 1    
    84   42   43 1    
    85   42   44 1    
    86   42  165 1    
    87   43  166 1    
    88   43  167 1    
    89   43  168 1    
    90   44   45 am   BACKBONE|DICT|INTERRES
    91   44  169 1    
    92   45   46 2    
    93   45   47 1    
    94   47   48 1    
    95   47   49 1    
    96   47  170 1    
    97   48  171 1    
    98   48  172 1    
    99   48  173 1    
   100   49   50 am   BACKBONE|DICT|INTERRES
   101   49  174 1    
   102   50   51 2    
   103   50   52 1    
   104   52   53 1    
   105   52   54 1    
   106   52  175 1    
   107   53  176 1    
   108   53  177 1    
   109   53  178 1    
   110   54   55 am   BACKBONE|DICT|INTERRES
   111   54  179 1    
   112   55   56 2    
   113   55   57 1    
   114   57   58 1    
   115   57   59 1    
   116   57  180 1    
   117   58  181 1    
   118   58  182 1    
   119   58  183 1    
   120   59   60 am   BACKBONE|DICT|INTERRES
   121   59  184 1    
   122   60   61 2    
   123   60   62 1    
   124   62   63 1    
   125   62   64 1    
   126   62  185 1    
   127   63  186 1    
   128   63  187 1    
   129   63  188 1    
   130   64   65 am   BACKBONE|DICT|INTERRES
   131   64  189 1    
   132   65   66 2    
   133   67   68 2    
   134   67   69 am   BACKBONE|DICT|INTERRES
   135   69   70 1    
   136   69  190 1    
   137   70   71 1    
   138   70   72 1    
   139   70  191 1    
   140   71  192 1    
   141   71  193 1    
   142   71  194 1    
   143   72   73 2    
   144   72   74 am   BACKBONE|DICT|INTERRES
   145   74   75 1    
   146   74  195 1    
   147   75   76 1    
   148   75   77 1    
   149   75  196 1    
   150   76  197 1    
   151   76  198 1    
   152   76  199 1    
   153   77   78 2    
   154   77   79 am   BACKBONE|DICT|INTERRES
   155   79   80 1    
   156   79  200 1    
   157   80   81 1    
   158   80   82 1    
   159   80  201 1    
   160   81  202 1    
   161   81  203 1    
   162   81  204 1    
   163   82   83 2    
   164   82   84 am   BACKBONE|DICT|INTERRES
   165   84   85 1    
   166   84  205 1    
   167   85   86 1    
   168   85   87 1    
   169   85  206 1    
   170   86  207 1    
   171   86  208 1    
   172   86  209 1    
   173   87   88 2    
   174   87   89 am   BACKBONE|DICT|INTERRES
   175   89   90 1    
   176   89  210 1    
   177   90   91 1    
   178   90   92 1    
   179   90  211 1    
   180   91  212 1    
   181   91  213 1    
   182   91  214 1    
   183   92   93 2    
   184   92   94 am   BACKBONE|DICT|INTERRES
   185   94   95 1    
   186   94  215 1    
   187   95   96 1    
   188   95   97 1    
   189   95  216 1    
   190   96  217 1    
   191   96  218 1    
   192   96  219 1    
   193   97   98 2    
   194   97   99 am   BACKBONE|DICT|INTERRES
   195   99  100 1    
   196   99  220 1    
   197  100  101 1    
   198  100  102 1    
   199  100  221 1    
   200  101  222 1    
   201  101  223 1    
   202  101  224 1    
   203  102  103 2    
   204  102  104 am   BACKBONE|DICT|INTERRES
   205  104  105 1    
   206  104  225 1    
   207  105  106 1    
   208  105  107 1    
   209  105  226 1    
   210  106  227 1    
   211  106  228 1    
   212  106  229 1    
   213  107  108 2    
   214  107  109 am   BACKBONE|DICT|INTERRES
   215  109  110 1    
   216  109  230 1    
   217  110  111 1    
   218  110  112 1    
   219  110  231 1    
   220  111  232 1    
   221  111  233 1    
   222  111  234 1    
   223  112  113 2    
   224  112  114 am   BACKBONE|DICT|INTERRES
   225  114  115 1    
   226  114  235 1    
   227  115  116 1    
   228  115  117 1    
   229  115  236 1    
   230  116  237 1    
   231  116  238 1    
   232  116  239 1    
   233  117  118 2    
   234  117  119 am   BACKBONE|DICT|INTERRES
   235  119  120 1    
   236  119  240 1    
   237  120  121 1    
   238  120  124 1    
   239  120  241 1    
   240  121  122 am   BACKBONE|DICT|INTERRES
   241  121  123 2    
   242  122  242 1    
   243  122  243 1    
   244  124  125 1    
   245  124  244 1    
   246  124  245 1    
   247  125  126 1    
   248  126  246 1    
   249  126  247 1    
@<TRIPOS>SUBSTRUCTURE
     1 UNK         1 GROUP             0       ****    0 ROOT    
