@<TRIPOS>MOLECULE
3R540
247   249    1
SMALL
USER_CHARGES


@<TRIPOS>ATOM
      1 CA         -6.3062  -14.3042  -50.8959 C.3       0 UNK        -0.1800 
      2 C          -5.0678  -14.7906  -50.1572 C.2       0 UNK         0.5000 
      3 O          -5.1835  -15.6026  -49.2409 O.2       0 UNK        -0.5000 
      4 N          -3.8860  -14.2943  -50.5530 N.am      1 UNK        -0.5000 
      5 CA         -2.5751  -14.6060  -49.9598 C.3       1 UNK         0.1400 
      6 C6         -2.2291  -16.1179  -50.0375 C.3       23 UNK        -0.0398 
      7 S7         -0.4539  -16.4504  -50.2869 S.3       23 UNK        -0.2404 
      8 C8         -0.3289  -18.0315  -49.4055 C.3       23 UNK        -0.0205 
      9 C9          0.9953  -18.7258  -49.6575 C.ar      23 UNK        -0.0193 
     10 C10         1.1855  -19.4772  -50.8188 C.ar      23 UNK        -0.1150 
     11 C11         2.3910  -20.1498  -51.0378 C.ar      23 UNK        -0.0193 
     12 C12         3.4010  -20.0858  -50.0709 C.ar      23 UNK        -0.1150 
     13 C13         3.2150  -19.3447  -48.8990 C.ar      23 UNK        -0.0193 
     14 C14         2.0170  -18.6507  -48.7104 C.ar      23 UNK        -0.1150 
     15 C15         4.3027  -19.2883  -47.8343 C.3       23 UNK        -0.0205 
     16 S16         4.2512  -20.7207  -46.7041 S.3       23 UNK        -0.2404 
     17 C17         2.6157  -20.5345  -45.9157 C.3       23 UNK        -0.0398 
     18 CA          1.6239  -21.6134  -46.4042 C.3       11 UNK         0.1400 
     19 N           1.9383  -22.9269  -45.8366 N.am      11 UNK        -0.5000 
     20 C           1.4594  -24.0937  -46.2829 C.2       10 UNK         0.5000 
     21 O           0.7026  -24.1990  -47.2459 O.2       10 UNK        -0.5000 
     22 CA          1.8667  -25.3487  -45.4896 C.3       10 UNK         0.1400 
     23 CB          3.2619  -25.8299  -45.9150 C.3       10 UNK        -0.1800 
     24 N           1.8489  -25.1254  -44.0421 N.am      10 UNK        -0.5000 
     25 C           0.7347  -24.9117  -43.3285 C.2       9 UNK         0.5000 
     26 O          -0.3971  -24.9132  -43.8140 O.2       9 UNK        -0.5000 
     27 CA          0.9206  -24.5930  -41.8307 C.3       9 UNK         0.1400 
     28 CB          1.0519  -25.8887  -41.0164 C.3       9 UNK        -0.1800 
     29 N           2.0592  -23.7128  -41.5337 N.am      9 UNK        -0.5000 
     30 C           2.2291  -22.4887  -42.0506 C.2       8 UNK         0.5000 
     31 O           1.4876  -22.0102  -42.9098 O.2       8 UNK        -0.5000 
     32 CA          3.4500  -21.6802  -41.5728 C.3       8 UNK         0.1400 
     33 CB          4.7172  -22.1508  -42.3043 C.3       8 UNK        -0.1800 
     34 N           3.2514  -20.2573  -41.8536 N.am      8 UNK        -0.5000 
     35 C           2.4516  -19.4458  -41.1498 C.2       7 UNK         0.5000 
     36 O           2.0136  -19.7290  -40.0316 O.2       7 UNK        -0.5000 
     37 CA          2.1163  -18.0937  -41.8217 C.3       7 UNK         0.1400 
     38 CB          1.6749  -18.2760  -43.2906 C.3       7 UNK        -0.1800 
     39 N           1.1211  -17.2884  -41.1074 N.am      7 UNK        -0.5000 
     40 C          -0.1598  -17.5921  -40.8444 C.2       6 UNK         0.5000 
     41 O          -0.7007  -18.6635  -41.1192 O.2       6 UNK        -0.5000 
     42 CA         -0.9948  -16.4662  -40.2023 C.3       6 UNK         0.1400 
     43 CB         -0.8047  -16.4456  -38.6777 C.3       6 UNK        -0.1800 
     44 N          -0.6673  -15.1466  -40.7524 N.am      6 UNK        -0.5000 
     45 C          -0.9317  -14.7679  -42.0115 C.2       5 UNK         0.5000 
     46 O          -1.5720  -15.4602  -42.8058 O.2       5 UNK        -0.5000 
     47 CA         -0.4137  -13.3880  -42.4728 C.3       5 UNK         0.1400 
     48 CB          0.5430  -12.6929  -41.4773 C.3       5 UNK        -0.1800 
     49 N           0.1852  -13.4684  -43.8082 N.am      5 UNK        -0.5000 
     50 C           1.2565  -14.1901  -44.1782 C.2       4 UNK         0.5000 
     51 O           1.9617  -14.8205  -43.3895 O.2       4 UNK        -0.5000 
     52 CA          1.6081  -14.2235  -45.6817 C.3       4 UNK         0.1400 
     53 CB          1.2588  -15.5923  -46.2891 C.3       4 UNK        -0.1800 
     54 N           0.9353  -13.1776  -46.4546 N.am      4 UNK        -0.5000 
     55 C           1.2879  -11.8828  -46.4430 C.2       3 UNK         0.5000 
     56 O           2.2743  -11.4539  -45.8432 O.2       3 UNK        -0.5000 
     57 CA          0.3844  -10.8902  -47.2053 C.3       3 UNK         0.1400 
     58 CB          1.0075  -10.5325  -48.5634 C.3       3 UNK        -0.1800 
     59 N          -0.9817  -11.3700  -47.4261 N.am      3 UNK        -0.5000 
     60 C          -1.8711  -11.6720  -46.4694 C.2       2 UNK         0.5000 
     61 O          -1.6508  -11.5375  -45.2655 O.2       2 UNK        -0.5000 
     62 CA         -3.2134  -12.2721  -46.9317 C.3       2 UNK         0.1400 
     63 CB         -4.3013  -11.1887  -46.9721 C.3       2 UNK        -0.1800 
     64 N          -3.1601  -12.9424  -48.2361 N.am      2 UNK        -0.5000 
     65 C          -2.4076  -14.0131  -48.5371 C.2       1 UNK         0.5000 
     66 O          -1.6001  -14.5056  -47.7480 O.2       1 UNK        -0.5000 
     67 C           0.1617  -21.2064  -46.1279 C.2       11 UNK         0.5000 
     68 O          -0.4661  -20.5998  -46.9926 O.2       11 UNK        -0.5000 
     69 N          -0.3679  -21.5748  -44.9535 N.am      12 UNK        -0.5000 
     70 CA         -1.7708  -21.4025  -44.5800 C.3       12 UNK         0.1400 
     71 CB         -1.9470  -21.6952  -43.0831 C.3       12 UNK        -0.1800 
     72 C          -2.7036  -22.2813  -45.4322 C.2       12 UNK         0.5000 
     73 O          -3.7113  -21.7862  -45.9376 O.2       12 UNK        -0.5000 
     74 N          -2.3277  -23.5523  -45.6391 N.am      13 UNK        -0.5000 
     75 CA         -3.0182  -24.4741  -46.5462 C.3       13 UNK         0.1400 
     76 CB         -2.4029  -25.8762  -46.4311 C.3       13 UNK        -0.1800 
     77 C          -3.0004  -23.9779  -48.0049 C.2       13 UNK         0.5000 
     78 O          -4.0296  -24.0162  -48.6785 O.2       13 UNK        -0.5000 
     79 N          -1.8508  -23.4435  -48.4352 N.am      14 UNK        -0.5000 
     80 CA         -1.6485  -22.8083  -49.7362 C.3       14 UNK         0.1400 
     81 CB         -0.1423  -22.7089  -50.0169 C.3       14 UNK        -0.1800 
     82 C          -2.3253  -21.4300  -49.8937 C.2       14 UNK         0.5000 
     83 O          -2.2544  -20.8779  -50.9896 O.2       14 UNK        -0.5000 
     84 N          -2.9468  -20.8968  -48.8315 N.am      15 UNK        -0.5000 
     85 CA         -3.8092  -19.7137  -48.8615 C.3       15 UNK         0.1400 
     86 CB         -3.5249  -18.8342  -47.6318 C.3       15 UNK        -0.1800 
     87 C          -5.2900  -20.1276  -48.8667 C.2       15 UNK         0.5000 
     88 O          -6.1023  -19.4931  -49.5401 O.2       15 UNK        -0.5000 
     89 N          -5.6207  -21.1825  -48.1070 N.am      16 UNK        -0.5000 
     90 CA         -6.9631  -21.7544  -48.0058 C.3       16 UNK         0.1400 
     91 CB         -6.9919  -22.7636  -46.8483 C.3       16 UNK        -0.1800 
     92 C          -7.4365  -22.4166  -49.3128 C.2       16 UNK         0.5000 
     93 O          -8.6309  -22.3814  -49.6133 O.2       16 UNK        -0.5000 
     94 N          -6.4968  -22.9908  -50.0749 N.am      17 UNK        -0.5000 
     95 CA         -6.7063  -23.6544  -51.3626 C.3       17 UNK         0.1400 
     96 CB         -5.4956  -24.5638  -51.6391 C.3       17 UNK        -0.1800 
     97 C          -6.9960  -22.6715  -52.5225 C.2       17 UNK         0.5000 
     98 O          -6.2814  -22.6774  -53.5261 O.2       17 UNK        -0.5000 
     99 N          -8.0632  -21.8732  -52.3677 N.am      18 UNK        -0.5000 
    100 CA        -8.6027  -20.8887  -53.3126 C.3       18 UNK         0.1400 
    101 CB        -9.1647  -21.5901  -54.5675 C.3       18 UNK        -0.1800 
    102 C         -7.5908  -19.7724  -53.6424 C.2       18 UNK         0.5000 
    103 O         -7.1862  -19.6194  -54.7970 O.2       18 UNK        -0.5000 
    104 N         -7.2036  -19.0226  -52.6001 N.am      19 UNK        -0.5000 
    105 CA        -6.1408  -18.0112  -52.5822 C.3       19 UNK         0.1400 
    106 CB        -6.4169  -16.8614  -53.5785 C.3       19 UNK        -0.1800 
    107 C         -4.7501  -18.6603  -52.7362 C.2       19 UNK         0.5000 
    108 O         -4.5967  -19.8288  -52.3854 O.2       19 UNK        -0.5000 
    109 N         -3.7584  -17.8879  -53.2032 N.am      20 UNK        -0.5000 
    110 CA        -2.3591  -18.2935  -53.3512 C.3       20 UNK         0.1400 
    111 CB        -1.5307  -17.0698  -53.7806 C.3       20 UNK        -0.1800 
    112 C         -2.1876  -19.4549  -54.3496 C.2       20 UNK         0.5000 
    113 O         -2.1778  -19.2232  -55.5608 O.2       20 UNK        -0.5000 
    114 N         -2.0527  -20.6799  -53.8273 N.am      21 UNK        -0.5000 
    115 CA        -1.9673  -21.9241  -54.5987 C.3       21 UNK         0.1400 
    116 CB        -1.9741  -23.1148  -53.6299 C.3       21 UNK        -0.1800 
    117 C         -0.7481  -22.0018  -55.5386 C.2       21 UNK         0.5000 
    118 O         -0.8266  -22.6518  -56.5818 O.2       21 UNK        -0.5000 
    119 N          0.3419  -21.3240  -55.1612 N.am      22 UNK        -0.5000 
    120 CA         1.5518  -21.1357  -55.9758 C.3       22 UNK         0.1400 
    121 C          1.4795  -19.9326  -56.9654 C.2       22 UNK         0.5000 
    122 N          0.3891  -19.1765  -57.0362 N.am      22 UNK        -0.7600 
    123 O          2.4283  -19.6902  -57.7066 O.2       22 UNK        -0.5000 
    124 C124        2.8348  -21.1176  -55.1013 C.3       23 UNK        -0.0398 
    125 S125        2.8129  -19.8781  -53.7574 S.3       23 UNK        -0.2404 
    126 C126        2.5846  -20.9581  -52.3107 C.3       23 UNK        -0.0205 
    127 H127       -6.8712  -13.6180  -50.2652 H         1 UNK         0.0600 
    128 H128       -6.9527  -15.1452  -51.1454 H         1 UNK         0.0600 
    129 H129       -6.0493  -13.7874  -51.8209 H         1 UNK         0.0600 
    130 H130       -3.8654  -13.6297  -51.3147 H         1 UNK         0.3000 
    131 H131       -1.8592  -14.0673  -50.5825 H         1 UNK         0.0600 
    132 H132       -2.5881  -16.6382  -49.1497 H         1 UNK         0.0800 
    133 H133       -2.7511  -16.5817  -50.8737 H         1 UNK         0.0800 
    134 H134       -0.4619  -17.8549  -48.3374 H         1 UNK         0.0800 
    135 H135       -1.1396  -18.6878  -49.7195 H         1 UNK         0.0800 
    136 H136        0.3935  -19.5385  -51.5519 H         1 UNK         0.1150 
    137 H137        4.3298  -20.6169  -50.2250 H         1 UNK         0.1150 
    138 H138        1.8665  -18.0671  -47.8144 H         1 UNK         0.1150 
    139 H139        5.2811  -19.2562  -48.3160 H         1 UNK         0.0800 
    140 H140        4.2218  -18.3673  -47.2546 H         1 UNK         0.0800 
    141 H141        2.2381  -19.5296  -46.1015 H         1 UNK         0.0800 
    142 H142        2.7472  -20.6065  -44.8368 H         1 UNK         0.0800 
    143 H143        1.7216  -21.6892  -47.4889 H         1 UNK         0.0600 
    144 H144        2.5124  -22.9290  -45.0075 H         1 UNK         0.3000 
    145 H145        1.1480  -26.1375  -45.7224 H         1 UNK         0.0600 
    146 H146        3.5275  -26.7608  -45.4137 H         1 UNK         0.0600 
    147 H147        3.2980  -26.0185  -46.9889 H         1 UNK         0.0600 
    148 H148        4.0321  -25.0925  -45.6853 H         1 UNK         0.0600 
    149 H149        2.7392  -25.1047  -43.5671 H         1 UNK         0.3000 
    150 H150        0.0183  -24.0762  -41.4978 H         1 UNK         0.0600 
    151 H151        1.9630  -26.4328  -41.2682 H         1 UNK         0.0600 
    152 H152        0.2088  -26.5552  -41.2038 H         1 UNK         0.0600 
    153 H153        1.0684  -25.6823  -39.9461 H         1 UNK         0.0600 
    154 H154        2.7198  -24.0506  -40.8486 H         1 UNK         0.3000 
    155 H155        3.5777  -21.8266  -40.4983 H         1 UNK         0.0600 
    156 H156        4.6266  -22.0381  -43.3857 H         1 UNK         0.0600 
    157 H157        4.9224  -23.2023  -42.0999 H         1 UNK         0.0600 
    158 H158        5.5907  -21.5837  -41.9816 H         1 UNK         0.0600 
    159 H159        3.5751  -19.9410  -42.7545 H         1 UNK         0.3000 
    160 H160        3.0316  -17.5002  -41.8154 H         1 UNK         0.0600 
    161 H161        0.9826  -19.1116  -43.4073 H         1 UNK         0.0600 
    162 H162        2.5371  -18.4534  -43.9311 H         1 UNK         0.0600 
    163 H163        1.1765  -17.3861  -43.6733 H         1 UNK         0.0600 
    164 H164        1.4391  -16.3700  -40.8349 H         1 UNK         0.3000 
    165 H165       -2.0472  -16.6709  -40.4105 H         1 UNK         0.0600 
    166 H166       -1.4486  -15.7007  -38.2097 H         1 UNK         0.0600 
    167 H167       -1.0573  -17.4130  -38.2415 H         1 UNK         0.0600 
    168 H168        0.2262  -16.2208  -38.4015 H         1 UNK         0.0600 
    169 H169       -0.1510  -14.5178  -40.1548 H         1 UNK         0.3000 
    170 H170       -1.2955  -12.7544  -42.5768 H         1 UNK         0.0600 
    171 H171        0.0441  -12.4828  -40.5307 H         1 UNK         0.0600 
    172 H172        1.4264  -13.2951  -41.2632 H         1 UNK         0.0600 
    173 H173        0.8856  -11.7366  -41.8732 H         1 UNK         0.0600 
    174 H174       -0.3299  -12.9788  -44.5306 H         1 UNK         0.3000 
    175 H175        2.6870  -14.0805  -45.7709 H         1 UNK         0.0600 
    176 H176        0.2041  -15.8355  -46.1542 H         1 UNK         0.0600 
    177 H177        1.4734  -15.6185  -47.3577 H         1 UNK         0.0600 
    178 H178        1.8416  -16.3861  -45.8212 H         1 UNK         0.0600 
    179 H179        0.1062  -13.4612  -46.9653 H         1 UNK         0.3000 
    180 H180        0.3230   -9.9805  -46.6046 H         1 UNK         0.0600 
    181 H181        1.0713  -11.4030  -49.2176 H         1 UNK         0.0600 
    182 H182        2.0179  -10.1403  -48.4394 H         1 UNK         0.0600 
    183 H183        0.4250   -9.7671  -49.0765 H         1 UNK         0.0600 
    184 H184       -1.2551  -11.5207  -48.3856 H         1 UNK         0.3000 
    185 H185       -3.5029  -13.0202  -46.1908 H         1 UNK         0.0600 
    186 H186       -4.3899  -10.6870  -46.0074 H         1 UNK         0.0600 
    187 H187       -4.0816  -10.4258  -47.7200 H         1 UNK         0.0600 
    188 H188       -5.2768  -11.6168  -47.2040 H         1 UNK         0.0600 
    189 H189       -3.7938  -12.5983  -48.9425 H         1 UNK         0.3000 
    190 H190        0.2440  -21.9877  -44.2532 H         1 UNK         0.3000 
    191 H191       -2.0395  -20.3587  -44.7558 H         1 UNK         0.0600 
    192 H192       -1.3077  -21.0505  -42.4793 H         1 UNK         0.0600 
    193 H193       -2.9768  -21.5192  -42.7704 H         1 UNK         0.0600 
    194 H194       -1.7013  -22.7287  -42.8401 H         1 UNK         0.0600 
    195 H195       -1.5094  -23.9103  -45.1563 H         1 UNK         0.3000 
    196 H196       -4.0611  -24.5347  -46.2287 H         1 UNK         0.0600 
    197 H197       -2.9204  -26.5836  -47.0801 H         1 UNK         0.0600 
    198 H198       -2.4761  -26.2552  -45.4116 H         1 UNK         0.0600 
    199 H199       -1.3500  -25.8810  -46.7131 H         1 UNK         0.0600 
    200 H200       -1.0338  -23.4984  -47.8341 H         1 UNK         0.3000 
    201 H201       -2.0861  -23.4607  -50.4942 H         1 UNK         0.0600 
    202 H202        0.0414  -22.3183  -51.0165 H         1 UNK         0.0600 
    203 H203        0.3409  -23.6839  -49.9567 H         1 UNK         0.0600 
    204 H204        0.3508  -22.0407  -49.3122 H         1 UNK         0.0600 
    205 H205       -2.8879  -21.3849  -47.9481 H         1 UNK         0.3000 
    206 H206       -3.6134  -19.1253  -49.7601 H         1 UNK         0.0600 
    207 H207       -2.4664  -18.6013  -47.5386 H         1 UNK         0.0600 
    208 H208       -4.0667  -17.8900  -47.6993 H         1 UNK         0.0600 
    209 H209       -3.8329  -19.3137  -46.7033 H         1 UNK         0.0600 
    210 H210       -4.9093  -21.6000  -47.5169 H         1 UNK         0.3000 
    211 H211       -7.6577  -20.9449  -47.7724 H         1 UNK         0.0600 
    212 H212       -6.3105  -23.5966  -47.0247 H         1 UNK         0.0600 
    213 H213       -7.9918  -23.1789  -46.7166 H         1 UNK         0.0600 
    214 H214       -6.7076  -22.2930  -45.9068 H         1 UNK         0.0600 
    215 H215       -5.5485  -23.0089  -49.7162 H         1 UNK         0.3000 
    216 H216       -7.5832  -24.2989  -51.2733 H         1 UNK         0.0600 
    217 H217       -5.6028  -25.0925  -52.5871 H         1 UNK         0.0600 
    218 H218       -5.3851  -25.3181  -50.8598 H         1 UNK         0.0600 
    219 H219       -4.5693  -23.9910  -51.6790 H         1 UNK         0.0600 
    220 H220       -8.5479  -21.9424  -51.4767 H         1 UNK         0.3000 
    221 H221       -9.4422  -20.4068  -52.8092 H         1 UNK         0.0600 
    222 H222       -8.3836  -22.0909  -55.1403 H         1 UNK         0.0600 
    223 H223       -9.9135  -22.3355  -54.2999 H         1 UNK         0.0600 
    224 H224       -9.6455  -20.8711  -55.2318 H         1 UNK         0.0600 
    225 H225       -7.5343  -19.2906  -51.6831 H         1 UNK         0.3000 
    226 H226       -6.1595  -17.5844  -51.5786 H         1 UNK         0.0600 
    227 H227       -7.4400  -16.4976  -53.4833 H         1 UNK         0.0600 
    228 H228       -5.7598  -16.0114  -53.3941 H         1 UNK         0.0600 
    229 H229       -6.2681  -17.1705  -54.6134 H         1 UNK         0.0600 
    230 H230       -3.9821  -16.9534  -53.5097 H         1 UNK         0.3000 
    231 H231       -1.9963  -18.6145  -52.3730 H         1 UNK         0.0600 
    232 H232       -1.8432  -16.6885  -54.7536 H         1 UNK         0.0600 
    233 H233       -0.4723  -17.3243  -53.8516 H         1 UNK         0.0600 
    234 H234       -1.6198  -16.2540  -53.0643 H         1 UNK         0.0600 
    235 H235       -2.1473  -20.7779  -52.8162 H         1 UNK         0.3000 
    236 H236       -2.8644  -21.9840  -55.2182 H         1 UNK         0.0600 
    237 H237       -1.0936  -23.1151  -52.9876 H         1 UNK         0.0600 
    238 H238       -2.8569  -23.0918  -52.9921 H         1 UNK         0.0600 
    239 H239       -1.9875  -24.0612  -54.1717 H         1 UNK         0.0600 
    240 H240        0.3063  -20.7979  -54.3011 H         1 UNK         0.3000 
    241 H241        1.6486  -22.0077  -56.6251 H         1 UNK         0.0600 
    242 H242       -0.4293  -19.3600  -56.4654 H         1 UNK         0.3800 
    243 H243        0.3685  -18.4119  -57.6918 H         1 UNK         0.3800 
    244 H244        2.9844  -22.1080  -54.6697 H         1 UNK         0.0800 
    245 H245        3.7193  -20.9420  -55.7158 H         1 UNK         0.0800 
    246 H246        1.7178  -21.5995  -52.4702 H         1 UNK         0.0800 
    247 H247        3.4465  -21.6206  -52.2162 H         1 UNK         0.0800 
@<TRIPOS>BOND
     1    1    2 1    
     2    1  127 1    
     3    1  128 1    
     4    1  129 1    
     5    2    3 2    
     6    2    4 am   BACKBONE|DICT|INTERRES
     7    4    5 1    
     8    4  130 1    
     9    5    6 1    
    10    5   65 1    
    11    5  131 1    
    12    6    7 1    
    13    6  132 1    
    14    6  133 1    
    15    7    8 1    
    16    8    9 1    
    17    8  134 1    
    18    8  135 1    
    19    9   10 ar   
    20    9   14 ar   
    21   10   11 ar   
    22   10  136 1    
    23   11   12 ar   
    24   11  126 1    
    25   12   13 ar   
    26   12  137 1    
    27   13   14 ar   
    28   13   15 1    
    29   14  138 1    
    30   15   16 1    
    31   15  139 1    
    32   15  140 1    
    33   16   17 1    
    34   17   18 1    
    35   17  141 1    
    36   17  142 1    
    37   18   19 1    
    38   18   67 1    
    39   18  143 1    
    40   19   20 am   BACKBONE|DICT|INTERRES
    41   19  144 1    
    42   20   21 2    
    43   20   22 1    
    44   22   23 1    
    45   22   24 1    
    46   22  145 1    
    47   23  146 1    
    48   23  147 1    
    49   23  148 1    
    50   24   25 am   BACKBONE|DICT|INTERRES
    51   24  149 1    
    52   25   26 2    
    53   25   27 1    
    54   27   28 1    
    55   27   29 1    
    56   27  150 1    
    57   28  151 1    
    58   28  152 1    
    59   28  153 1    
    60   29   30 am   BACKBONE|DICT|INTERRES
    61   29  154 1    
    62   30   31 2    
    63   30   32 1    
    64   32   33 1    
    65   32   34 1    
    66   32  155 1    
    67   33  156 1    
    68   33  157 1    
    69   33  158 1    
    70   34   35 am   BACKBONE|DICT|INTERRES
    71   34  159 1    
    72   35   36 2    
    73   35   37 1    
    74   37   38 1    
    75   37   39 1    
    76   37  160 1    
    77   38  161 1    
    78   38  162 1    
    79   38  163 1    
    80   39   40 am   BACKBONE|DICT|INTERRES
    81   39  164 1    
    82   40   41 2    
    83   40   42 1    
    84   42   43 1    
    85   42   44 1    
    86   42  165 1    
    87   43  166 1    
    88   43  167 1    
    89   43  168 1    
    90   44   45 am   BACKBONE|DICT|INTERRES
    91   44  169 1    
    92   45   46 2    
    93   45   47 1    
    94   47   48 1    
    95   47   49 1    
    96   47  170 1    
    97   48  171 1    
    98   48  172 1    
    99   48  173 1    
   100   49   50 am   BACKBONE|DICT|INTERRES
   101   49  174 1    
   102   50   51 2    
   103   50   52 1    
   104   52   53 1    
   105   52   54 1    
   106   52  175 1    
   107   53  176 1    
   108   53  177 1    
   109   53  178 1    
   110   54   55 am   BACKBONE|DICT|INTERRES
   111   54  179 1    
   112   55   56 2    
   113   55   57 1    
   114   57   58 1    
   115   57   59 1    
   116   57  180 1    
   117   58  181 1    
   118   58  182 1    
   119   58  183 1    
   120   59   60 am   BACKBONE|DICT|INTERRES
   121   59  184 1    
   122   60   61 2    
   123   60   62 1    
   124   62   63 1    
   125   62   64 1    
   126   62  185 1    
   127   63  186 1    
   128   63  187 1    
   129   63  188 1    
   130   64   65 am   BACKBONE|DICT|INTERRES
   131   64  189 1    
   132   65   66 2    
   133   67   68 2    
   134   67   69 am   BACKBONE|DICT|INTERRES
   135   69   70 1    
   136   69  190 1    
   137   70   71 1    
   138   70   72 1    
   139   70  191 1    
   140   71  192 1    
   141   71  193 1    
   142   71  194 1    
   143   72   73 2    
   144   72   74 am   BACKBONE|DICT|INTERRES
   145   74   75 1    
   146   74  195 1    
   147   75   76 1    
   148   75   77 1    
   149   75  196 1    
   150   76  197 1    
   151   76  198 1    
   152   76  199 1    
   153   77   78 2    
   154   77   79 am   BACKBONE|DICT|INTERRES
   155   79   80 1    
   156   79  200 1    
   157   80   81 1    
   158   80   82 1    
   159   80  201 1    
   160   81  202 1    
   161   81  203 1    
   162   81  204 1    
   163   82   83 2    
   164   82   84 am   BACKBONE|DICT|INTERRES
   165   84   85 1    
   166   84  205 1    
   167   85   86 1    
   168   85   87 1    
   169   85  206 1    
   170   86  207 1    
   171   86  208 1    
   172   86  209 1    
   173   87   88 2    
   174   87   89 am   BACKBONE|DICT|INTERRES
   175   89   90 1    
   176   89  210 1    
   177   90   91 1    
   178   90   92 1    
   179   90  211 1    
   180   91  212 1    
   181   91  213 1    
   182   91  214 1    
   183   92   93 2    
   184   92   94 am   BACKBONE|DICT|INTERRES
   185   94   95 1    
   186   94  215 1    
   187   95   96 1    
   188   95   97 1    
   189   95  216 1    
   190   96  217 1    
   191   96  218 1    
   192   96  219 1    
   193   97   98 2    
   194   97   99 am   BACKBONE|DICT|INTERRES
   195   99  100 1    
   196   99  220 1    
   197  100  101 1    
   198  100  102 1    
   199  100  221 1    
   200  101  222 1    
   201  101  223 1    
   202  101  224 1    
   203  102  103 2    
   204  102  104 am   BACKBONE|DICT|INTERRES
   205  104  105 1    
   206  104  225 1    
   207  105  106 1    
   208  105  107 1    
   209  105  226 1    
   210  106  227 1    
   211  106  228 1    
   212  106  229 1    
   213  107  108 2    
   214  107  109 am   BACKBONE|DICT|INTERRES
   215  109  110 1    
   216  109  230 1    
   217  110  111 1    
   218  110  112 1    
   219  110  231 1    
   220  111  232 1    
   221  111  233 1    
   222  111  234 1    
   223  112  113 2    
   224  112  114 am   BACKBONE|DICT|INTERRES
   225  114  115 1    
   226  114  235 1    
   227  115  116 1    
   228  115  117 1    
   229  115  236 1    
   230  116  237 1    
   231  116  238 1    
   232  116  239 1    
   233  117  118 2    
   234  117  119 am   BACKBONE|DICT|INTERRES
   235  119  120 1    
   236  119  240 1    
   237  120  121 1    
   238  120  124 1    
   239  120  241 1    
   240  121  122 am   BACKBONE|DICT|INTERRES
   241  121  123 2    
   242  122  242 1    
   243  122  243 1    
   244  124  125 1    
   245  124  244 1    
   246  124  245 1    
   247  125  126 1    
   248  126  246 1    
   249  126  247 1    
@<TRIPOS>SUBSTRUCTURE
     1 UNK         1 GROUP             0       ****    0 ROOT    
