@<TRIPOS>MOLECULE
3R540
247   249    1
SMALL
USER_CHARGES


@<TRIPOS>ATOM
      1 CA         -0.0236  -13.6592  -50.0675 C.3       0 UNK        -0.1800 
      2 C           0.1450  -14.3035  -48.6955 C.2       0 UNK         0.5000 
      3 O          -0.8384  -14.7367  -48.1004 O.2       0 UNK        -0.5000 
      4 N           1.3591  -14.3950  -48.1355 N.am      1 UNK        -0.5000 
      5 CA          2.6451  -13.9001  -48.6509 C.3       1 UNK         0.1400 
      6 C6          3.8463  -14.4801  -47.8577 C.3       23 UNK        -0.0398 
      7 S7          3.7619  -16.2883  -47.6084 S.3       23 UNK        -0.2404 
      8 C8          4.3724  -16.8966  -49.2102 C.3       23 UNK        -0.0205 
      9 C9          3.3819  -17.8595  -49.8445 C.ar      23 UNK        -0.0193 
     10 C10         2.2257  -17.3738  -50.4608 C.ar      23 UNK        -0.1150 
     11 C11         1.3125  -18.2465  -51.0583 C.ar      23 UNK        -0.0193 
     12 C12         1.5759  -19.6212  -51.0411 C.ar      23 UNK        -0.1150 
     13 C13         2.7321  -20.1228  -50.4329 C.ar      23 UNK        -0.0193 
     14 C14         3.6266  -19.2347  -49.8295 C.ar      23 UNK        -0.1150 
     15 C15         3.0491  -21.6143  -50.4581 C.3       23 UNK        -0.0205 
     16 S16         1.6539  -22.6670  -49.9490 S.3       23 UNK        -0.2404 
     17 C17         1.3871  -22.1190  -48.2329 C.3       23 UNK        -0.0398 
     18 CA          0.5531  -23.1316  -47.4123 C.3       11 UNK         0.1400 
     19 N           0.7121  -22.9019  -45.9770 N.am      11 UNK        -0.5000 
     20 C           0.3247  -23.7345  -45.0046 C.2       10 UNK         0.5000 
     21 O          -0.2249  -24.8130  -45.2244 O.2       10 UNK        -0.5000 
     22 CA          0.5155  -23.2667  -43.5474 C.3       10 UNK         0.1400 
     23 CB          1.0680  -24.3853  -42.6420 C.3       10 UNK        -0.1800 
     24 N           1.2841  -22.0252  -43.4025 N.am      10 UNK        -0.5000 
     25 C           2.5908  -21.8133  -43.6233 C.2       9 UNK         0.5000 
     26 O           3.3730  -22.6861  -43.9996 O.2       9 UNK        -0.5000 
     27 CA          3.1121  -20.3729  -43.4220 C.3       9 UNK         0.1400 
     28 CB          3.5192  -19.7625  -44.7734 C.3       9 UNK        -0.1800 
     29 N           2.1383  -19.4826  -42.7850 N.am      9 UNK        -0.5000 
     30 C           1.7745  -19.5182  -41.4956 C.2       8 UNK         0.5000 
     31 O           2.2930  -20.2552  -40.6570 O.2       8 UNK        -0.5000 
     32 CA          0.5875  -18.6206  -41.0964 C.3       8 UNK         0.1400 
     33 CB          1.0624  -17.2039  -40.7380 C.3       8 UNK        -0.1800 
     34 N          -0.4310  -18.5481  -42.1493 N.am      8 UNK        -0.5000 
     35 C          -1.2272  -19.5658  -42.5092 C.2       7 UNK         0.5000 
     36 O          -1.2122  -20.6689  -41.9651 O.2       7 UNK        -0.5000 
     37 CA         -2.1562  -19.3344  -43.7130 C.3       7 UNK         0.1400 
     38 CB         -3.4594  -18.6490  -43.2793 C.3       7 UNK        -0.1800 
     39 N          -1.5059  -18.5434  -44.7586 N.am      7 UNK        -0.5000 
     40 C          -0.5759  -19.0307  -45.5946 C.2       6 UNK         0.5000 
     41 O          -0.2608  -20.2193  -45.6346 O.2       6 UNK        -0.5000 
     42 CA          0.1314  -18.0394  -46.5395 C.3       6 UNK         0.1400 
     43 CB         -0.5594  -18.0437  -47.9089 C.3       6 UNK        -0.1800 
     44 N           0.1695  -16.6728  -46.0157 N.am      6 UNK        -0.5000 
     45 C           0.7793  -16.3128  -44.8753 C.2       5 UNK         0.5000 
     46 O           1.4716  -17.0821  -44.2117 O.2       5 UNK        -0.5000 
     47 CA          0.5243  -14.8887  -44.3412 C.3       5 UNK         0.1400 
     48 CB          1.7753  -14.0078  -44.4736 C.3       5 UNK        -0.1800 
     49 N          -0.6131  -14.2090  -44.9646 N.am      5 UNK        -0.5000 
     50 C          -1.8951  -14.5918  -44.8871 C.2       4 UNK         0.5000 
     51 O          -2.2596  -15.6031  -44.2843 O.2       4 UNK        -0.5000 
     52 CA         -2.9221  -13.7418  -45.6660 C.3       4 UNK         0.1400 
     53 CB         -4.2796  -13.6458  -44.9404 C.3       4 UNK        -0.1800 
     54 N          -2.4339  -12.4123  -46.0695 N.am      4 UNK        -0.5000 
     55 C          -2.1161  -11.3836  -45.2693 C.2       3 UNK         0.5000 
     56 O          -2.1448  -11.4302  -44.0390 O.2       3 UNK        -0.5000 
     57 CA         -1.6162  -10.1184  -45.9816 C.3       3 UNK         0.1400 
     58 CB         -1.6555   -8.8649  -45.0865 C.3       3 UNK        -0.1800 
     59 N          -0.2480  -10.3486  -46.4421 N.am      3 UNK        -0.5000 
     60 C           0.2642   -9.8726  -47.5847 C.2       2 UNK         0.5000 
     61 O          -0.3761   -9.2124  -48.4030 O.2       2 UNK        -0.5000 
     62 CA          1.7272  -10.2302  -47.8789 C.3       2 UNK         0.1400 
     63 CB          2.6929   -9.6133  -46.8510 C.3       2 UNK        -0.1800 
     64 N           1.8741  -11.6826  -47.9125 N.am      2 UNK        -0.5000 
     65 C           2.7342  -12.3570  -48.6860 C.2       1 UNK         0.5000 
     66 O           3.5641  -11.8174  -49.4178 O.2       1 UNK        -0.5000 
     67 C          -0.9355  -23.1149  -47.8156 C.2       11 UNK         0.5000 
     68 O          -1.3840  -23.9966  -48.5497 O.2       11 UNK        -0.5000 
     69 N          -1.6895  -22.1389  -47.2909 N.am      12 UNK        -0.5000 
     70 CA         -3.1358  -22.0388  -47.4951 C.3       12 UNK         0.1400 
     71 CB         -3.6005  -20.5968  -47.2468 C.3       12 UNK        -0.1800 
     72 C          -3.9235  -23.0402  -46.6311 C.2       12 UNK         0.5000 
     73 O          -5.0027  -23.4643  -47.0419 O.2       12 UNK        -0.5000 
     74 N          -3.3622  -23.4313  -45.4770 N.am      13 UNK        -0.5000 
     75 CA         -3.9355  -24.4367  -44.5772 C.3       13 UNK         0.1400 
     76 CB         -3.2335  -24.3742  -43.2119 C.3       13 UNK        -0.1800 
     77 C          -3.8575  -25.8555  -45.1719 C.2       13 UNK         0.5000 
     78 O          -4.8307  -26.6052  -45.0922 O.2       13 UNK        -0.5000 
     79 N          -2.7157  -26.1793  -45.7954 N.am      14 UNK        -0.5000 
     80 CA         -2.4864  -27.4206  -46.5395 C.3       14 UNK         0.1400 
     81 CB         -0.9706  -27.6206  -46.6999 C.3       14 UNK        -0.1800 
     82 C          -3.1695  -27.4374  -47.9228 C.2       14 UNK         0.5000 
     83 O          -3.2274  -28.4948  -48.5508 O.2       14 UNK        -0.5000 
     84 N          -3.6378  -26.2660  -48.3797 N.am      15 UNK        -0.5000 
     85 CA         -4.2261  -25.9726  -49.6913 C.3       15 UNK         0.1400 
     86 CB         -5.5084  -26.7936  -49.9359 C.3       15 UNK        -0.1800 
     87 C          -3.2173  -26.0756  -50.8552 C.2       15 UNK         0.5000 
     88 O          -3.6241  -26.1389  -52.0157 O.2       15 UNK        -0.5000 
     89 N          -1.9169  -26.0223  -50.5366 N.am      16 UNK        -0.5000 
     90 CA         -0.8059  -25.9637  -51.4877 C.3       16 UNK         0.1400 
     91 CB          0.5063  -26.2294  -50.7352 C.3       16 UNK        -0.1800 
     92 C          -0.7520  -24.6210  -52.2429 C.2       16 UNK         0.5000 
     93 O          -0.2675  -24.5763  -53.3738 O.2       16 UNK        -0.5000 
     94 N          -1.3033  -23.5670  -51.6238 N.am      17 UNK        -0.5000 
     95 CA         -1.5284  -22.2499  -52.2221 C.3       17 UNK         0.1400 
     96 CB         -1.8748  -21.2597  -51.0977 C.3       17 UNK        -0.1800 
     97 C          -2.6433  -22.2452  -53.2918 C.2       17 UNK         0.5000 
     98 O          -2.7772  -21.2572  -54.0112 O.2       17 UNK        -0.5000 
     99 N          -3.4489  -23.3193  -53.3488 N.am      18 UNK        -0.5000 
    100 CA        -4.6100  -23.5705  -54.2166 C.3       18 UNK         0.1400 
    101 CB        -4.2368  -23.4645  -55.7083 C.3       18 UNK        -0.1800 
    102 C         -5.8620  -22.7303  -53.8862 C.2       18 UNK         0.5000 
    103 O         -6.9627  -23.1129  -54.2853 O.2       18 UNK        -0.5000 
    104 N         -5.6929  -21.6337  -53.1444 N.am      19 UNK        -0.5000 
    105 CA        -6.7280  -20.7371  -52.6521 C.3       19 UNK         0.1400 
    106 CB        -7.1958  -19.8031  -53.7827 C.3       19 UNK        -0.1800 
    107 C         -6.1450  -19.9395  -51.4777 C.2       19 UNK         0.5000 
    108 O         -4.9201  -19.8723  -51.3275 O.2       19 UNK        -0.5000 
    109 N         -7.0278  -19.3345  -50.6727 N.am      20 UNK        -0.5000 
    110 CA        -6.6718  -18.4587  -49.5551 C.3       20 UNK         0.1400 
    111 CB        -7.9490  -18.0138  -48.8269 C.3       20 UNK        -0.1800 
    112 C         -5.8623  -17.2438  -50.0418 C.2       20 UNK         0.5000 
    113 O         -6.3203  -16.5309  -50.9383 O.2       20 UNK        -0.5000 
    114 N         -4.6519  -17.0781  -49.4892 N.am      21 UNK        -0.5000 
    115 CA        -3.6507  -16.0701  -49.8656 C.3       21 UNK         0.1400 
    116 CB        -4.1352  -14.6607  -49.4648 C.3       21 UNK        -0.1800 
    117 C         -3.2257  -16.1505  -51.3513 C.2       21 UNK         0.5000 
    118 O         -2.8553  -15.1309  -51.9338 O.2       21 UNK        -0.5000 
    119 N         -3.3098  -17.3539  -51.9419 N.am      22 UNK        -0.5000 
    120 CA        -3.1304  -17.6301  -53.3790 C.3       22 UNK         0.1400 
    121 C         -4.2454  -17.0170  -54.2869 C.2       22 UNK         0.5000 
    122 N         -5.3762  -16.5642  -53.7547 N.am      22 UNK        -0.7600 
    123 O         -4.1055  -16.9782  -55.5063 O.2       22 UNK        -0.5000 
    124 C124       -1.6921  -17.3215  -53.8975 C.3       23 UNK        -0.0398 
    125 S125       -0.4138  -18.4595  -53.2623 S.3       23 UNK        -0.2404 
    126 C126        0.0341  -17.6855  -51.6747 C.3       23 UNK        -0.0205 
    127 H127        0.0439  -12.5741  -49.9966 H         1 UNK         0.0600 
    128 H128        0.7243  -14.0164  -50.7743 H         1 UNK         0.0600 
    129 H129       -1.0021  -13.9028  -50.4778 H         1 UNK         0.0600 
    130 H130        1.4455  -14.9217  -47.2804 H         1 UNK         0.3000 
    131 H131        2.7443  -14.2408  -49.6820 H         1 UNK         0.0600 
    132 H132        3.9109  -14.0233  -46.8690 H         1 UNK         0.0800 
    133 H133        4.7873  -14.2363  -48.3545 H         1 UNK         0.0800 
    134 H134        5.3378  -17.3813  -49.0575 H         1 UNK         0.0800 
    135 H135        4.5553  -16.0696  -49.8974 H         1 UNK         0.0800 
    136 H136        2.0316  -16.3120  -50.4647 H         1 UNK         0.1150 
    137 H137        0.8818  -20.3059  -51.5052 H         1 UNK         0.1150 
    138 H138        4.5242  -19.6119  -49.3599 H         1 UNK         0.1150 
    139 H139        3.3381  -21.8884  -51.4733 H         1 UNK         0.0800 
    140 H140        3.9069  -21.8409  -49.8229 H         1 UNK         0.0800 
    141 H141        2.3691  -21.9960  -47.7733 H         1 UNK         0.0800 
    142 H142        0.9291  -21.1282  -48.2342 H         1 UNK         0.0800 
    143 H143        0.9351  -24.1346  -47.6156 H         1 UNK         0.0600 
    144 H144        1.0409  -21.9861  -45.7015 H         1 UNK         0.3000 
    145 H145       -0.4836  -23.0243  -43.1857 H         1 UNK         0.0600 
    146 H146        1.1774  -24.0416  -41.6134 H         1 UNK         0.0600 
    147 H147        0.3947  -25.2432  -42.6260 H         1 UNK         0.0600 
    148 H148        2.0394  -24.7435  -42.9833 H         1 UNK         0.0600 
    149 H149        0.7389  -21.2298  -43.0985 H         1 UNK         0.3000 
    150 H150        3.9977  -20.4274  -42.7858 H         1 UNK         0.0600 
    151 H151        4.3087  -20.3473  -45.2469 H         1 UNK         0.0600 
    152 H152        3.8956  -18.7462  -44.6537 H         1 UNK         0.0600 
    153 H153        2.6786  -19.7277  -45.4662 H         1 UNK         0.0600 
    154 H154        1.7233  -18.7693  -43.3791 H         1 UNK         0.3000 
    155 H155        0.1251  -19.0566  -40.2082 H         1 UNK         0.0600 
    156 H156        0.2290  -16.5759  -40.4228 H         1 UNK         0.0600 
    157 H157        1.5538  -16.7134  -41.5782 H         1 UNK         0.0600 
    158 H158        1.7771  -17.2319  -39.9146 H         1 UNK         0.0600 
    159 H159       -0.4818  -17.6871  -42.6726 H         1 UNK         0.3000 
    160 H160       -2.4125  -20.3147  -44.1195 H         1 UNK         0.0600 
    161 H161       -3.2738  -17.6706  -42.8348 H         1 UNK         0.0600 
    162 H162       -3.9878  -19.2506  -42.5388 H         1 UNK         0.0600 
    163 H163       -4.1318  -18.5099  -44.1260 H         1 UNK         0.0600 
    164 H164       -1.7244  -17.5528  -44.7782 H         1 UNK         0.3000 
    165 H165        1.1606  -18.3761  -46.6753 H         1 UNK         0.0600 
    166 H166       -1.5997  -17.7287  -47.8312 H         1 UNK         0.0600 
    167 H167       -0.0546  -17.3723  -48.6015 H         1 UNK         0.0600 
    168 H168       -0.5465  -19.0390  -48.3555 H         1 UNK         0.0600 
    169 H169       -0.3916  -15.9884  -46.5111 H         1 UNK         0.3000 
    170 H170        0.3006  -14.9930  -43.2775 H         1 UNK         0.0600 
    171 H171        2.6536  -14.5052  -44.0594 H         1 UNK         0.0600 
    172 H172        1.9942  -13.7640  -45.5107 H         1 UNK         0.0600 
    173 H173        1.6516  -13.0702  -43.9313 H         1 UNK         0.0600 
    174 H174       -0.4164  -13.3772  -45.4958 H         1 UNK         0.3000 
    175 H175       -3.0925  -14.2866  -46.5942 H         1 UNK         0.0600 
    176 H176       -4.9975  -13.0683  -45.5225 H         1 UNK         0.0600 
    177 H177       -4.7118  -14.6352  -44.7859 H         1 UNK         0.0600 
    178 H178       -4.1847  -13.1769  -43.9608 H         1 UNK         0.0600 
    179 H179       -2.3364  -12.2815  -47.0670 H         1 UNK         0.3000 
    180 H180       -2.2793   -9.9480  -46.8328 H         1 UNK         0.0600 
    181 H181       -1.3663   -7.9744  -45.6449 H         1 UNK         0.0600 
    182 H182       -2.6603   -8.6930  -44.6986 H         1 UNK         0.0600 
    183 H183       -0.9825   -8.9563  -44.2331 H         1 UNK         0.0600 
    184 H184        0.3515  -10.8448  -45.7987 H         1 UNK         0.3000 
    185 H185        1.9649   -9.8201  -48.8631 H         1 UNK         0.0600 
    186 H186        3.7306   -9.7849  -47.1375 H         1 UNK         0.0600 
    187 H187        2.5507   -8.5342  -46.7799 H         1 UNK         0.0600 
    188 H188        2.5508  -10.0321  -45.8544 H         1 UNK         0.0600 
    189 H189        1.1964  -12.2119  -47.3865 H         1 UNK         0.3000 
    190 H190       -1.2483  -21.4537  -46.6835 H         1 UNK         0.3000 
    191 H191       -3.3583  -22.2807  -48.5353 H         1 UNK         0.0600 
    192 H192       -4.6703  -20.4982  -47.4332 H         1 UNK         0.0600 
    193 H193       -3.0889  -19.9003  -47.9107 H         1 UNK         0.0600 
    194 H194       -3.4195  -20.2827  -46.2206 H         1 UNK         0.0600 
    195 H195       -2.4613  -23.0540  -45.2297 H         1 UNK         0.3000 
    196 H196       -4.9892  -24.1926  -44.4253 H         1 UNK         0.0600 
    197 H197       -3.7331  -25.0242  -42.4926 H         1 UNK         0.0600 
    198 H198       -3.2477  -23.3642  -42.8014 H         1 UNK         0.0600 
    199 H199       -2.1960  -24.7011  -43.2735 H         1 UNK         0.0600 
    200 H200       -1.9274  -25.5394  -45.7464 H         1 UNK         0.3000 
    201 H201       -2.8862  -28.2564  -45.9618 H         1 UNK         0.0600 
    202 H202       -0.4739  -27.6619  -45.7304 H         1 UNK         0.0600 
    203 H203       -0.5176  -26.8101  -47.2730 H         1 UNK         0.0600 
    204 H204       -0.7486  -28.5542  -47.2183 H         1 UNK         0.0600 
    205 H205       -3.5207  -25.4657  -47.7747 H         1 UNK         0.3000 
    206 H206       -4.5186  -24.9224  -49.6503 H         1 UNK         0.0600 
    207 H207       -6.1995  -26.7033  -49.0978 H         1 UNK         0.0600 
    208 H208       -6.0324  -26.4430  -50.8259 H         1 UNK         0.0600 
    209 H209       -5.2931  -27.8520  -50.0830 H         1 UNK         0.0600 
    210 H210       -1.6812  -25.8554  -49.5663 H         1 UNK         0.3000 
    211 H211       -0.9453  -26.7542  -52.2280 H         1 UNK         0.0600 
    212 H212        0.6620  -25.5090  -49.9320 H         1 UNK         0.0600 
    213 H213        1.3639  -26.1657  -51.4061 H         1 UNK         0.0600 
    214 H214        0.5107  -27.2260  -50.2935 H         1 UNK         0.0600 
    215 H215       -1.6071  -23.6926  -50.6657 H         1 UNK         0.3000 
    216 H216       -0.6034  -21.9246  -52.7023 H         1 UNK         0.0600 
    217 H217       -1.9922  -20.2483  -51.4865 H         1 UNK         0.0600 
    218 H218       -1.0964  -21.2253  -50.3360 H         1 UNK         0.0600 
    219 H219       -2.8127  -21.5245  -50.6118 H         1 UNK         0.0600 
    220 H220       -3.2476  -24.0781  -52.7101 H         1 UNK         0.3000 
    221 H221       -4.8892  -24.6080  -54.0275 H         1 UNK         0.0600 
    222 H222       -4.0102  -22.4393  -56.0017 H         1 UNK         0.0600 
    223 H223       -3.3700  -24.0823  -55.9431 H         1 UNK         0.0600 
    224 H224       -5.0591  -23.8054  -56.3383 H         1 UNK         0.0600 
    225 H225       -4.7562  -21.3741  -52.8578 H         1 UNK         0.3000 
    226 H226       -7.5701  -21.3267  -52.2843 H         1 UNK         0.0600 
    227 H227       -7.9201  -19.0725  -53.4209 H         1 UNK         0.0600 
    228 H228       -6.3604  -19.2525  -54.2153 H         1 UNK         0.0600 
    229 H229       -7.6756  -20.3626  -54.5857 H         1 UNK         0.0600 
    230 H230       -8.0124  -19.4130  -50.8806 H         1 UNK         0.3000 
    231 H231       -6.0647  -19.0383  -48.8573 H         1 UNK         0.0600 
    232 H232       -7.7101  -17.3704  -47.9791 H         1 UNK         0.0600 
    233 H233       -8.5013  -18.8699  -48.4389 H         1 UNK         0.0600 
    234 H234       -8.6147  -17.4547  -49.4859 H         1 UNK         0.0600 
    235 H235       -4.3585  -17.7347  -48.7806 H         1 UNK         0.3000 
    236 H236       -2.7562  -16.2888  -49.2833 H         1 UNK         0.0600 
    237 H237       -4.9409  -14.3117  -50.1116 H         1 UNK         0.0600 
    238 H238       -4.5035  -14.6447  -48.4398 H         1 UNK         0.0600 
    239 H239       -3.3244  -13.9348  -49.5310 H         1 UNK         0.0600 
    240 H240       -3.6733  -18.1342  -51.4069 H         1 UNK         0.3000 
    241 H241       -3.2829  -18.7044  -53.4788 H         1 UNK         0.0600 
    242 H242       -6.0816  -16.1805  -54.3625 H         1 UNK         0.3800 
    243 H243       -5.5393  -16.5797  -52.7532 H         1 UNK         0.3800 
    244 H244       -1.4041  -16.2895  -53.6987 H         1 UNK         0.0800 
    245 H245       -1.6512  -17.4258  -54.9826 H         1 UNK         0.0800 
    246 H246        0.1252  -16.6081  -51.8211 H         1 UNK         0.0800 
    247 H247       -0.7776  -17.8399  -50.9650 H         1 UNK         0.0800 
@<TRIPOS>BOND
     1    1    2 1    
     2    1  127 1    
     3    1  128 1    
     4    1  129 1    
     5    2    3 2    
     6    2    4 am   BACKBONE|DICT|INTERRES
     7    4    5 1    
     8    4  130 1    
     9    5    6 1    
    10    5   65 1    
    11    5  131 1    
    12    6    7 1    
    13    6  132 1    
    14    6  133 1    
    15    7    8 1    
    16    8    9 1    
    17    8  134 1    
    18    8  135 1    
    19    9   10 ar   
    20    9   14 ar   
    21   10   11 ar   
    22   10  136 1    
    23   11   12 ar   
    24   11  126 1    
    25   12   13 ar   
    26   12  137 1    
    27   13   14 ar   
    28   13   15 1    
    29   14  138 1    
    30   15   16 1    
    31   15  139 1    
    32   15  140 1    
    33   16   17 1    
    34   17   18 1    
    35   17  141 1    
    36   17  142 1    
    37   18   19 1    
    38   18   67 1    
    39   18  143 1    
    40   19   20 am   BACKBONE|DICT|INTERRES
    41   19  144 1    
    42   20   21 2    
    43   20   22 1    
    44   22   23 1    
    45   22   24 1    
    46   22  145 1    
    47   23  146 1    
    48   23  147 1    
    49   23  148 1    
    50   24   25 am   BACKBONE|DICT|INTERRES
    51   24  149 1    
    52   25   26 2    
    53   25   27 1    
    54   27   28 1    
    55   27   29 1    
    56   27  150 1    
    57   28  151 1    
    58   28  152 1    
    59   28  153 1    
    60   29   30 am   BACKBONE|DICT|INTERRES
    61   29  154 1    
    62   30   31 2    
    63   30   32 1    
    64   32   33 1    
    65   32   34 1    
    66   32  155 1    
    67   33  156 1    
    68   33  157 1    
    69   33  158 1    
    70   34   35 am   BACKBONE|DICT|INTERRES
    71   34  159 1    
    72   35   36 2    
    73   35   37 1    
    74   37   38 1    
    75   37   39 1    
    76   37  160 1    
    77   38  161 1    
    78   38  162 1    
    79   38  163 1    
    80   39   40 am   BACKBONE|DICT|INTERRES
    81   39  164 1    
    82   40   41 2    
    83   40   42 1    
    84   42   43 1    
    85   42   44 1    
    86   42  165 1    
    87   43  166 1    
    88   43  167 1    
    89   43  168 1    
    90   44   45 am   BACKBONE|DICT|INTERRES
    91   44  169 1    
    92   45   46 2    
    93   45   47 1    
    94   47   48 1    
    95   47   49 1    
    96   47  170 1    
    97   48  171 1    
    98   48  172 1    
    99   48  173 1    
   100   49   50 am   BACKBONE|DICT|INTERRES
   101   49  174 1    
   102   50   51 2    
   103   50   52 1    
   104   52   53 1    
   105   52   54 1    
   106   52  175 1    
   107   53  176 1    
   108   53  177 1    
   109   53  178 1    
   110   54   55 am   BACKBONE|DICT|INTERRES
   111   54  179 1    
   112   55   56 2    
   113   55   57 1    
   114   57   58 1    
   115   57   59 1    
   116   57  180 1    
   117   58  181 1    
   118   58  182 1    
   119   58  183 1    
   120   59   60 am   BACKBONE|DICT|INTERRES
   121   59  184 1    
   122   60   61 2    
   123   60   62 1    
   124   62   63 1    
   125   62   64 1    
   126   62  185 1    
   127   63  186 1    
   128   63  187 1    
   129   63  188 1    
   130   64   65 am   BACKBONE|DICT|INTERRES
   131   64  189 1    
   132   65   66 2    
   133   67   68 2    
   134   67   69 am   BACKBONE|DICT|INTERRES
   135   69   70 1    
   136   69  190 1    
   137   70   71 1    
   138   70   72 1    
   139   70  191 1    
   140   71  192 1    
   141   71  193 1    
   142   71  194 1    
   143   72   73 2    
   144   72   74 am   BACKBONE|DICT|INTERRES
   145   74   75 1    
   146   74  195 1    
   147   75   76 1    
   148   75   77 1    
   149   75  196 1    
   150   76  197 1    
   151   76  198 1    
   152   76  199 1    
   153   77   78 2    
   154   77   79 am   BACKBONE|DICT|INTERRES
   155   79   80 1    
   156   79  200 1    
   157   80   81 1    
   158   80   82 1    
   159   80  201 1    
   160   81  202 1    
   161   81  203 1    
   162   81  204 1    
   163   82   83 2    
   164   82   84 am   BACKBONE|DICT|INTERRES
   165   84   85 1    
   166   84  205 1    
   167   85   86 1    
   168   85   87 1    
   169   85  206 1    
   170   86  207 1    
   171   86  208 1    
   172   86  209 1    
   173   87   88 2    
   174   87   89 am   BACKBONE|DICT|INTERRES
   175   89   90 1    
   176   89  210 1    
   177   90   91 1    
   178   90   92 1    
   179   90  211 1    
   180   91  212 1    
   181   91  213 1    
   182   91  214 1    
   183   92   93 2    
   184   92   94 am   BACKBONE|DICT|INTERRES
   185   94   95 1    
   186   94  215 1    
   187   95   96 1    
   188   95   97 1    
   189   95  216 1    
   190   96  217 1    
   191   96  218 1    
   192   96  219 1    
   193   97   98 2    
   194   97   99 am   BACKBONE|DICT|INTERRES
   195   99  100 1    
   196   99  220 1    
   197  100  101 1    
   198  100  102 1    
   199  100  221 1    
   200  101  222 1    
   201  101  223 1    
   202  101  224 1    
   203  102  103 2    
   204  102  104 am   BACKBONE|DICT|INTERRES
   205  104  105 1    
   206  104  225 1    
   207  105  106 1    
   208  105  107 1    
   209  105  226 1    
   210  106  227 1    
   211  106  228 1    
   212  106  229 1    
   213  107  108 2    
   214  107  109 am   BACKBONE|DICT|INTERRES
   215  109  110 1    
   216  109  230 1    
   217  110  111 1    
   218  110  112 1    
   219  110  231 1    
   220  111  232 1    
   221  111  233 1    
   222  111  234 1    
   223  112  113 2    
   224  112  114 am   BACKBONE|DICT|INTERRES
   225  114  115 1    
   226  114  235 1    
   227  115  116 1    
   228  115  117 1    
   229  115  236 1    
   230  116  237 1    
   231  116  238 1    
   232  116  239 1    
   233  117  118 2    
   234  117  119 am   BACKBONE|DICT|INTERRES
   235  119  120 1    
   236  119  240 1    
   237  120  121 1    
   238  120  124 1    
   239  120  241 1    
   240  121  122 am   BACKBONE|DICT|INTERRES
   241  121  123 2    
   242  122  242 1    
   243  122  243 1    
   244  124  125 1    
   245  124  244 1    
   246  124  245 1    
   247  125  126 1    
   248  126  246 1    
   249  126  247 1    
@<TRIPOS>SUBSTRUCTURE
     1 UNK         1 GROUP             0       ****    0 ROOT    
