@<TRIPOS>MOLECULE
3R540
247   249    1
SMALL
USER_CHARGES


@<TRIPOS>ATOM
      1 CA          0.5152   -8.4024  -47.3676 C.3       0 UNK        -0.1800 
      2 C           0.6658   -9.6860  -48.1720 C.2       0 UNK         0.5000 
      3 O           0.5434   -9.6609  -49.3968 O.2       0 UNK        -0.5000 
      4 N           0.9297  -10.8043  -47.4914 N.am      1 UNK        -0.5000 
      5 CA          1.1363  -12.1272  -48.0728 C.3       1 UNK         0.1400 
      6 C6         -0.2076  -12.8261  -48.4028 C.3       23 UNK        -0.0398 
      7 S7         -0.0254  -14.2678  -49.5074 S.3       23 UNK        -0.2404 
      8 C8         -0.4446  -15.6094  -48.3568 C.3       23 UNK        -0.0205 
      9 C9         -0.3877  -16.9696  -49.0293 C.ar      23 UNK        -0.0193 
     10 C10        -1.5337  -17.5199  -49.6079 C.ar      23 UNK        -0.1150 
     11 C11        -1.4873  -18.7694  -50.2374 C.ar      23 UNK        -0.0193 
     12 C12        -0.2811  -19.4779  -50.2586 C.ar      23 UNK        -0.1150 
     13 C13         0.8672  -18.9461  -49.6620 C.ar      23 UNK        -0.0193 
     14 C14         0.8087  -17.6876  -49.0586 C.ar      23 UNK        -0.1150 
     15 C15         2.1777  -19.7213  -49.6619 C.3       23 UNK        -0.0205 
     16 S16         2.0823  -21.2963  -48.7493 S.3       23 UNK        -0.2404 
     17 C17         1.4967  -20.7865  -47.0920 C.3       23 UNK        -0.0398 
     18 CA          0.6329  -21.8811  -46.4214 C.3       11 UNK         0.1400 
     19 N           0.4549  -21.6516  -44.9870 N.am      11 UNK        -0.5000 
     20 C          -0.0519  -22.5551  -44.1359 C.2       10 UNK         0.5000 
     21 O          -0.4093  -23.6842  -44.4712 O.2       10 UNK        -0.5000 
     22 CA         -0.2316  -22.1119  -42.6739 C.3       10 UNK         0.1400 
     23 CB          1.1134  -22.1099  -41.9324 C.3       10 UNK        -0.1800 
     24 N          -0.8664  -20.7992  -42.5582 N.am      10 UNK        -0.5000 
     25 C          -2.1075  -20.5198  -42.9830 C.2       9 UNK         0.5000 
     26 O          -2.8615  -21.3499  -43.4899 O.2       9 UNK        -0.5000 
     27 CA         -2.5719  -19.0583  -42.8608 C.3       9 UNK         0.1400 
     28 CB         -2.9984  -18.7379  -41.4205 C.3       9 UNK        -0.1800 
     29 N          -1.5544  -18.1027  -43.2965 N.am      9 UNK        -0.5000 
     30 C          -1.0488  -18.0405  -44.5368 C.2       8 UNK         0.5000 
     31 O          -1.3974  -18.7710  -45.4627 O.2       8 UNK        -0.5000 
     32 CA          0.0790  -17.0243  -44.7661 C.3       8 UNK         0.1400 
     33 CB         -0.4767  -15.5922  -44.7985 C.3       8 UNK        -0.1800 
     34 N           1.1267  -17.1256  -43.7519 N.am      8 UNK        -0.5000 
     35 C           1.8712  -18.2166  -43.5216 C.2       7 UNK         0.5000 
     36 O           1.8022  -19.2496  -44.1862 O.2       7 UNK        -0.5000 
     37 CA          2.8161  -18.1601  -42.3100 C.3       7 UNK         0.1400 
     38 CB          4.1391  -17.4669  -42.6724 C.3       7 UNK        -0.1800 
     39 N           2.1964  -17.4864  -41.1681 N.am      7 UNK        -0.5000 
     40 C           1.1675  -17.9822  -40.4649 C.2       6 UNK         0.5000 
     41 O           0.6541  -19.0794  -40.6829 O.2       6 UNK        -0.5000 
     42 CA          0.5894  -17.0788  -39.3605 C.3       6 UNK         0.1400 
     43 CB          1.4367  -17.1718  -38.0828 C.3       6 UNK        -0.1800 
     44 N           0.4931  -15.6800  -39.7799 N.am      6 UNK        -0.5000 
     45 C          -0.3362  -15.2335  -40.7340 C.2       5 UNK         0.5000 
     46 O          -1.1465  -15.9495  -41.3219 O.2       5 UNK        -0.5000 
     47 CA         -0.2040  -13.7490  -41.1295 C.3       5 UNK         0.1400 
     48 CB         -1.1035  -12.8743  -40.2437 C.3       5 UNK        -0.1800 
     49 N           1.1730  -13.2458  -41.0711 N.am      5 UNK        -0.5000 
     50 C           2.1901  -13.7287  -41.7964 C.2       4 UNK         0.5000 
     51 O           2.0782  -14.6672  -42.5901 O.2       4 UNK        -0.5000 
     52 CA          3.5701  -13.1044  -41.5492 C.3       4 UNK         0.1400 
     53 CB          4.1271  -13.5615  -40.1856 C.3       4 UNK        -0.1800 
     54 N           4.4574  -13.5315  -42.6244 N.am      4 UNK        -0.5000 
     55 C           5.6748  -13.0527  -42.9026 C.2       3 UNK         0.5000 
     56 O           6.2060  -12.1298  -42.2837 O.2       3 UNK        -0.5000 
     57 CA          6.4375  -13.7261  -44.0611 C.3       3 UNK         0.1400 
     58 CB          7.4005  -14.7913  -43.5135 C.3       3 UNK        -0.1800 
     59 N           5.5476  -14.3557  -45.0398 N.am      3 UNK        -0.5000 
     60 C           4.8637  -13.6914  -45.9805 C.2       2 UNK         0.5000 
     61 O           4.9862  -12.4792  -46.1746 O.2       2 UNK        -0.5000 
     62 CA          3.9189  -14.5349  -46.8694 C.3       2 UNK         0.1400 
     63 CB          3.2198  -15.6674  -46.0870 C.3       2 UNK        -0.1800 
     64 N           2.9300  -13.7284  -47.5972 N.am      2 UNK        -0.5000 
     65 C           1.9940  -12.9229  -47.0734 C.2       1 UNK         0.5000 
     66 O           1.7919  -12.7807  -45.8642 O.2       1 UNK        -0.5000 
     67 C          -0.7163  -22.0941  -47.1383 C.2       11 UNK         0.5000 
     68 O          -0.8390  -23.0494  -47.9022 O.2       11 UNK        -0.5000 
     69 N          -1.7187  -21.2544  -46.8437 N.am      12 UNK        -0.5000 
     70 CA         -3.0648  -21.3615  -47.4095 C.3       12 UNK         0.1400 
     71 CB         -3.8750  -20.1069  -47.0530 C.3       12 UNK        -0.1800 
     72 C          -3.8166  -22.6390  -46.9897 C.2       12 UNK         0.5000 
     73 O          -4.6214  -23.1451  -47.7707 O.2       12 UNK        -0.5000 
     74 N          -3.5412  -23.1474  -45.7813 N.am      13 UNK        -0.5000 
     75 CA         -4.0541  -24.4295  -45.3023 C.3       13 UNK         0.1400 
     76 CB         -3.9092  -24.5033  -43.7745 C.3       13 UNK        -0.1800 
     77 C          -3.3547  -25.6252  -45.9761 C.2       13 UNK         0.5000 
     78 O          -4.0217  -26.6035  -46.3158 O.2       13 UNK        -0.5000 
     79 N          -2.0279  -25.5354  -46.1390 N.am      14 UNK        -0.5000 
     80 CA         -1.1898  -26.5925  -46.7013 C.3       14 UNK         0.1400 
     81 CB          0.2755  -26.3390  -46.3126 C.3       14 UNK        -0.1800 
     82 C          -1.3250  -26.7362  -48.2274 C.2       14 UNK         0.5000 
     83 O          -1.4509  -27.8585  -48.7202 O.2       14 UNK        -0.5000 
     84 N          -1.2572  -25.6128  -48.9517 N.am      15 UNK        -0.5000 
     85 CA         -1.2502  -25.5735  -50.4108 C.3       15 UNK         0.1400 
     86 CB         -0.6671  -24.2308  -50.8832 C.3       15 UNK        -0.1800 
     87 C          -2.6563  -25.7745  -50.9951 C.2       15 UNK         0.5000 
     88 O          -3.5955  -25.0863  -50.5916 O.2       15 UNK        -0.5000 
     89 N          -2.7589  -26.6555  -51.9991 N.am      16 UNK        -0.5000 
     90 CA         -3.9685  -26.8555  -52.8047 C.3       16 UNK         0.1400 
     91 CB         -3.8162  -28.1419  -53.6298 C.3       16 UNK        -0.1800 
     92 C          -4.2759  -25.6565  -53.7253 C.2       16 UNK         0.5000 
     93 O          -5.4285  -25.4656  -54.1141 O.2       16 UNK        -0.5000 
     94 N          -3.2455  -24.8490  -54.0241 N.am      17 UNK        -0.5000 
     95 CA         -3.3009  -23.6293  -54.8326 C.3       17 UNK         0.1400 
     96 CB         -1.8842  -23.0513  -54.9668 C.3       17 UNK        -0.1800 
     97 C          -4.2579  -22.5513  -54.2932 C.2       17 UNK         0.5000 
     98 O          -4.7051  -21.7104  -55.0708 O.2       17 UNK        -0.5000 
     99 N          -4.5947  -22.6000  -52.9960 N.am      18 UNK        -0.5000 
    100 CA        -5.5796  -21.7267  -52.3519 C.3       18 UNK         0.1400 
    101 CB        -5.6251  -22.0447  -50.8516 C.3       18 UNK        -0.1800 
    102 C         -6.9891  -21.8144  -52.9754 C.2       18 UNK         0.5000 
    103 O         -7.7137  -20.8191  -52.9693 O.2       18 UNK        -0.5000 
    104 N         -7.3305  -22.9736  -53.5604 N.am      19 UNK        -0.5000 
    105 CA        -8.5576  -23.1874  -54.3339 C.3       19 UNK         0.1400 
    106 CB        -8.7666  -24.6962  -54.5314 C.3       19 UNK        -0.1800 
    107 C         -8.5566  -22.4606  -55.6967 C.2       19 UNK         0.5000 
    108 O         -9.6270  -22.2435  -56.2648 O.2       19 UNK        -0.5000 
    109 N         -7.3679  -22.0832  -56.1848 N.am      20 UNK        -0.5000 
    110 CA        -7.1331  -21.3143  -57.4065 C.3       20 UNK         0.1400 
    111 CB        -6.1160  -22.0749  -58.2767 C.3       20 UNK        -0.1800 
    112 C         -6.6549  -19.8873  -57.0637 C.2       20 UNK         0.5000 
    113 O         -5.8786  -19.2983  -57.8189 O.2       20 UNK        -0.5000 
    114 N         -7.1060  -19.3659  -55.9113 N.am      21 UNK        -0.5000 
    115 CA        -6.8267  -18.0330  -55.3625 C.3       21 UNK         0.1400 
    116 CB        -7.4810  -16.9420  -56.2359 C.3       21 UNK        -0.1800 
    117 C         -5.3292  -17.7660  -55.0931 C.2       21 UNK         0.5000 
    118 O         -4.8889  -16.6168  -55.1570 O.2       21 UNK        -0.5000 
    119 N         -4.5801  -18.8348  -54.7927 N.am      22 UNK        -0.5000 
    120 CA        -3.1328  -18.8494  -54.5185 C.3       22 UNK         0.1400 
    121 C         -2.2457  -18.6401  -55.7828 C.2       22 UNK         0.5000 
    122 N         -2.7843  -18.7274  -56.9946 N.am      22 UNK        -0.7600 
    123 O         -1.0418  -18.4269  -55.6699 O.2       22 UNK        -0.5000 
    124 C124       -2.7023  -17.9556  -53.3185 C.3       23 UNK        -0.0398 
    125 S125       -3.7335  -18.2026  -51.8297 S.3       23 UNK        -0.2404 
    126 C126       -2.7397  -19.3812  -50.8581 C.3       23 UNK        -0.0205 
    127 H127        0.6469   -8.5759  -46.2992 H         1 UNK         0.0600 
    128 H128       -0.4760   -7.9762  -47.5230 H         1 UNK         0.0600 
    129 H129        1.2565   -7.6700  -47.6871 H         1 UNK         0.0600 
    130 H130        1.0536  -10.7822  -46.4861 H         1 UNK         0.3000 
    131 H131        1.7120  -12.0046  -48.9933 H         1 UNK         0.0600 
    132 H132       -0.8669  -12.1276  -48.9196 H         1 UNK         0.0800 
    133 H133       -0.7367  -13.1035  -47.4891 H         1 UNK         0.0800 
    134 H134       -1.4416  -15.4400  -47.9476 H         1 UNK         0.0800 
    135 H135        0.2514  -15.5822  -47.5193 H         1 UNK         0.0800 
    136 H136       -2.4632  -16.9697  -49.5721 H         1 UNK         0.1150 
    137 H137       -0.2349  -20.4530  -50.7231 H         1 UNK         0.1150 
    138 H138        1.6952  -17.2658  -48.6082 H         1 UNK         0.1150 
    139 H139        2.4646  -19.9297  -50.6934 H         1 UNK         0.0800 
    140 H140        2.9837  -19.1215  -49.2364 H         1 UNK         0.0800 
    141 H141        0.9485  -19.8449  -47.1362 H         1 UNK         0.0800 
    142 H142        2.3820  -20.5895  -46.4862 H         1 UNK         0.0800 
    143 H143        1.1846  -22.8202  -46.5066 H         1 UNK         0.0600 
    144 H144        0.7511  -20.7453  -44.6324 H         1 UNK         0.3000 
    145 H145       -0.8843  -22.8392  -42.1865 H         1 UNK         0.0600 
    146 H146        0.9789  -21.8848  -40.8743 H         1 UNK         0.0600 
    147 H147        1.8013  -21.3723  -42.3460 H         1 UNK         0.0600 
    148 H148        1.5975  -23.0851  -41.9985 H         1 UNK         0.0600 
    149 H149       -0.3212  -20.0675  -42.1128 H         1 UNK         0.3000 
    150 H150       -3.4417  -18.9327  -43.5089 H         1 UNK         0.0600 
    151 H151       -3.7643  -19.4335  -41.0753 H         1 UNK         0.0600 
    152 H152       -3.4146  -17.7330  -41.3480 H         1 UNK         0.0600 
    153 H153       -2.1586  -18.8014  -40.7278 H         1 UNK         0.0600 
    154 H154       -1.2294  -17.4382  -42.6001 H         1 UNK         0.3000 
    155 H155        0.5295  -17.2454  -45.7351 H         1 UNK         0.0600 
    156 H156       -1.2681  -15.4942  -45.5411 H         1 UNK         0.0600 
    157 H157        0.3000  -14.8702  -45.0460 H         1 UNK         0.0600 
    158 H158       -0.9040  -15.3019  -43.8411 H         1 UNK         0.0600 
    159 H159        1.2966  -16.2975  -43.1879 H         1 UNK         0.3000 
    160 H160        3.0427  -19.1867  -42.0150 H         1 UNK         0.0600 
    161 H161        3.9856  -16.4374  -42.9919 H         1 UNK         0.0600 
    162 H162        4.6396  -17.9902  -43.4880 H         1 UNK         0.0600 
    163 H163        4.8244  -17.4559  -41.8248 H         1 UNK         0.0600 
    164 H164        2.5185  -16.5529  -40.9630 H         1 UNK         0.3000 
    165 H165       -0.4167  -17.4362  -39.1301 H         1 UNK         0.0600 
    166 H166        0.9912  -16.5951  -37.2721 H         1 UNK         0.0600 
    167 H167        1.5140  -18.2049  -37.7410 H         1 UNK         0.0600 
    168 H168        2.4504  -16.8014  -38.2411 H         1 UNK         0.0600 
    169 H169        1.1227  -15.0241  -39.3425 H         1 UNK         0.3000 
    170 H170       -0.5465  -13.6507  -42.1611 H         1 UNK         0.0600 
    171 H171       -0.7904  -12.9016  -39.1992 H         1 UNK         0.0600 
    172 H172       -1.0901  -11.8349  -40.5721 H         1 UNK         0.0600 
    173 H173       -2.1396  -13.2131  -40.2850 H         1 UNK         0.0600 
    174 H174        1.3447  -12.4815  -40.4338 H         1 UNK         0.3000 
    175 H175        3.4736  -12.0174  -41.5735 H         1 UNK         0.0600 
    176 H176        4.2524  -14.6444  -40.1468 H         1 UNK         0.0600 
    177 H177        5.0957  -13.1078  -39.9763 H         1 UNK         0.0600 
    178 H178        3.4621  -13.2774  -39.3694 H         1 UNK         0.0600 
    179 H179        4.0543  -14.2466  -43.2159 H         1 UNK         0.3000 
    180 H180        7.0292  -12.9571  -44.5624 H         1 UNK         0.0600 
    181 H181        7.9923  -15.2371  -44.3131 H         1 UNK         0.0600 
    182 H182        6.8665  -15.5935  -43.0022 H         1 UNK         0.0600 
    183 H183        8.0994  -14.3551  -42.7984 H         1 UNK         0.0600 
    184 H184        5.4288  -15.3548  -44.9638 H         1 UNK         0.3000 
    185 H185        4.5483  -14.9964  -47.6315 H         1 UNK         0.0600 
    186 H186        2.6929  -15.2823  -45.2143 H         1 UNK         0.0600 
    187 H187        2.4955  -16.1875  -46.7105 H         1 UNK         0.0600 
    188 H188        3.9301  -16.4180  -45.7404 H         1 UNK         0.0600 
    189 H189        3.0228  -13.7504  -48.6030 H         1 UNK         0.3000 
    190 H190       -1.5500  -20.4674  -46.2204 H         1 UNK         0.3000 
    191 H191       -2.9562  -21.4019  -48.4942 H         1 UNK         0.0600 
    192 H192       -3.3924  -19.2060  -47.4329 H         1 UNK         0.0600 
    193 H193       -3.9872  -19.9975  -45.9736 H         1 UNK         0.0600 
    194 H194       -4.8743  -20.1491  -47.4879 H         1 UNK         0.0600 
    195 H195       -2.9277  -22.6345  -45.1580 H         1 UNK         0.3000 
    196 H196       -5.1185  -24.4878  -45.5399 H         1 UNK         0.0600 
    197 H197       -4.4695  -23.7049  -43.2877 H         1 UNK         0.0600 
    198 H198       -2.8680  -24.4178  -43.4622 H         1 UNK         0.0600 
    199 H199       -4.2915  -25.4500  -43.3907 H         1 UNK         0.0600 
    200 H200       -1.5465  -24.7118  -45.7927 H         1 UNK         0.3000 
    201 H201       -1.4922  -27.5410  -46.2521 H         1 UNK         0.0600 
    202 H202        0.4002  -26.3357  -45.2296 H         1 UNK         0.0600 
    203 H203        0.6326  -25.3808  -46.6920 H         1 UNK         0.0600 
    204 H204        0.9278  -27.1162  -46.7128 H         1 UNK         0.0600 
    205 H205       -1.1770  -24.7139  -48.4779 H         1 UNK         0.3000 
    206 H206       -0.5940  -26.3687  -50.7715 H         1 UNK         0.0600 
    207 H207       -1.2950  -23.3904  -50.5831 H         1 UNK         0.0600 
    208 H208        0.3283  -24.0645  -50.4704 H         1 UNK         0.0600 
    209 H209       -0.5778  -24.2019  -51.9694 H         1 UNK         0.0600 
    210 H210       -1.9468  -27.1932  -52.2672 H         1 UNK         0.3000 
    211 H211       -4.8174  -26.9785  -52.1288 H         1 UNK         0.0600 
    212 H212       -2.9737  -28.0815  -54.3199 H         1 UNK         0.0600 
    213 H213       -4.7122  -28.3340  -54.2218 H         1 UNK         0.0600 
    214 H214       -3.6626  -29.0079  -52.9857 H         1 UNK         0.0600 
    215 H215       -2.3388  -25.0993  -53.6603 H         1 UNK         0.3000 
    216 H216       -3.6567  -23.9082  -55.8264 H         1 UNK         0.0600 
    217 H217       -1.8833  -22.1603  -55.5968 H         1 UNK         0.0600 
    218 H218       -1.2050  -23.7704  -55.4251 H         1 UNK         0.0600 
    219 H219       -1.4715  -22.7674  -53.9979 H         1 UNK         0.0600 
    220 H220       -4.1985  -23.3313  -52.4215 H         1 UNK         0.3000 
    221 H221       -5.2362  -20.6985  -52.4730 H         1 UNK         0.0600 
    222 H222       -6.3114  -21.3774  -50.3288 H         1 UNK         0.0600 
    223 H223       -5.9535  -23.0683  -50.6665 H         1 UNK         0.0600 
    224 H224       -4.6438  -21.9253  -50.3929 H         1 UNK         0.0600 
    225 H225       -6.6690  -23.7417  -53.5492 H         1 UNK         0.3000 
    226 H226       -9.3983  -22.7996  -53.7549 H         1 UNK         0.0600 
    227 H227       -8.8034  -25.2193  -53.5757 H         1 UNK         0.0600 
    228 H228       -9.7063  -24.8963  -55.0479 H         1 UNK         0.0600 
    229 H229       -7.9659  -25.1382  -55.1256 H         1 UNK         0.0600 
    230 H230       -6.5378  -22.2504  -55.6267 H         1 UNK         0.3000 
    231 H231       -8.0580  -21.2113  -57.9768 H         1 UNK         0.0600 
    232 H232       -5.9630  -21.5733  -59.2329 H         1 UNK         0.0600 
    233 H233       -6.4623  -23.0853  -58.4941 H         1 UNK         0.0600 
    234 H234       -5.1451  -22.1519  -57.7857 H         1 UNK         0.0600 
    235 H235       -7.6999  -19.9498  -55.3380 H         1 UNK         0.3000 
    236 H236       -7.3112  -18.0050  -54.3855 H         1 UNK         0.0600 
    237 H237       -7.0037  -16.8665  -57.2134 H         1 UNK         0.0600 
    238 H238       -8.5400  -17.1458  -56.3940 H         1 UNK         0.0600 
    239 H239       -7.4092  -15.9630  -55.7606 H         1 UNK         0.0600 
    240 H240       -5.0057  -19.7537  -54.8399 H         1 UNK         0.3000 
    241 H241       -2.9179  -19.8742  -54.2181 H         1 UNK         0.0600 
    242 H242       -2.2008  -18.6010  -57.8062 H         1 UNK         0.3800 
    243 H243       -3.7736  -18.9059  -57.1116 H         1 UNK         0.3800 
    244 H244       -2.7564  -16.9013  -53.5923 H         1 UNK         0.0800 
    245 H245       -1.6585  -18.1406  -53.0599 H         1 UNK         0.0800 
    246 H246       -2.4894  -20.2380  -51.4859 H         1 UNK         0.0800 
    247 H247       -3.3692  -19.7588  -50.0539 H         1 UNK         0.0800 
@<TRIPOS>BOND
     1    1    2 1    
     2    1  127 1    
     3    1  128 1    
     4    1  129 1    
     5    2    3 2    
     6    2    4 am   BACKBONE|DICT|INTERRES
     7    4    5 1    
     8    4  130 1    
     9    5    6 1    
    10    5   65 1    
    11    5  131 1    
    12    6    7 1    
    13    6  132 1    
    14    6  133 1    
    15    7    8 1    
    16    8    9 1    
    17    8  134 1    
    18    8  135 1    
    19    9   10 ar   
    20    9   14 ar   
    21   10   11 ar   
    22   10  136 1    
    23   11   12 ar   
    24   11  126 1    
    25   12   13 ar   
    26   12  137 1    
    27   13   14 ar   
    28   13   15 1    
    29   14  138 1    
    30   15   16 1    
    31   15  139 1    
    32   15  140 1    
    33   16   17 1    
    34   17   18 1    
    35   17  141 1    
    36   17  142 1    
    37   18   19 1    
    38   18   67 1    
    39   18  143 1    
    40   19   20 am   BACKBONE|DICT|INTERRES
    41   19  144 1    
    42   20   21 2    
    43   20   22 1    
    44   22   23 1    
    45   22   24 1    
    46   22  145 1    
    47   23  146 1    
    48   23  147 1    
    49   23  148 1    
    50   24   25 am   BACKBONE|DICT|INTERRES
    51   24  149 1    
    52   25   26 2    
    53   25   27 1    
    54   27   28 1    
    55   27   29 1    
    56   27  150 1    
    57   28  151 1    
    58   28  152 1    
    59   28  153 1    
    60   29   30 am   BACKBONE|DICT|INTERRES
    61   29  154 1    
    62   30   31 2    
    63   30   32 1    
    64   32   33 1    
    65   32   34 1    
    66   32  155 1    
    67   33  156 1    
    68   33  157 1    
    69   33  158 1    
    70   34   35 am   BACKBONE|DICT|INTERRES
    71   34  159 1    
    72   35   36 2    
    73   35   37 1    
    74   37   38 1    
    75   37   39 1    
    76   37  160 1    
    77   38  161 1    
    78   38  162 1    
    79   38  163 1    
    80   39   40 am   BACKBONE|DICT|INTERRES
    81   39  164 1    
    82   40   41 2    
    83   40   42 1    
    84   42   43 1    
    85   42   44 1    
    86   42  165 1    
    87   43  166 1    
    88   43  167 1    
    89   43  168 1    
    90   44   45 am   BACKBONE|DICT|INTERRES
    91   44  169 1    
    92   45   46 2    
    93   45   47 1    
    94   47   48 1    
    95   47   49 1    
    96   47  170 1    
    97   48  171 1    
    98   48  172 1    
    99   48  173 1    
   100   49   50 am   BACKBONE|DICT|INTERRES
   101   49  174 1    
   102   50   51 2    
   103   50   52 1    
   104   52   53 1    
   105   52   54 1    
   106   52  175 1    
   107   53  176 1    
   108   53  177 1    
   109   53  178 1    
   110   54   55 am   BACKBONE|DICT|INTERRES
   111   54  179 1    
   112   55   56 2    
   113   55   57 1    
   114   57   58 1    
   115   57   59 1    
   116   57  180 1    
   117   58  181 1    
   118   58  182 1    
   119   58  183 1    
   120   59   60 am   BACKBONE|DICT|INTERRES
   121   59  184 1    
   122   60   61 2    
   123   60   62 1    
   124   62   63 1    
   125   62   64 1    
   126   62  185 1    
   127   63  186 1    
   128   63  187 1    
   129   63  188 1    
   130   64   65 am   BACKBONE|DICT|INTERRES
   131   64  189 1    
   132   65   66 2    
   133   67   68 2    
   134   67   69 am   BACKBONE|DICT|INTERRES
   135   69   70 1    
   136   69  190 1    
   137   70   71 1    
   138   70   72 1    
   139   70  191 1    
   140   71  192 1    
   141   71  193 1    
   142   71  194 1    
   143   72   73 2    
   144   72   74 am   BACKBONE|DICT|INTERRES
   145   74   75 1    
   146   74  195 1    
   147   75   76 1    
   148   75   77 1    
   149   75  196 1    
   150   76  197 1    
   151   76  198 1    
   152   76  199 1    
   153   77   78 2    
   154   77   79 am   BACKBONE|DICT|INTERRES
   155   79   80 1    
   156   79  200 1    
   157   80   81 1    
   158   80   82 1    
   159   80  201 1    
   160   81  202 1    
   161   81  203 1    
   162   81  204 1    
   163   82   83 2    
   164   82   84 am   BACKBONE|DICT|INTERRES
   165   84   85 1    
   166   84  205 1    
   167   85   86 1    
   168   85   87 1    
   169   85  206 1    
   170   86  207 1    
   171   86  208 1    
   172   86  209 1    
   173   87   88 2    
   174   87   89 am   BACKBONE|DICT|INTERRES
   175   89   90 1    
   176   89  210 1    
   177   90   91 1    
   178   90   92 1    
   179   90  211 1    
   180   91  212 1    
   181   91  213 1    
   182   91  214 1    
   183   92   93 2    
   184   92   94 am   BACKBONE|DICT|INTERRES
   185   94   95 1    
   186   94  215 1    
   187   95   96 1    
   188   95   97 1    
   189   95  216 1    
   190   96  217 1    
   191   96  218 1    
   192   96  219 1    
   193   97   98 2    
   194   97   99 am   BACKBONE|DICT|INTERRES
   195   99  100 1    
   196   99  220 1    
   197  100  101 1    
   198  100  102 1    
   199  100  221 1    
   200  101  222 1    
   201  101  223 1    
   202  101  224 1    
   203  102  103 2    
   204  102  104 am   BACKBONE|DICT|INTERRES
   205  104  105 1    
   206  104  225 1    
   207  105  106 1    
   208  105  107 1    
   209  105  226 1    
   210  106  227 1    
   211  106  228 1    
   212  106  229 1    
   213  107  108 2    
   214  107  109 am   BACKBONE|DICT|INTERRES
   215  109  110 1    
   216  109  230 1    
   217  110  111 1    
   218  110  112 1    
   219  110  231 1    
   220  111  232 1    
   221  111  233 1    
   222  111  234 1    
   223  112  113 2    
   224  112  114 am   BACKBONE|DICT|INTERRES
   225  114  115 1    
   226  114  235 1    
   227  115  116 1    
   228  115  117 1    
   229  115  236 1    
   230  116  237 1    
   231  116  238 1    
   232  116  239 1    
   233  117  118 2    
   234  117  119 am   BACKBONE|DICT|INTERRES
   235  119  120 1    
   236  119  240 1    
   237  120  121 1    
   238  120  124 1    
   239  120  241 1    
   240  121  122 am   BACKBONE|DICT|INTERRES
   241  121  123 2    
   242  122  242 1    
   243  122  243 1    
   244  124  125 1    
   245  124  244 1    
   246  124  245 1    
   247  125  126 1    
   248  126  246 1    
   249  126  247 1    
@<TRIPOS>SUBSTRUCTURE
     1 UNK         1 GROUP             0       ****    0 ROOT    
