@<TRIPOS>MOLECULE
3R540
247   249    1
SMALL
USER_CHARGES


@<TRIPOS>ATOM
      1 CA         -1.2814  -13.0783  -48.5369 C.3       0 UNK        -0.1800 
      2 C           0.0296  -12.4974  -49.0473 C.2       0 UNK         0.5000 
      3 O           0.0217  -11.5124  -49.7866 O.2       0 UNK        -0.5000 
      4 N           1.1513  -13.1059  -48.6468 N.am      1 UNK        -0.5000 
      5 CA          2.5134  -12.6407  -48.9388 C.3       1 UNK         0.1400 
      6 C6          3.5237  -13.8168  -49.0652 C.3       23 UNK        -0.0398 
      7 S7          2.9727  -15.1525  -50.1846 S.3       23 UNK        -0.2404 
      8 C8          2.7636  -16.4920  -48.9718 C.3       23 UNK        -0.0205 
      9 C9          1.9952  -17.6843  -49.5192 C.ar      23 UNK        -0.0193 
     10 C10         0.6629  -17.5378  -49.9135 C.ar      23 UNK        -0.1150 
     11 C11        -0.1073  -18.6519  -50.2566 C.ar      23 UNK        -0.0193 
     12 C12         0.4769  -19.9225  -50.2178 C.ar      23 UNK        -0.1150 
     13 C13         1.8189  -20.0810  -49.8608 C.ar      23 UNK        -0.0193 
     14 C14         2.5774  -18.9543  -49.5270 C.ar      23 UNK        -0.1150 
     15 C15         2.4216  -21.4792  -49.7792 C.3       23 UNK        -0.0205 
     16 S16         3.1988  -21.8477  -48.1657 S.3       23 UNK        -0.2404 
     17 C17         1.9216  -21.3302  -46.9644 C.3       23 UNK        -0.0398 
     18 CA          1.0721  -22.4857  -46.3926 C.3       11 UNK         0.1400 
     19 N           0.3083  -22.0405  -45.2270 N.am      11 UNK        -0.5000 
     20 C          -0.3988  -22.8321  -44.4112 C.2       10 UNK         0.5000 
     21 O          -0.4553  -24.0568  -44.5231 O.2       10 UNK        -0.5000 
     22 CA         -1.2140  -22.1266  -43.3116 C.3       10 UNK         0.1400 
     23 CB         -0.3140  -21.7220  -42.1345 C.3       10 UNK        -0.1800 
     24 N          -1.9284  -20.9494  -43.8105 N.am      10 UNK        -0.5000 
     25 C          -2.9072  -20.9956  -44.7262 C.2       9 UNK         0.5000 
     26 O          -3.3339  -22.0395  -45.2190 O.2       9 UNK        -0.5000 
     27 CA         -3.4801  -19.6503  -45.2044 C.3       9 UNK         0.1400 
     28 CB         -4.4893  -19.0940  -44.1896 C.3       9 UNK        -0.1800 
     29 N          -2.4442  -18.6523  -45.4677 N.am      9 UNK        -0.5000 
     30 C          -1.4902  -18.7771  -46.4006 C.2       8 UNK         0.5000 
     31 O          -1.3947  -19.7423  -47.1551 O.2       8 UNK        -0.5000 
     32 CA         -0.4317  -17.6639  -46.4674 C.3       8 UNK         0.1400 
     33 CB         -0.9943  -16.4159  -47.1600 C.3       8 UNK        -0.1800 
     34 N           0.0941  -17.3020  -45.1517 N.am      8 UNK        -0.5000 
     35 C           0.7240  -18.1511  -44.3266 C.2       7 UNK         0.5000 
     36 O           0.9656  -19.3256  -44.6004 O.2       7 UNK        -0.5000 
     37 CA          1.1070  -17.6096  -42.9422 C.3       7 UNK         0.1400 
     38 CB          2.4074  -16.8021  -43.0203 C.3       7 UNK        -0.1800 
     39 N           0.0454  -16.7812  -42.3753 N.am      7 UNK        -0.5000 
     40 C          -1.1336  -17.2584  -41.9525 C.2       6 UNK         0.5000 
     41 O          -1.4346  -18.4531  -41.9603 O.2       6 UNK        -0.5000 
     42 CA         -2.1634  -16.2127  -41.4890 C.3       6 UNK         0.1400 
     43 CB         -1.8551  -15.7367  -40.0614 C.3       6 UNK        -0.1800 
     44 N          -2.2286  -15.0564  -42.3856 N.am      6 UNK        -0.5000 
     45 C          -2.6442  -15.1152  -43.6582 C.2       5 UNK         0.5000 
     46 O          -3.0277  -16.1490  -44.2028 O.2       5 UNK        -0.5000 
     47 CA         -2.6071  -13.8103  -44.4718 C.3       5 UNK         0.1400 
     48 CB         -3.9367  -13.0549  -44.3309 C.3       5 UNK        -0.1800 
     49 N          -1.5049  -12.9108  -44.1266 N.am      5 UNK        -0.5000 
     50 C          -0.1977  -13.1891  -44.2303 C.2       4 UNK         0.5000 
     51 O           0.2452  -14.2934  -44.5606 O.2       4 UNK        -0.5000 
     52 CA          0.7408  -12.0007  -43.9457 C.3       4 UNK         0.1400 
     53 CB          0.5477  -11.4228  -42.5262 C.3       4 UNK        -0.1800 
     54 N           2.1491  -12.2796  -44.2416 N.am      4 UNK        -0.5000 
     55 C           3.0480  -12.9624  -43.5155 C.2       3 UNK         0.5000 
     56 O           2.8010  -13.4785  -42.4251 O.2       3 UNK        -0.5000 
     57 CA          4.4807  -13.0876  -44.0888 C.3       3 UNK         0.1400 
     58 CB          4.8371  -14.5576  -44.3629 C.3       3 UNK        -0.1800 
     59 N           4.6988  -12.3277  -45.3220 N.am      3 UNK        -0.5000 
     60 C           4.8486  -10.9985  -45.4136 C.2       2 UNK         0.5000 
     61 O           4.9232  -10.2513  -44.4381 O.2       2 UNK        -0.5000 
     62 CA          4.8805  -10.4003  -46.8397 C.3       2 UNK         0.1400 
     63 CB          6.3269  -10.1045  -47.2648 C.3       2 UNK        -0.1800 
     64 N           4.2464  -11.2464  -47.8627 N.am      2 UNK        -0.5000 
     65 C           2.9596  -11.6274  -47.8555 C.2       1 UNK         0.5000 
     66 O           2.1641  -11.2492  -46.9907 O.2       1 UNK        -0.5000 
     67 C           0.1580  -23.1219  -47.4595 C.2       11 UNK         0.5000 
     68 O           0.4652  -24.2109  -47.9436 O.2       11 UNK        -0.5000 
     69 N          -0.9688  -22.4652  -47.7715 N.am      12 UNK        -0.5000 
     70 CA         -1.9903  -22.9645  -48.6905 C.3       12 UNK         0.1400 
     71 CB         -3.0681  -21.8955  -48.9073 C.3       12 UNK        -0.1800 
     72 C          -2.6173  -24.2844  -48.2150 C.2       12 UNK         0.5000 
     73 O          -2.7399  -25.2092  -49.0153 O.2       12 UNK        -0.5000 
     74 N          -2.9468  -24.3747  -46.9183 N.am      13 UNK        -0.5000 
     75 CA         -3.4633  -25.5868  -46.2812 C.3       13 UNK         0.1400 
     76 CB         -3.8778  -25.2794  -44.8346 C.3       13 UNK        -0.1800 
     77 C          -2.4681  -26.7612  -46.3309 C.2       13 UNK         0.5000 
     78 O          -2.8757  -27.8827  -46.6343 O.2       13 UNK        -0.5000 
     79 N          -1.1817  -26.4794  -46.0781 N.am      14 UNK        -0.5000 
     80 CA         -0.0852  -27.4459  -46.1757 C.3       14 UNK         0.1400 
     81 CB          1.1895  -26.8382  -45.5709 C.3       14 UNK        -0.1800 
     82 C           0.1667  -27.9247  -47.6191 C.2       14 UNK         0.5000 
     83 O           0.4228  -29.1106  -47.8306 O.2       14 UNK        -0.5000 
     84 N           0.0647  -27.0026  -48.5854 N.am      15 UNK        -0.5000 
     85 CA          0.1903  -27.2677  -50.0206 C.3       15 UNK         0.1400 
     86 CB          0.4588  -25.9375  -50.7439 C.3       15 UNK        -0.1800 
     87 C          -1.0412  -27.9659  -50.6351 C.2       15 UNK         0.5000 
     88 O          -0.9430  -28.4699  -51.7547 O.2       15 UNK        -0.5000 
     89 N          -2.1710  -27.9593  -49.9120 N.am      16 UNK        -0.5000 
     90 CA         -3.5097  -28.3885  -50.3311 C.3       16 UNK         0.1400 
     91 CB         -3.5499  -29.9046  -50.6153 C.3       16 UNK        -0.1800 
     92 C          -4.0592  -27.5276  -51.4905 C.2       16 UNK         0.5000 
     93 O          -4.6747  -28.0497  -52.4223 O.2       16 UNK        -0.5000 
     94 N          -3.8120  -26.2167  -51.4040 N.am      17 UNK        -0.5000 
     95 CA         -4.2398  -25.1889  -52.3458 C.3       17 UNK         0.1400 
     96 CB         -3.0092  -24.3457  -52.7222 C.3       17 UNK        -0.1800 
     97 C          -5.3113  -24.2963  -51.6990 C.2       17 UNK         0.5000 
     98 O          -5.4502  -24.2745  -50.4734 O.2       17 UNK        -0.5000 
     99 N          -6.0345  -23.5442  -52.5354 N.am      18 UNK        -0.5000 
    100 CA        -6.9462  -22.4915  -52.0967 C.3       18 UNK         0.1400 
    101 CB        -7.9934  -22.2352  -53.1924 C.3       18 UNK        -0.1800 
    102 C         -6.1420  -21.2151  -51.8071 C.2       18 UNK         0.5000 
    103 O         -5.4420  -20.7317  -52.6992 O.2       18 UNK        -0.5000 
    104 N         -6.2751  -20.6707  -50.5901 N.am      19 UNK        -0.5000 
    105 CA        -5.5750  -19.4594  -50.1446 C.3       19 UNK         0.1400 
    106 CB        -5.8656  -19.2190  -48.6557 C.3       19 UNK        -0.1800 
    107 C         -5.9181  -18.2093  -50.9784 C.2       19 UNK         0.5000 
    108 O         -5.0637  -17.3443  -51.1689 O.2       19 UNK        -0.5000 
    109 N         -7.1517  -18.1625  -51.4983 N.am      20 UNK        -0.5000 
    110 CA        -7.6498  -17.1125  -52.3851 C.3       20 UNK         0.1400 
    111 CB        -9.1761  -17.2479  -52.4996 C.3       20 UNK        -0.1800 
    112 C         -7.0038  -17.1191  -53.7857 C.2       20 UNK         0.5000 
    113 O         -7.0284  -16.0844  -54.4533 O.2       20 UNK        -0.5000 
    114 N         -6.4531  -18.2644  -54.2175 N.am      21 UNK        -0.5000 
    115 CA        -5.7811  -18.4025  -55.5096 C.3       21 UNK         0.1400 
    116 CB        -5.7884  -19.8744  -55.9526 C.3       21 UNK        -0.1800 
    117 C         -4.3495  -17.8444  -55.4614 C.2       21 UNK         0.5000 
    118 O         -3.9582  -17.1025  -56.3637 O.2       21 UNK        -0.5000 
    119 N         -3.6008  -18.2040  -54.4112 N.am      22 UNK        -0.5000 
    120 CA        -2.2357  -17.7143  -54.1601 C.3       22 UNK         0.1400 
    121 C         -2.1713  -16.3002  -53.5167 C.2       22 UNK         0.5000 
    122 N         -3.1687  -15.8637  -52.7577 N.am      22 UNK        -0.7600 
    123 O         -1.2030  -15.5757  -53.7280 O.2       22 UNK        -0.5000 
    124 C124       -1.3638  -18.7447  -53.3942 C.3       23 UNK        -0.0398 
    125 S125       -2.1819  -19.5102  -51.9533 S.3       23 UNK        -0.2404 
    126 C126       -1.5862  -18.4698  -50.5804 C.3       23 UNK        -0.0205 
    127 H127       -2.0740  -12.3308  -48.5754 H         1 UNK         0.0600 
    128 H128       -1.1835  -13.4070  -47.5026 H         1 UNK         0.0600 
    129 H129       -1.5824  -13.9294  -49.1479 H         1 UNK         0.0600 
    130 H130        1.0862  -13.8868  -48.0125 H         1 UNK         0.3000 
    131 H131        2.5094  -12.1075  -49.8917 H         1 UNK         0.0600 
    132 H132        4.4767  -13.4568  -49.4555 H         1 UNK         0.0800 
    133 H133        3.7459  -14.2389  -48.0835 H         1 UNK         0.0800 
    134 H134        3.7478  -16.7974  -48.6130 H         1 UNK         0.0800 
    135 H135        2.2235  -16.1154  -48.1021 H         1 UNK         0.0800 
    136 H136        0.2143  -16.5545  -49.9054 H         1 UNK         0.1150 
    137 H137       -0.1226  -20.7926  -50.4446 H         1 UNK         0.1150 
    138 H138        3.6050  -19.0779  -49.2153 H         1 UNK         0.1150 
    139 H139        1.6630  -22.2380  -49.9782 H         1 UNK         0.0800 
    140 H140        3.1718  -21.5850  -50.5636 H         1 UNK         0.0800 
    141 H141        1.2804  -20.5482  -47.3702 H         1 UNK         0.0800 
    142 H142        2.4659  -20.8539  -46.1482 H         1 UNK         0.0800 
    143 H143        1.7545  -23.2634  -46.0432 H         1 UNK         0.0600 
    144 H144        0.3285  -21.0414  -45.0368 H         1 UNK         0.3000 
    145 H145       -1.9566  -22.8369  -42.9423 H         1 UNK         0.0600 
    146 H146        0.2157  -22.5866  -41.7327 H         1 UNK         0.0600 
    147 H147        0.4339  -20.9864  -42.4316 H         1 UNK         0.0600 
    148 H148       -0.8994  -21.2917  -41.3217 H         1 UNK         0.0600 
    149 H149       -1.6473  -20.0503  -43.4365 H         1 UNK         0.3000 
    150 H150       -4.0082  -19.8324  -46.1420 H         1 UNK         0.0600 
    151 H151       -5.2723  -19.8225  -43.9758 H         1 UNK         0.0600 
    152 H152       -4.9757  -18.1963  -44.5716 H         1 UNK         0.0600 
    153 H153       -4.0094  -18.8369  -43.2444 H         1 UNK         0.0600 
    154 H154       -2.4825  -17.8018  -44.9110 H         1 UNK         0.3000 
    155 H155        0.4028  -18.0410  -47.0611 H         1 UNK         0.0600 
    156 H156       -0.2184  -15.6650  -47.3023 H         1 UNK         0.0600 
    157 H157       -1.4047  -16.6592  -48.1396 H         1 UNK         0.0600 
    158 H158       -1.7999  -15.9667  -46.5838 H         1 UNK         0.0600 
    159 H159       -0.0331  -16.3407  -44.8537 H         1 UNK         0.3000 
    160 H160        1.2721  -18.4609  -42.2784 H         1 UNK         0.0600 
    161 H161        2.2993  -15.9423  -43.6812 H         1 UNK         0.0600 
    162 H162        3.2249  -17.4127  -43.4057 H         1 UNK         0.0600 
    163 H163        2.7072  -16.4352  -42.0386 H         1 UNK         0.0600 
    164 H164        0.1946  -15.7823  -42.3855 H         1 UNK         0.3000 
    165 H165       -3.1444  -16.6928  -41.4842 H         1 UNK         0.0600 
    166 H166       -2.6274  -15.0593  -39.6967 H         1 UNK         0.0600 
    167 H167       -1.8111  -16.5798  -39.3705 H         1 UNK         0.0600 
    168 H168       -0.8981  -15.2162  -40.0058 H         1 UNK         0.0600 
    169 H169       -1.9266  -14.1672  -42.0160 H         1 UNK         0.3000 
    170 H170       -2.4895  -14.0802  -45.5213 H         1 UNK         0.0600 
    171 H171       -4.7790  -13.6920  -44.6045 H         1 UNK         0.0600 
    172 H172       -4.1010  -12.7153  -43.3075 H         1 UNK         0.0600 
    173 H173       -3.9669  -12.1827  -44.9842 H         1 UNK         0.0600 
    174 H174       -1.7744  -11.9781  -43.8496 H         1 UNK         0.3000 
    175 H175        0.4604  -11.2198  -44.6541 H         1 UNK         0.0600 
    176 H176        0.6501  -12.1874  -41.7557 H         1 UNK         0.0600 
    177 H177        1.2736  -10.6366  -42.3179 H         1 UNK         0.0600 
    178 H178       -0.4420  -10.9806  -42.4100 H         1 UNK         0.0600 
    179 H179        2.4452  -11.9333  -45.1479 H         1 UNK         0.3000 
    180 H180        5.1653  -12.7088  -43.3272 H         1 UNK         0.0600 
    181 H181        4.1660  -15.0048  -45.0973 H         1 UNK         0.0600 
    182 H182        4.7735  -15.1510  -43.4504 H         1 UNK         0.0600 
    183 H183        5.8569  -14.6544  -44.7361 H         1 UNK         0.0600 
    184 H184        4.6723  -12.8564  -46.1797 H         1 UNK         0.3000 
    185 H185        4.3338   -9.4556  -46.8056 H         1 UNK         0.0600 
    186 H186        6.8216   -9.4533  -46.5427 H         1 UNK         0.0600 
    187 H187        6.9184  -11.0178  -47.3418 H         1 UNK         0.0600 
    188 H188        6.3598   -9.5991  -48.2302 H         1 UNK         0.0600 
    189 H189        4.8524  -11.5680  -48.6037 H         1 UNK         0.3000 
    190 H190       -1.1384  -21.5460  -47.3672 H         1 UNK         0.3000 
    191 H191       -1.5040  -23.1521  -49.6496 H         1 UNK         0.0600 
    192 H192       -2.6323  -20.9818  -49.3057 H         1 UNK         0.0600 
    193 H193       -3.5813  -21.6446  -47.9792 H         1 UNK         0.0600 
    194 H194       -3.8191  -22.2344  -49.6210 H         1 UNK         0.0600 
    195 H195       -2.8531  -23.5534  -46.3269 H         1 UNK         0.3000 
    196 H196       -4.3570  -25.8896  -46.8308 H         1 UNK         0.0600 
    197 H197       -4.2774  -26.1683  -44.3449 H         1 UNK         0.0600 
    198 H198       -4.6533  -24.5140  -44.8021 H         1 UNK         0.0600 
    199 H199       -3.0355  -24.9263  -44.2395 H         1 UNK         0.0600 
    200 H200       -0.9342  -25.5367  -45.7924 H         1 UNK         0.3000 
    201 H201       -0.3572  -28.3201  -45.5805 H         1 UNK         0.0600 
    202 H202        1.0389  -26.5675  -44.5257 H         1 UNK         0.0600 
    203 H203        1.5022  -25.9410  -46.1056 H         1 UNK         0.0600 
    204 H204        2.0166  -27.5481  -45.6078 H         1 UNK         0.0600 
    205 H205       -0.0760  -26.0318  -48.3177 H         1 UNK         0.3000 
    206 H206        1.0506  -27.9215  -50.1772 H         1 UNK         0.0600 
    207 H207        1.3596  -25.4553  -50.3636 H         1 UNK         0.0600 
    208 H208        0.6003  -26.0927  -51.8141 H         1 UNK         0.0600 
    209 H209       -0.3710  -25.2406  -50.6207 H         1 UNK         0.0600 
    210 H210       -2.1380  -27.4701  -49.0267 H         1 UNK         0.3000 
    211 H211       -4.1638  -28.1987  -49.4788 H         1 UNK         0.0600 
    212 H212       -2.9726  -30.1697  -51.5012 H         1 UNK         0.0600 
    213 H213       -4.5736  -30.2417  -50.7815 H         1 UNK         0.0600 
    214 H214       -3.1542  -30.4729  -49.7736 H         1 UNK         0.0600 
    215 H215       -3.3794  -25.8660  -50.5496 H         1 UNK         0.3000 
    216 H216       -4.6557  -25.6402  -53.2488 H         1 UNK         0.0600 
    217 H217       -2.2307  -24.9642  -53.1693 H         1 UNK         0.0600 
    218 H218       -2.5805  -23.8493  -51.8506 H         1 UNK         0.0600 
    219 H219       -3.2658  -23.5714  -53.4464 H         1 UNK         0.0600 
    220 H220       -5.8350  -23.5760  -53.5247 H         1 UNK         0.3000 
    221 H221       -7.4694  -22.8091  -51.1920 H         1 UNK         0.0600 
    222 H222       -7.5316  -21.9273  -54.1313 H         1 UNK         0.0600 
    223 H223       -8.5839  -23.1302  -53.3885 H         1 UNK         0.0600 
    224 H224       -8.6863  -21.4475  -52.8939 H         1 UNK         0.0600 
    225 H225       -6.8657  -21.1266  -49.9095 H         1 UNK         0.3000 
    226 H226       -4.5060  -19.6402  -50.2517 H         1 UNK         0.0600 
    227 H227       -5.5797  -20.0812  -48.0537 H         1 UNK         0.0600 
    228 H228       -5.3025  -18.3623  -48.2824 H         1 UNK         0.0600 
    229 H229       -6.9234  -19.0215  -48.4781 H         1 UNK         0.0600 
    230 H230       -7.7857  -18.9197  -51.2914 H         1 UNK         0.3000 
    231 H231       -7.4252  -16.1471  -51.9265 H         1 UNK         0.0600 
    232 H232       -9.5927  -16.4608  -53.1295 H         1 UNK         0.0600 
    233 H233       -9.6544  -17.1670  -51.5233 H         1 UNK         0.0600 
    234 H234       -9.4632  -18.2049  -52.9374 H         1 UNK         0.0600 
    235 H235       -6.4140  -19.0648  -53.5983 H         1 UNK         0.3000 
    236 H236       -6.3382  -17.8338  -56.2575 H         1 UNK         0.0600 
    237 H237       -6.8035  -20.2695  -55.9923 H         1 UNK         0.0600 
    238 H238       -5.3598  -19.9793  -56.9500 H         1 UNK         0.0600 
    239 H239       -5.2068  -20.5075  -55.2827 H         1 UNK         0.0600 
    240 H240       -3.9892  -18.8189  -53.7083 H         1 UNK         0.3000 
    241 H241       -1.7555  -17.5969  -55.1340 H         1 UNK         0.0600 
    242 H242       -3.9230  -16.4785  -52.4681 H         1 UNK         0.3800 
    243 H243       -3.1145  -14.9376  -52.3671 H         1 UNK         0.3800 
    244 H244       -1.1097  -19.5588  -54.0739 H         1 UNK         0.0800 
    245 H245       -0.4064  -18.3134  -53.0959 H         1 UNK         0.0800 
    246 H246       -1.8060  -17.4262  -50.8057 H         1 UNK         0.0800 
    247 H247       -2.1615  -18.7096  -49.6863 H         1 UNK         0.0800 
@<TRIPOS>BOND
     1    1    2 1    
     2    1  127 1    
     3    1  128 1    
     4    1  129 1    
     5    2    3 2    
     6    2    4 am   BACKBONE|DICT|INTERRES
     7    4    5 1    
     8    4  130 1    
     9    5    6 1    
    10    5   65 1    
    11    5  131 1    
    12    6    7 1    
    13    6  132 1    
    14    6  133 1    
    15    7    8 1    
    16    8    9 1    
    17    8  134 1    
    18    8  135 1    
    19    9   10 ar   
    20    9   14 ar   
    21   10   11 ar   
    22   10  136 1    
    23   11   12 ar   
    24   11  126 1    
    25   12   13 ar   
    26   12  137 1    
    27   13   14 ar   
    28   13   15 1    
    29   14  138 1    
    30   15   16 1    
    31   15  139 1    
    32   15  140 1    
    33   16   17 1    
    34   17   18 1    
    35   17  141 1    
    36   17  142 1    
    37   18   19 1    
    38   18   67 1    
    39   18  143 1    
    40   19   20 am   BACKBONE|DICT|INTERRES
    41   19  144 1    
    42   20   21 2    
    43   20   22 1    
    44   22   23 1    
    45   22   24 1    
    46   22  145 1    
    47   23  146 1    
    48   23  147 1    
    49   23  148 1    
    50   24   25 am   BACKBONE|DICT|INTERRES
    51   24  149 1    
    52   25   26 2    
    53   25   27 1    
    54   27   28 1    
    55   27   29 1    
    56   27  150 1    
    57   28  151 1    
    58   28  152 1    
    59   28  153 1    
    60   29   30 am   BACKBONE|DICT|INTERRES
    61   29  154 1    
    62   30   31 2    
    63   30   32 1    
    64   32   33 1    
    65   32   34 1    
    66   32  155 1    
    67   33  156 1    
    68   33  157 1    
    69   33  158 1    
    70   34   35 am   BACKBONE|DICT|INTERRES
    71   34  159 1    
    72   35   36 2    
    73   35   37 1    
    74   37   38 1    
    75   37   39 1    
    76   37  160 1    
    77   38  161 1    
    78   38  162 1    
    79   38  163 1    
    80   39   40 am   BACKBONE|DICT|INTERRES
    81   39  164 1    
    82   40   41 2    
    83   40   42 1    
    84   42   43 1    
    85   42   44 1    
    86   42  165 1    
    87   43  166 1    
    88   43  167 1    
    89   43  168 1    
    90   44   45 am   BACKBONE|DICT|INTERRES
    91   44  169 1    
    92   45   46 2    
    93   45   47 1    
    94   47   48 1    
    95   47   49 1    
    96   47  170 1    
    97   48  171 1    
    98   48  172 1    
    99   48  173 1    
   100   49   50 am   BACKBONE|DICT|INTERRES
   101   49  174 1    
   102   50   51 2    
   103   50   52 1    
   104   52   53 1    
   105   52   54 1    
   106   52  175 1    
   107   53  176 1    
   108   53  177 1    
   109   53  178 1    
   110   54   55 am   BACKBONE|DICT|INTERRES
   111   54  179 1    
   112   55   56 2    
   113   55   57 1    
   114   57   58 1    
   115   57   59 1    
   116   57  180 1    
   117   58  181 1    
   118   58  182 1    
   119   58  183 1    
   120   59   60 am   BACKBONE|DICT|INTERRES
   121   59  184 1    
   122   60   61 2    
   123   60   62 1    
   124   62   63 1    
   125   62   64 1    
   126   62  185 1    
   127   63  186 1    
   128   63  187 1    
   129   63  188 1    
   130   64   65 am   BACKBONE|DICT|INTERRES
   131   64  189 1    
   132   65   66 2    
   133   67   68 2    
   134   67   69 am   BACKBONE|DICT|INTERRES
   135   69   70 1    
   136   69  190 1    
   137   70   71 1    
   138   70   72 1    
   139   70  191 1    
   140   71  192 1    
   141   71  193 1    
   142   71  194 1    
   143   72   73 2    
   144   72   74 am   BACKBONE|DICT|INTERRES
   145   74   75 1    
   146   74  195 1    
   147   75   76 1    
   148   75   77 1    
   149   75  196 1    
   150   76  197 1    
   151   76  198 1    
   152   76  199 1    
   153   77   78 2    
   154   77   79 am   BACKBONE|DICT|INTERRES
   155   79   80 1    
   156   79  200 1    
   157   80   81 1    
   158   80   82 1    
   159   80  201 1    
   160   81  202 1    
   161   81  203 1    
   162   81  204 1    
   163   82   83 2    
   164   82   84 am   BACKBONE|DICT|INTERRES
   165   84   85 1    
   166   84  205 1    
   167   85   86 1    
   168   85   87 1    
   169   85  206 1    
   170   86  207 1    
   171   86  208 1    
   172   86  209 1    
   173   87   88 2    
   174   87   89 am   BACKBONE|DICT|INTERRES
   175   89   90 1    
   176   89  210 1    
   177   90   91 1    
   178   90   92 1    
   179   90  211 1    
   180   91  212 1    
   181   91  213 1    
   182   91  214 1    
   183   92   93 2    
   184   92   94 am   BACKBONE|DICT|INTERRES
   185   94   95 1    
   186   94  215 1    
   187   95   96 1    
   188   95   97 1    
   189   95  216 1    
   190   96  217 1    
   191   96  218 1    
   192   96  219 1    
   193   97   98 2    
   194   97   99 am   BACKBONE|DICT|INTERRES
   195   99  100 1    
   196   99  220 1    
   197  100  101 1    
   198  100  102 1    
   199  100  221 1    
   200  101  222 1    
   201  101  223 1    
   202  101  224 1    
   203  102  103 2    
   204  102  104 am   BACKBONE|DICT|INTERRES
   205  104  105 1    
   206  104  225 1    
   207  105  106 1    
   208  105  107 1    
   209  105  226 1    
   210  106  227 1    
   211  106  228 1    
   212  106  229 1    
   213  107  108 2    
   214  107  109 am   BACKBONE|DICT|INTERRES
   215  109  110 1    
   216  109  230 1    
   217  110  111 1    
   218  110  112 1    
   219  110  231 1    
   220  111  232 1    
   221  111  233 1    
   222  111  234 1    
   223  112  113 2    
   224  112  114 am   BACKBONE|DICT|INTERRES
   225  114  115 1    
   226  114  235 1    
   227  115  116 1    
   228  115  117 1    
   229  115  236 1    
   230  116  237 1    
   231  116  238 1    
   232  116  239 1    
   233  117  118 2    
   234  117  119 am   BACKBONE|DICT|INTERRES
   235  119  120 1    
   236  119  240 1    
   237  120  121 1    
   238  120  124 1    
   239  120  241 1    
   240  121  122 am   BACKBONE|DICT|INTERRES
   241  121  123 2    
   242  122  242 1    
   243  122  243 1    
   244  124  125 1    
   245  124  244 1    
   246  124  245 1    
   247  125  126 1    
   248  126  246 1    
   249  126  247 1    
@<TRIPOS>SUBSTRUCTURE
     1 UNK         1 GROUP             0       ****    0 ROOT    
