@<TRIPOS>MOLECULE
3R540
247   249    1
SMALL
USER_CHARGES


@<TRIPOS>ATOM
      1 CA         -3.8196  -11.8072  -46.1397 C.3       0 UNK        -0.1800 
      2 C          -2.8579  -12.9713  -45.9550 C.2       0 UNK         0.5000 
      3 O          -1.7573  -12.9445  -46.5006 O.2       0 UNK        -0.5000 
      4 N          -3.2577  -13.9810  -45.1720 N.am      1 UNK        -0.5000 
      5 CA         -2.5026  -15.2081  -44.8787 C.3       1 UNK         0.1400 
      6 C6         -3.3586  -16.1424  -43.9833 C.3       23 UNK        -0.0398 
      7 S7         -2.6166  -17.7559  -43.5679 S.3       23 UNK        -0.2404 
      8 C8         -3.2780  -18.8265  -44.8864 C.3       23 UNK        -0.0205 
      9 C9         -2.6218  -18.5867  -46.2413 C.ar      23 UNK        -0.0193 
     10 C10        -3.4048  -18.4602  -47.3929 C.ar      23 UNK        -0.1150 
     11 C11        -2.8093  -18.2488  -48.6418 C.ar      23 UNK        -0.0193 
     12 C12        -1.4169  -18.1614  -48.7286 C.ar      23 UNK        -0.1150 
     13 C13        -0.6227  -18.2897  -47.5877 C.ar      23 UNK        -0.0193 
     14 C14        -1.2309  -18.5052  -46.3498 C.ar      23 UNK        -0.1150 
     15 C15         0.8868  -18.1504  -47.6918 C.3       23 UNK        -0.0205 
     16 S16         1.7194  -19.7512  -47.9087 S.3       23 UNK        -0.2404 
     17 C17         1.8454  -20.3327  -46.1860 C.3       23 UNK        -0.0398 
     18 CA          1.4862  -21.8246  -46.0146 C.3       11 UNK         0.1400 
     19 N           2.0717  -22.3491  -44.7778 N.am      11 UNK        -0.5000 
     20 C           2.1261  -23.6389  -44.4203 C.2       10 UNK         0.5000 
     21 O           1.6687  -24.5577  -45.0992 O.2       10 UNK        -0.5000 
     22 CA          2.7647  -23.9370  -43.0546 C.3       10 UNK         0.1400 
     23 CB          4.2980  -23.8906  -43.1442 C.3       10 UNK        -0.1800 
     24 N           2.3018  -22.9809  -42.0486 N.am      10 UNK        -0.5000 
     25 C           1.1476  -23.0998  -41.3777 C.2       9 UNK         0.5000 
     26 O           0.4019  -24.0748  -41.4710 O.2       9 UNK        -0.5000 
     27 CA          0.7469  -21.9329  -40.4535 C.3       9 UNK         0.1400 
     28 CB          1.2461  -22.1849  -39.0229 C.3       9 UNK        -0.1800 
     29 N           1.2338  -20.6281  -40.9060 N.am      9 UNK        -0.5000 
     30 C           0.8255  -20.0047  -42.0202 C.2       8 UNK         0.5000 
     31 O           0.0053  -20.4740  -42.8054 O.2       8 UNK        -0.5000 
     32 CA          1.4922  -18.6554  -42.3385 C.3       8 UNK         0.1400 
     33 CB          0.8072  -17.5185  -41.5683 C.3       8 UNK        -0.1800 
     34 N           2.9266  -18.6231  -42.0480 N.am      8 UNK        -0.5000 
     35 C           3.8539  -19.4539  -42.5401 C.2       7 UNK         0.5000 
     36 O           3.5864  -20.4278  -43.2469 O.2       7 UNK        -0.5000 
     37 CA          5.3193  -19.1132  -42.1981 C.3       7 UNK         0.1400 
     38 CB          6.3203  -20.0580  -42.8866 C.3       7 UNK        -0.1800 
     39 N           5.6339  -17.7349  -42.5777 N.am      7 UNK        -0.5000 
     40 C           5.3551  -16.6389  -41.8574 C.2       6 UNK         0.5000 
     41 O           4.8539  -16.6729  -40.7331 O.2       6 UNK        -0.5000 
     42 CA          5.6209  -15.2828  -42.5389 C.3       6 UNK         0.1400 
     43 CB          7.0677  -14.8270  -42.2967 C.3       6 UNK        -0.1800 
     44 N           5.3599  -15.3337  -43.9804 N.am      6 UNK        -0.5000 
     45 C           4.1373  -15.4494  -44.5153 C.2       5 UNK         0.5000 
     46 O           3.0945  -15.4424  -43.8593 O.2       5 UNK        -0.5000 
     47 CA          4.0782  -15.6725  -46.0293 C.3       5 UNK         0.1400 
     48 CB          4.1193  -17.1793  -46.3428 C.3       5 UNK        -0.1800 
     49 N           2.8602  -15.0633  -46.5559 N.am      5 UNK        -0.5000 
     50 C           2.6912  -14.6769  -47.8267 C.2       4 UNK         0.5000 
     51 O           3.5006  -14.9149  -48.7242 O.2       4 UNK        -0.5000 
     52 CA          1.4350  -13.8472  -48.1556 C.3       4 UNK         0.1400 
     53 CB          0.2470  -14.7478  -48.5235 C.3       4 UNK        -0.1800 
     54 N           1.0320  -12.9472  -47.0774 N.am      4 UNK        -0.5000 
     55 C           1.7318  -11.8899  -46.6423 C.2       3 UNK         0.5000 
     56 O           2.8228  -11.5507  -47.1017 O.2       3 UNK        -0.5000 
     57 CA          1.1067  -11.0793  -45.4945 C.3       3 UNK         0.1400 
     58 CB          0.1185  -10.0336  -46.0353 C.3       3 UNK        -0.1800 
     59 N           0.4219  -11.9550  -44.5436 N.am      3 UNK        -0.5000 
     60 C           1.0286  -12.5635  -43.5156 C.2       2 UNK         0.5000 
     61 O           2.2047  -12.3636  -43.2101 O.2       2 UNK        -0.5000 
     62 CA          0.1895  -13.5427  -42.6705 C.3       2 UNK         0.1400 
     63 CB         -0.1728  -12.9140  -41.3161 C.3       2 UNK        -0.1800 
     64 N          -1.0430  -13.9858  -43.3269 N.am      2 UNK        -0.5000 
     65 C          -1.1006  -14.9182  -44.2889 C.2       1 UNK         0.5000 
     66 O          -0.1110  -15.4895  -44.7476 O.2       1 UNK        -0.5000 
     67 C          -0.0327  -22.1021  -46.1277 C.2       11 UNK         0.5000 
     68 O          -0.5367  -22.2916  -47.2345 O.2       11 UNK        -0.5000 
     69 N          -0.7193  -22.2302  -44.9823 N.am      12 UNK        -0.5000 
     70 CA         -2.1145  -22.6604  -44.8473 C.3       12 UNK         0.1400 
     71 CB         -2.5250  -22.5766  -43.3684 C.3       12 UNK        -0.1800 
     72 C          -2.4379  -24.0582  -45.4201 C.2       12 UNK         0.5000 
     73 O          -3.6172  -24.3839  -45.5568 O.2       12 UNK        -0.5000 
     74 N          -1.4144  -24.8477  -45.7823 N.am      13 UNK        -0.5000 
     75 CA         -1.5481  -26.0654  -46.5854 C.3       13 UNK         0.1400 
     76 CB         -0.1892  -26.7770  -46.6559 C.3       13 UNK        -0.1800 
     77 C          -2.0949  -25.8018  -48.0066 C.2       13 UNK         0.5000 
     78 O          -2.6893  -26.7073  -48.5930 O.2       13 UNK        -0.5000 
     79 N          -1.9051  -24.5779  -48.5251 N.am      14 UNK        -0.5000 
     80 CA         -2.5741  -24.0686  -49.7183 C.3       14 UNK         0.1400 
     81 CB         -1.7121  -22.9680  -50.3656 C.3       14 UNK        -0.1800 
     82 C          -3.9853  -23.5842  -49.3356 C.2       14 UNK         0.5000 
     83 O          -4.9196  -24.3861  -49.3445 O.2       14 UNK        -0.5000 
     84 N          -4.1055  -22.2896  -48.9996 N.am      15 UNK        -0.5000 
     85 CA         -5.3245  -21.5919  -48.5695 C.3       15 UNK         0.1400 
     86 CB         -5.7174  -22.0249  -47.1429 C.3       15 UNK        -0.1800 
     87 C          -6.4895  -21.6938  -49.5796 C.2       15 UNK         0.5000 
     88 O          -7.6478  -21.8379  -49.1835 O.2       15 UNK        -0.5000 
     89 N          -6.1554  -21.6144  -50.8724 N.am      16 UNK        -0.5000 
     90 CA         -7.0850  -21.7146  -51.9912 C.3       16 UNK         0.1400 
     91 CB         -7.3127  -23.1906  -52.3685 C.3       16 UNK        -0.1800 
     92 C          -6.5488  -20.8619  -53.1471 C.2       16 UNK         0.5000 
     93 O          -6.1687  -21.3862  -54.1964 O.2       16 UNK        -0.5000 
     94 N          -6.5091  -19.5419  -52.9247 N.am      17 UNK        -0.5000 
     95 CA         -6.0547  -18.5415  -53.8953 C.3       17 UNK         0.1400 
     96 CB         -6.0107  -17.1628  -53.2212 C.3       17 UNK        -0.1800 
     97 C          -6.9124  -18.4980  -55.1752 C.2       17 UNK         0.5000 
     98 O          -6.3799  -18.2268  -56.2505 O.2       17 UNK        -0.5000 
     99 N          -8.2049  -18.8335  -55.0512 N.am      18 UNK        -0.5000 
    100 CA        -9.1470  -18.9867  -56.1642 C.3       18 UNK         0.1400 
    101 CB       -10.5673  -19.1338  -55.5977 C.3       18 UNK        -0.1800 
    102 C         -8.8125  -20.1729  -57.0936 C.2       18 UNK         0.5000 
    103 O         -9.1589  -20.1315  -58.2743 O.2       18 UNK        -0.5000 
    104 N         -8.1273  -21.1908  -56.5542 N.am      19 UNK        -0.5000 
    105 CA        -7.6011  -22.3420  -57.2913 C.3       19 UNK         0.1400 
    106 CB        -7.7468  -23.5943  -56.4096 C.3       19 UNK        -0.1800 
    107 C         -6.1287  -22.1375  -57.7070 C.2       19 UNK         0.5000 
    108 O         -5.5388  -23.0460  -58.2926 O.2       19 UNK        -0.5000 
    109 N         -5.5574  -20.9679  -57.3769 N.am      20 UNK        -0.5000 
    110 CA        -4.1656  -20.5502  -57.5702 C.3       20 UNK         0.1400 
    111 CB        -3.8024  -20.4975  -59.0687 C.3       20 UNK        -0.1800 
    112 C         -3.1465  -21.3577  -56.7379 C.2       20 UNK         0.5000 
    113 O         -1.9518  -21.3134  -57.0380 O.2       20 UNK        -0.5000 
    114 N         -3.6090  -22.0486  -55.6832 N.am      21 UNK        -0.5000 
    115 CA        -2.7733  -22.8681  -54.7982 C.3       21 UNK         0.1400 
    116 CB        -3.6717  -23.6823  -53.8556 C.3       21 UNK        -0.1800 
    117 C         -1.7750  -22.0291  -53.9815 C.2       21 UNK         0.5000 
    118 O         -0.6729  -22.4947  -53.6926 O.2       21 UNK        -0.5000 
    119 N         -2.1871  -20.8018  -53.6444 N.am      22 UNK        -0.5000 
    120 CA        -1.3832  -19.7895  -52.9448 C.3       22 UNK         0.1400 
    121 C         -0.2915  -19.1132  -53.8300 C.2       22 UNK         0.5000 
    122 N         -0.2025  -19.3908  -55.1266 N.am      22 UNK        -0.7600 
    123 O          0.4983  -18.3193  -53.3271 O.2       22 UNK        -0.5000 
    124 C124       -2.2899  -18.7258  -52.2740 C.3       23 UNK        -0.0398 
    125 S125       -3.4590  -19.4506  -51.0704 S.3       23 UNK        -0.2404 
    126 C126       -3.6722  -18.0820  -49.8862 C.3       23 UNK        -0.0205 
    127 H127       -4.7508  -11.9584  -45.5932 H         1 UNK         0.0600 
    128 H128       -3.3617  -10.8839  -45.7849 H         1 UNK         0.0600 
    129 H129       -4.0598  -11.6855  -47.1958 H         1 UNK         0.0600 
    130 H130       -4.1748  -13.9267  -44.7523 H         1 UNK         0.3000 
    131 H131       -2.3438  -15.7113  -45.8346 H         1 UNK         0.0600 
    132 H132       -4.3229  -16.3232  -44.4601 H         1 UNK         0.0800 
    133 H133       -3.5884  -15.6431  -43.0405 H         1 UNK         0.0800 
    134 H134       -3.1022  -19.8605  -44.5978 H         1 UNK         0.0800 
    135 H135       -4.3605  -18.7047  -44.9446 H         1 UNK         0.0800 
    136 H136       -4.4810  -18.5181  -47.3142 H         1 UNK         0.1150 
    137 H137       -0.9440  -17.9854  -49.6824 H         1 UNK         0.1150 
    138 H138       -0.6266  -18.5876  -45.4589 H         1 UNK         0.1150 
    139 H139        1.2709  -17.6307  -46.8138 H         1 UNK         0.0800 
    140 H140        1.1445  -17.5255  -48.5465 H         1 UNK         0.0800 
    141 H141        1.2566  -19.7142  -45.5113 H         1 UNK         0.0800 
    142 H142        2.8841  -20.1719  -45.8938 H         1 UNK         0.0800 
    143 H143        1.9622  -22.3763  -46.8282 H         1 UNK         0.0600 
    144 H144        2.5057  -21.6638  -44.1646 H         1 UNK         0.3000 
    145 H145        2.4759  -24.9474  -42.7571 H         1 UNK         0.0600 
    146 H146        4.7559  -24.1176  -42.1813 H         1 UNK         0.0600 
    147 H147        4.6668  -24.6252  -43.8611 H         1 UNK         0.0600 
    148 H148        4.6585  -22.9129  -43.4644 H         1 UNK         0.0600 
    149 H149        2.8324  -22.1252  -41.9578 H         1 UNK         0.3000 
    150 H150       -0.3444  -21.8934  -40.4327 H         1 UNK         0.0600 
    151 H151        2.3355  -22.2097  -38.9750 H         1 UNK         0.0600 
    152 H152        0.8790  -23.1396  -38.6436 H         1 UNK         0.0600 
    153 H153        0.8964  -21.4100  -38.3404 H         1 UNK         0.0600 
    154 H154        1.9257  -20.1737  -40.3284 H         1 UNK         0.3000 
    155 H155        1.3694  -18.4643  -43.4062 H         1 UNK         0.0600 
    156 H156        1.2394  -16.5557  -41.8365 H         1 UNK         0.0600 
    157 H157        0.9076  -17.6416  -40.4894 H         1 UNK         0.0600 
    158 H158       -0.2571  -17.4721  -41.7977 H         1 UNK         0.0600 
    159 H159        3.2538  -17.8474  -41.4840 H         1 UNK         0.3000 
    160 H160        5.4388  -19.2273  -41.1188 H         1 UNK         0.0600 
    161 H161        6.2333  -20.0165  -43.9732 H         1 UNK         0.0600 
    162 H162        6.1548  -21.0920  -42.5819 H         1 UNK         0.0600 
    163 H163        7.3471  -19.8049  -42.6222 H         1 UNK         0.0600 
    164 H164        6.0114  -17.6064  -43.5043 H         1 UNK         0.3000 
    165 H165        4.9497  -14.5457  -42.0923 H         1 UNK         0.0600 
    166 H166        7.2463  -13.8398  -42.7234 H         1 UNK         0.0600 
    167 H167        7.7887  -15.5184  -42.7345 H         1 UNK         0.0600 
    168 H168        7.2818  -14.7619  -41.2291 H         1 UNK         0.0600 
    169 H169        6.1680  -15.3384  -44.5862 H         1 UNK         0.3000 
    170 H170        4.9405  -15.1831  -46.4874 H         1 UNK         0.0600 
    171 H171        5.0784  -17.6104  -46.0543 H         1 UNK         0.0600 
    172 H172        3.9837  -17.3766  -47.4061 H         1 UNK         0.0600 
    173 H173        3.3468  -17.7202  -45.7962 H         1 UNK         0.0600 
    174 H174        2.1543  -14.8466  -45.8606 H         1 UNK         0.3000 
    175 H175        1.6704  -13.2317  -49.0262 H         1 UNK         0.0600 
    176 H176       -0.0678  -15.3602  -47.6778 H         1 UNK         0.0600 
    177 H177       -0.6120  -14.1556  -48.8394 H         1 UNK         0.0600 
    178 H178        0.4992  -15.4132  -49.3494 H         1 UNK         0.0600 
    179 H179        0.1046  -13.1035  -46.6918 H         1 UNK         0.3000 
    180 H180        1.9101  -10.5430  -44.9847 H         1 UNK         0.0600 
    181 H181       -0.7004  -10.4927  -46.5891 H         1 UNK         0.0600 
    182 H182        0.6202   -9.3401  -46.7113 H         1 UNK         0.0600 
    183 H183       -0.3129   -9.4439  -45.2264 H         1 UNK         0.0600 
    184 H184       -0.5328  -12.2038  -44.7623 H         1 UNK         0.3000 
    185 H185        0.8170  -14.4145  -42.4821 H         1 UNK         0.0600 
    186 H186       -0.6990  -13.6257  -40.6796 H         1 UNK         0.0600 
    187 H187        0.7229  -12.6007  -40.7780 H         1 UNK         0.0600 
    188 H188       -0.8075  -12.0354  -41.4370 H         1 UNK         0.0600 
    189 H189       -1.8995  -13.5421  -43.0289 H         1 UNK         0.3000 
    190 H190       -0.2528  -21.9708  -44.1195 H         1 UNK         0.3000 
    191 H191       -2.7198  -21.9541  -45.4158 H         1 UNK         0.0600 
    192 H192       -3.5684  -22.8635  -43.2319 H         1 UNK         0.0600 
    193 H193       -2.4192  -21.5634  -42.9816 H         1 UNK         0.0600 
    194 H194       -1.9186  -23.2372  -42.7484 H         1 UNK         0.0600 
    195 H195       -0.4686  -24.5303  -45.6055 H         1 UNK         0.3000 
    196 H196       -2.2545  -26.7252  -46.0776 H         1 UNK         0.0600 
    197 H197        0.5616  -26.1587  -47.1497 H         1 UNK         0.0600 
    198 H198        0.1807  -27.0219  -45.6600 H         1 UNK         0.0600 
    199 H199       -0.2649  -27.7111  -47.2138 H         1 UNK         0.0600 
    200 H200       -1.4064  -23.8864  -47.9717 H         1 UNK         0.3000 
    201 H201       -2.6877  -24.8725  -50.4487 H         1 UNK         0.0600 
    202 H202       -1.4492  -22.1724  -49.6688 H         1 UNK         0.0600 
    203 H203       -2.2408  -22.5067  -51.1985 H         1 UNK         0.0600 
    204 H204       -0.7831  -23.3801  -50.7596 H         1 UNK         0.0600 
    205 H205       -3.2730  -21.7174  -49.0373 H         1 UNK         0.3000 
    206 H206       -5.0689  -20.5339  -48.5277 H         1 UNK         0.0600 
    207 H207       -4.8966  -21.8655  -46.4449 H         1 UNK         0.0600 
    208 H208       -6.5672  -21.4491  -46.7749 H         1 UNK         0.0600 
    209 H209       -5.9908  -23.0798  -47.1020 H         1 UNK         0.0600 
    210 H210       -5.1876  -21.4464  -51.1124 H         1 UNK         0.3000 
    211 H211       -8.0482  -21.2856  -51.7070 H         1 UNK         0.0600 
    212 H212       -8.0000  -23.2766  -53.2106 H         1 UNK         0.0600 
    213 H213       -7.7492  -23.7449  -51.5377 H         1 UNK         0.0600 
    214 H214       -6.3850  -23.6893  -52.6458 H         1 UNK         0.0600 
    215 H215       -6.8107  -19.1931  -52.0264 H         1 UNK         0.3000 
    216 H216       -5.0390  -18.8078  -54.1944 H         1 UNK         0.0600 
    217 H217       -6.9973  -16.8514  -52.8762 H         1 UNK         0.0600 
    218 H218       -5.6483  -16.4012  -53.9129 H         1 UNK         0.0600 
    219 H219       -5.3397  -17.1644  -52.3624 H         1 UNK         0.0600 
    220 H220       -8.5591  -19.0357  -54.1279 H         1 UNK         0.3000 
    221 H221       -9.1098  -18.0764  -56.7663 H         1 UNK         0.0600 
    222 H222      -10.8459  -18.2658  -54.9998 H         1 UNK         0.0600 
    223 H223      -10.6604  -20.0201  -54.9689 H         1 UNK         0.0600 
    224 H224      -11.3008  -19.2223  -56.4003 H         1 UNK         0.0600 
    225 H225       -7.8460  -21.1309  -55.5841 H         1 UNK         0.3000 
    226 H226       -8.1811  -22.4989  -58.2029 H         1 UNK         0.0600 
    227 H227       -7.1155  -23.5391  -55.5225 H         1 UNK         0.0600 
    228 H228       -8.7774  -23.7303  -56.0817 H         1 UNK         0.0600 
    229 H229       -7.4603  -24.4931  -56.9569 H         1 UNK         0.0600 
    230 H230       -6.1385  -20.2822  -56.9120 H         1 UNK         0.3000 
    231 H231       -4.1086  -19.5298  -57.1893 H         1 UNK         0.0600 
    232 H232       -4.5355  -19.9198  -59.6318 H         1 UNK         0.0600 
    233 H233       -3.7475  -21.4930  -59.5096 H         1 UNK         0.0600 
    234 H234       -2.8327  -20.0219  -59.2199 H         1 UNK         0.0600 
    235 H235       -4.5956  -21.9928  -55.4550 H         1 UNK         0.3000 
    236 H236       -2.2040  -23.5626  -55.4193 H         1 UNK         0.0600 
    237 H237       -4.4145  -24.2568  -54.4096 H         1 UNK         0.0600 
    238 H238       -3.0818  -24.3882  -53.2697 H         1 UNK         0.0600 
    239 H239       -4.1979  -23.0373  -53.1522 H         1 UNK         0.0600 
    240 H240       -3.1126  -20.5193  -53.9270 H         1 UNK         0.3000 
    241 H241       -0.8377  -20.3001  -52.1486 H         1 UNK         0.0600 
    242 H242        0.5146  -18.9435  -55.6756 H         1 UNK         0.3800 
    243 H243       -0.8169  -20.0636  -55.5646 H         1 UNK         0.3800 
    244 H244       -2.8642  -18.1857  -53.0279 H         1 UNK         0.0800 
    245 H245       -1.6816  -17.9746  -51.7708 H         1 UNK         0.0800 
    246 H246       -4.7266  -18.0355  -49.6104 H         1 UNK         0.0800 
    247 H247       -3.4475  -17.1269  -50.3628 H         1 UNK         0.0800 
@<TRIPOS>BOND
     1    1    2 1    
     2    1  127 1    
     3    1  128 1    
     4    1  129 1    
     5    2    3 2    
     6    2    4 am   BACKBONE|DICT|INTERRES
     7    4    5 1    
     8    4  130 1    
     9    5    6 1    
    10    5   65 1    
    11    5  131 1    
    12    6    7 1    
    13    6  132 1    
    14    6  133 1    
    15    7    8 1    
    16    8    9 1    
    17    8  134 1    
    18    8  135 1    
    19    9   10 ar   
    20    9   14 ar   
    21   10   11 ar   
    22   10  136 1    
    23   11   12 ar   
    24   11  126 1    
    25   12   13 ar   
    26   12  137 1    
    27   13   14 ar   
    28   13   15 1    
    29   14  138 1    
    30   15   16 1    
    31   15  139 1    
    32   15  140 1    
    33   16   17 1    
    34   17   18 1    
    35   17  141 1    
    36   17  142 1    
    37   18   19 1    
    38   18   67 1    
    39   18  143 1    
    40   19   20 am   BACKBONE|DICT|INTERRES
    41   19  144 1    
    42   20   21 2    
    43   20   22 1    
    44   22   23 1    
    45   22   24 1    
    46   22  145 1    
    47   23  146 1    
    48   23  147 1    
    49   23  148 1    
    50   24   25 am   BACKBONE|DICT|INTERRES
    51   24  149 1    
    52   25   26 2    
    53   25   27 1    
    54   27   28 1    
    55   27   29 1    
    56   27  150 1    
    57   28  151 1    
    58   28  152 1    
    59   28  153 1    
    60   29   30 am   BACKBONE|DICT|INTERRES
    61   29  154 1    
    62   30   31 2    
    63   30   32 1    
    64   32   33 1    
    65   32   34 1    
    66   32  155 1    
    67   33  156 1    
    68   33  157 1    
    69   33  158 1    
    70   34   35 am   BACKBONE|DICT|INTERRES
    71   34  159 1    
    72   35   36 2    
    73   35   37 1    
    74   37   38 1    
    75   37   39 1    
    76   37  160 1    
    77   38  161 1    
    78   38  162 1    
    79   38  163 1    
    80   39   40 am   BACKBONE|DICT|INTERRES
    81   39  164 1    
    82   40   41 2    
    83   40   42 1    
    84   42   43 1    
    85   42   44 1    
    86   42  165 1    
    87   43  166 1    
    88   43  167 1    
    89   43  168 1    
    90   44   45 am   BACKBONE|DICT|INTERRES
    91   44  169 1    
    92   45   46 2    
    93   45   47 1    
    94   47   48 1    
    95   47   49 1    
    96   47  170 1    
    97   48  171 1    
    98   48  172 1    
    99   48  173 1    
   100   49   50 am   BACKBONE|DICT|INTERRES
   101   49  174 1    
   102   50   51 2    
   103   50   52 1    
   104   52   53 1    
   105   52   54 1    
   106   52  175 1    
   107   53  176 1    
   108   53  177 1    
   109   53  178 1    
   110   54   55 am   BACKBONE|DICT|INTERRES
   111   54  179 1    
   112   55   56 2    
   113   55   57 1    
   114   57   58 1    
   115   57   59 1    
   116   57  180 1    
   117   58  181 1    
   118   58  182 1    
   119   58  183 1    
   120   59   60 am   BACKBONE|DICT|INTERRES
   121   59  184 1    
   122   60   61 2    
   123   60   62 1    
   124   62   63 1    
   125   62   64 1    
   126   62  185 1    
   127   63  186 1    
   128   63  187 1    
   129   63  188 1    
   130   64   65 am   BACKBONE|DICT|INTERRES
   131   64  189 1    
   132   65   66 2    
   133   67   68 2    
   134   67   69 am   BACKBONE|DICT|INTERRES
   135   69   70 1    
   136   69  190 1    
   137   70   71 1    
   138   70   72 1    
   139   70  191 1    
   140   71  192 1    
   141   71  193 1    
   142   71  194 1    
   143   72   73 2    
   144   72   74 am   BACKBONE|DICT|INTERRES
   145   74   75 1    
   146   74  195 1    
   147   75   76 1    
   148   75   77 1    
   149   75  196 1    
   150   76  197 1    
   151   76  198 1    
   152   76  199 1    
   153   77   78 2    
   154   77   79 am   BACKBONE|DICT|INTERRES
   155   79   80 1    
   156   79  200 1    
   157   80   81 1    
   158   80   82 1    
   159   80  201 1    
   160   81  202 1    
   161   81  203 1    
   162   81  204 1    
   163   82   83 2    
   164   82   84 am   BACKBONE|DICT|INTERRES
   165   84   85 1    
   166   84  205 1    
   167   85   86 1    
   168   85   87 1    
   169   85  206 1    
   170   86  207 1    
   171   86  208 1    
   172   86  209 1    
   173   87   88 2    
   174   87   89 am   BACKBONE|DICT|INTERRES
   175   89   90 1    
   176   89  210 1    
   177   90   91 1    
   178   90   92 1    
   179   90  211 1    
   180   91  212 1    
   181   91  213 1    
   182   91  214 1    
   183   92   93 2    
   184   92   94 am   BACKBONE|DICT|INTERRES
   185   94   95 1    
   186   94  215 1    
   187   95   96 1    
   188   95   97 1    
   189   95  216 1    
   190   96  217 1    
   191   96  218 1    
   192   96  219 1    
   193   97   98 2    
   194   97   99 am   BACKBONE|DICT|INTERRES
   195   99  100 1    
   196   99  220 1    
   197  100  101 1    
   198  100  102 1    
   199  100  221 1    
   200  101  222 1    
   201  101  223 1    
   202  101  224 1    
   203  102  103 2    
   204  102  104 am   BACKBONE|DICT|INTERRES
   205  104  105 1    
   206  104  225 1    
   207  105  106 1    
   208  105  107 1    
   209  105  226 1    
   210  106  227 1    
   211  106  228 1    
   212  106  229 1    
   213  107  108 2    
   214  107  109 am   BACKBONE|DICT|INTERRES
   215  109  110 1    
   216  109  230 1    
   217  110  111 1    
   218  110  112 1    
   219  110  231 1    
   220  111  232 1    
   221  111  233 1    
   222  111  234 1    
   223  112  113 2    
   224  112  114 am   BACKBONE|DICT|INTERRES
   225  114  115 1    
   226  114  235 1    
   227  115  116 1    
   228  115  117 1    
   229  115  236 1    
   230  116  237 1    
   231  116  238 1    
   232  116  239 1    
   233  117  118 2    
   234  117  119 am   BACKBONE|DICT|INTERRES
   235  119  120 1    
   236  119  240 1    
   237  120  121 1    
   238  120  124 1    
   239  120  241 1    
   240  121  122 am   BACKBONE|DICT|INTERRES
   241  121  123 2    
   242  122  242 1    
   243  122  243 1    
   244  124  125 1    
   245  124  244 1    
   246  124  245 1    
   247  125  126 1    
   248  126  246 1    
   249  126  247 1    
@<TRIPOS>SUBSTRUCTURE
     1 UNK         1 GROUP             0       ****    0 ROOT    
