@<TRIPOS>MOLECULE
3R540
247   249    1
SMALL
USER_CHARGES


@<TRIPOS>ATOM
      1 CA          4.5313  -17.1919  -45.9897 C.3       0 UNK        -0.1800 
      2 C           3.7242  -16.0108  -46.5079 C.2       0 UNK         0.5000 
      3 O           3.2015  -15.2365  -45.7082 O.2       0 UNK        -0.5000 
      4 N           3.6490  -15.8674  -47.8391 N.am      1 UNK        -0.5000 
      5 CA          2.8449  -14.8924  -48.5946 C.3       1 UNK         0.1400 
      6 C6          3.1819  -14.9539  -50.1086 C.3       23 UNK        -0.0398 
      7 S7          1.7862  -14.4576  -51.1756 S.3       23 UNK        -0.2404 
      8 C8          1.5840  -15.9217  -52.2398 C.3       23 UNK        -0.0205 
      9 C9          0.9302  -17.0781  -51.4995 C.ar      23 UNK        -0.0193 
     10 C10        -0.4635  -17.1438  -51.4018 C.ar      23 UNK        -0.1150 
     11 C11        -1.0776  -18.2066  -50.7347 C.ar      23 UNK        -0.0193 
     12 C12        -0.2842  -19.2044  -50.1634 C.ar      23 UNK        -0.1150 
     13 C13         1.1082  -19.1465  -50.2429 C.ar      23 UNK        -0.0193 
     14 C14         1.7113  -18.0862  -50.9233 C.ar      23 UNK        -0.1150 
     15 C15         1.9462  -20.2328  -49.5871 C.3       23 UNK        -0.0205 
     16 S16         2.1116  -19.9304  -47.7996 S.3       23 UNK        -0.2404 
     17 C17         2.5641  -21.5815  -47.1772 C.3       23 UNK        -0.0398 
     18 CA          1.4062  -22.4349  -46.5957 C.3       11 UNK         0.1400 
     19 N           0.7751  -21.8891  -45.3871 N.am      11 UNK        -0.5000 
     20 C           0.0617  -22.6534  -44.5421 C.2       10 UNK         0.5000 
     21 O          -0.0854  -23.8681  -44.6882 O.2       10 UNK        -0.5000 
     22 CA         -0.6463  -21.9609  -43.3653 C.3       10 UNK         0.1400 
     23 CB          0.3428  -21.6250  -42.2394 C.3       10 UNK        -0.1800 
     24 N          -1.3841  -20.7666  -43.7731 N.am      10 UNK        -0.5000 
     25 C          -2.4452  -20.7794  -44.5927 C.2       9 UNK         0.5000 
     26 O          -2.9312  -21.8103  -45.0578 O.2       9 UNK        -0.5000 
     27 CA         -3.0480  -19.4170  -44.9890 C.3       9 UNK         0.1400 
     28 CB         -4.0624  -18.9425  -43.9388 C.3       9 UNK        -0.1800 
     29 N          -2.0381  -18.3794  -45.2032 N.am      9 UNK        -0.5000 
     30 C          -1.0866  -18.4428  -46.1461 C.2       8 UNK         0.5000 
     31 O          -0.9932  -19.3721  -46.9441 O.2       8 UNK        -0.5000 
     32 CA         -0.0220  -17.3296  -46.1413 C.3       8 UNK         0.1400 
     33 CB         -0.5654  -16.0212  -46.7336 C.3       8 UNK        -0.1800 
     34 N           0.4977  -17.0850  -44.7976 N.am      8 UNK        -0.5000 
     35 C           1.1430  -17.9913  -44.0496 C.2       7 UNK         0.5000 
     36 O           1.4399  -19.1212  -44.4384 O.2       7 UNK        -0.5000 
     37 CA          1.4539  -17.5876  -42.5984 C.3       7 UNK         0.1400 
     38 CB          2.7346  -16.7456  -42.5149 C.3       7 UNK        -0.1800 
     39 N           0.3406  -16.8600  -41.9874 N.am      7 UNK        -0.5000 
     40 C          -0.8296  -17.4199  -41.6490 C.2       6 UNK         0.5000 
     41 O          -1.0736  -18.6183  -41.7770 O.2       6 UNK        -0.5000 
     42 CA         -1.9213  -16.4798  -41.1058 C.3       6 UNK         0.1400 
     43 CB         -1.7431  -16.2610  -39.5961 C.3       6 UNK        -0.1800 
     44 N          -1.9350  -15.1837  -41.7837 N.am      6 UNK        -0.5000 
     45 C          -2.2835  -14.9995  -43.0654 C.2       5 UNK         0.5000 
     46 O          -2.6844  -15.9005  -43.8008 O.2       5 UNK        -0.5000 
     47 CA         -2.0957  -13.5774  -43.6303 C.3       5 UNK         0.1400 
     48 CB         -3.3373  -12.7162  -43.3564 C.3       5 UNK        -0.1800 
     49 N          -0.9063  -12.9089  -43.0903 N.am      5 UNK        -0.5000 
     50 C           0.3443  -13.3467  -43.2827 C.2       4 UNK         0.5000 
     51 O           0.6201  -14.3293  -43.9726 O.2       4 UNK        -0.5000 
     52 CA          1.4572  -12.6267  -42.5141 C.3       4 UNK         0.1400 
     53 CB          1.4833  -13.1277  -41.0538 C.3       4 UNK        -0.1800 
     54 N           2.7286  -12.8975  -43.1800 N.am      4 UNK        -0.5000 
     55 C           3.9118  -12.3538  -42.8732 C.2       3 UNK         0.5000 
     56 O           4.0795  -11.5258  -41.9768 O.2       3 UNK        -0.5000 
     57 CA          5.1089  -12.7889  -43.7329 C.3       3 UNK         0.1400 
     58 CB          5.5740  -14.2080  -43.3702 C.3       3 UNK        -0.1800 
     59 N           4.8056  -12.7139  -45.1620 N.am      3 UNK        -0.5000 
     60 C           4.8030  -11.5711  -45.8639 C.2       2 UNK         0.5000 
     61 O           5.0351  -10.4702  -45.3616 O.2       2 UNK        -0.5000 
     62 CA          4.5320  -11.6514  -47.3784 C.3       2 UNK         0.1400 
     63 CB          5.7611  -11.1754  -48.1713 C.3       2 UNK        -0.1800 
     64 N           4.1974  -13.0034  -47.8253 N.am      2 UNK        -0.5000 
     65 C           2.9577  -13.4380  -48.0842 C.2       1 UNK         0.5000 
     66 O           1.9429  -12.7555  -47.9370 O.2       1 UNK        -0.5000 
     67 C           0.3661  -22.8680  -47.6510 C.2       11 UNK         0.5000 
     68 O           0.5926  -23.8746  -48.3219 O.2       11 UNK        -0.5000 
     69 N          -0.7728  -22.1599  -47.7428 N.am      12 UNK        -0.5000 
     70 CA         -1.9117  -22.5364  -48.5852 C.3       12 UNK         0.1400 
     71 CB         -3.0130  -21.4651  -48.5312 C.3       12 UNK        -0.1800 
     72 C          -2.5024  -23.8987  -48.1902 C.2       12 UNK         0.5000 
     73 O          -2.7351  -24.7328  -49.0646 O.2       12 UNK        -0.5000 
     74 N          -2.7068  -24.1028  -46.8815 N.am      13 UNK        -0.5000 
     75 CA         -3.1964  -25.3502  -46.2991 C.3       13 UNK         0.1400 
     76 CB         -3.5250  -25.1310  -44.8148 C.3       13 UNK        -0.1800 
     77 C          -2.2061  -26.5139  -46.4761 C.2       13 UNK         0.5000 
     78 O          -2.6312  -27.6182  -46.8152 O.2       13 UNK        -0.5000 
     79 N          -0.9080  -26.2416  -46.2771 N.am      14 UNK        -0.5000 
     80 CA          0.1788  -27.2072  -46.4552 C.3       14 UNK         0.1400 
     81 CB          1.4898  -26.6121  -45.9205 C.3       14 UNK        -0.1800 
     82 C           0.3449  -27.6616  -47.9175 C.2       14 UNK         0.5000 
     83 O           0.5456  -28.8513  -48.1648 O.2       14 UNK        -0.5000 
     84 N           0.2381  -26.7135  -48.8582 N.am      15 UNK        -0.5000 
     85 CA          0.2973  -26.9647  -50.2993 C.3       15 UNK         0.1400 
     86 CB          0.6101  -25.6425  -51.0180 C.3       15 UNK        -0.1800 
     87 C          -0.9969  -27.5779  -50.8691 C.2       15 UNK         0.5000 
     88 O          -0.9586  -28.1346  -51.9670 O.2       15 UNK        -0.5000 
     89 N          -2.1121  -27.4328  -50.1364 N.am      16 UNK        -0.5000 
     90 CA         -3.4933  -27.7155  -50.5443 C.3       16 UNK         0.1400 
     91 CB         -3.7140  -29.2264  -50.7646 C.3       16 UNK        -0.1800 
     92 C          -3.9084  -26.8452  -51.7508 C.2       16 UNK         0.5000 
     93 O          -4.4718  -27.3475  -52.7255 O.2       16 UNK        -0.5000 
     94 N          -3.5661  -25.5543  -51.6637 N.am      17 UNK        -0.5000 
     95 CA         -3.7313  -24.5494  -52.7067 C.3       17 UNK         0.1400 
     96 CB         -2.4169  -23.7480  -52.8175 C.3       17 UNK        -0.1800 
     97 C          -4.9773  -23.6877  -52.4199 C.2       17 UNK         0.5000 
     98 O          -6.0776  -24.2340  -52.3277 O.2       17 UNK        -0.5000 
     99 N          -4.7874  -22.3632  -52.3121 N.am      18 UNK        -0.5000 
    100 CA        -5.8106  -21.3203  -52.1541 C.3       18 UNK         0.1400 
    101 CB        -6.5618  -21.4583  -50.8119 C.3       18 UNK        -0.1800 
    102 C         -6.7630  -21.2250  -53.3685 C.2       18 UNK         0.5000 
    103 O         -7.9653  -21.0089  -53.2053 O.2       18 UNK        -0.5000 
    104 N         -6.2073  -21.4187  -54.5735 N.am      19 UNK        -0.5000 
    105 CA        -6.9560  -21.4841  -55.8304 C.3       19 UNK         0.1400 
    106 CB        -6.0803  -22.1583  -56.8981 C.3       19 UNK        -0.1800 
    107 C         -7.4546  -20.1148  -56.3300 C.2       19 UNK         0.5000 
    108 O         -8.5327  -20.0473  -56.9221 O.2       19 UNK        -0.5000 
    109 N         -6.6646  -19.0580  -56.1008 N.am      20 UNK        -0.5000 
    110 CA        -6.9353  -17.6960  -56.5753 C.3       20 UNK         0.1400 
    111 CB        -6.3964  -17.5337  -58.0105 C.3       20 UNK        -0.1800 
    112 C         -6.3804  -16.6255  -55.6150 C.2       20 UNK         0.5000 
    113 O         -6.1833  -15.4789  -56.0206 O.2       20 UNK        -0.5000 
    114 N         -6.1337  -17.0118  -54.3602 N.am      21 UNK        -0.5000 
    115 CA        -5.6042  -16.1881  -53.2787 C.3       21 UNK         0.1400 
    116 CB        -4.0962  -15.9436  -53.4881 C.3       21 UNK        -0.1800 
    117 C         -5.8811  -16.9200  -51.9573 C.2       21 UNK         0.5000 
    118 O         -6.2622  -18.0926  -51.9875 O.2       21 UNK        -0.5000 
    119 N         -5.6693  -16.2325  -50.8290 N.am      22 UNK        -0.5000 
    120 CA        -5.9001  -16.7406  -49.4629 C.3       22 UNK         0.1400 
    121 C         -7.4052  -17.0423  -49.1638 C.2       22 UNK         0.5000 
    122 N         -7.7244  -17.7993  -48.1213 N.am      22 UNK        -0.7600 
    123 O         -8.3061  -16.5448  -49.8367 O.2       22 UNK        -0.5000 
    124 C124       -4.9375  -17.9075  -49.0839 C.3       23 UNK        -0.0398 
    125 S125       -3.1812  -17.4172  -49.1373 S.3       23 UNK        -0.2404 
    126 C126       -2.5926  -18.2779  -50.6270 C.3       23 UNK        -0.0205 
    127 H127        5.2806  -16.8529  -45.2745 H         1 UNK         0.0600 
    128 H128        5.0428  -17.7192  -46.7952 H         1 UNK         0.0600 
    129 H129        3.8732  -17.9005  -45.4873 H         1 UNK         0.0600 
    130 H130        4.1309  -16.5478  -48.4082 H         1 UNK         0.3000 
    131 H131        1.8084  -15.2064  -48.4591 H         1 UNK         0.0600 
    132 H132        4.0469  -14.3351  -50.3550 H         1 UNK         0.0800 
    133 H133        3.4809  -15.9638  -50.3832 H         1 UNK         0.0800 
    134 H134        0.9686  -15.6469  -53.0978 H         1 UNK         0.0800 
    135 H135        2.5509  -16.2208  -52.6476 H         1 UNK         0.0800 
    136 H136       -1.0702  -16.3645  -51.8415 H         1 UNK         0.1150 
    137 H137       -0.7428  -20.0240  -49.6348 H         1 UNK         0.1150 
    138 H138        2.7882  -18.0481  -50.9999 H         1 UNK         0.1150 
    139 H139        1.4771  -21.2010  -49.7644 H         1 UNK         0.0800 
    140 H140        2.9380  -20.2827  -50.0387 H         1 UNK         0.0800 
    141 H141        3.3164  -21.4351  -46.4012 H         1 UNK         0.0800 
    142 H142        3.0735  -22.1326  -47.9697 H         1 UNK         0.0800 
    143 H143        1.8890  -23.3617  -46.2791 H         1 UNK         0.0600 
    144 H144        0.8687  -20.8909  -45.2191 H         1 UNK         0.3000 
    145 H145       -1.3735  -22.6687  -42.9616 H         1 UNK         0.0600 
    146 H146       -0.1715  -21.2055  -41.3748 H         1 UNK         0.0600 
    147 H147        0.8653  -22.5210  -41.9023 H         1 UNK         0.0600 
    148 H148        1.0984  -20.9094  -42.5601 H         1 UNK         0.0600 
    149 H149       -1.0754  -19.8831  -43.3828 H         1 UNK         0.3000 
    150 H150       -3.5789  -19.5551  -45.9330 H         1 UNK         0.0600 
    151 H151       -4.8404  -19.6904  -43.7815 H         1 UNK         0.0600 
    152 H152       -4.5541  -18.0220  -44.2539 H         1 UNK         0.0600 
    153 H153       -3.5865  -18.7551  -42.9762 H         1 UNK         0.0600 
    154 H154       -2.0845  -17.5620  -44.6018 H         1 UNK         0.3000 
    155 H155        0.8152  -17.6475  -46.7619 H         1 UNK         0.0600 
    156 H156       -1.4721  -15.6904  -46.2278 H         1 UNK         0.0600 
    157 H157       -0.8032  -16.1479  -47.7901 H         1 UNK         0.0600 
    158 H158        0.1692  -15.2189  -46.6597 H         1 UNK         0.0600 
    159 H159        0.3735  -16.1468  -44.4265 H         1 UNK         0.3000 
    160 H160        1.6178  -18.5028  -42.0257 H         1 UNK         0.0600 
    161 H161        2.6327  -15.8072  -43.0577 H         1 UNK         0.0600 
    162 H162        3.5816  -17.2812  -42.9449 H         1 UNK         0.0600 
    163 H163        2.9882  -16.5103  -41.4814 H         1 UNK         0.0600 
    164 H164        0.4427  -15.8608  -41.9038 H         1 UNK         0.3000 
    165 H165       -2.8879  -16.9607  -41.2698 H         1 UNK         0.0600 
    166 H166       -2.5535  -15.6574  -39.1869 H         1 UNK         0.0600 
    167 H167       -1.7458  -17.2119  -39.0616 H         1 UNK         0.0600 
    168 H168       -0.8018  -15.7590  -39.3684 H         1 UNK         0.0600 
    169 H169       -1.6269  -14.3854  -41.2494 H         1 UNK         0.3000 
    170 H170       -1.9717  -13.6647  -44.7118 H         1 UNK         0.0600 
    171 H171       -4.2339  -13.1844  -43.7651 H         1 UNK         0.0600 
    172 H172       -3.5009  -12.5707  -42.2879 H         1 UNK         0.0600 
    173 H173       -3.2456  -11.7336  -43.8196 H         1 UNK         0.0600 
    174 H174       -1.0652  -12.0989  -42.5082 H         1 UNK         0.3000 
    175 H175        1.2651  -11.5524  -42.5393 H         1 UNK         0.0600 
    176 H176        1.7510  -14.1831  -40.9958 H         1 UNK         0.0600 
    177 H177        2.1988  -12.5715  -40.4490 H         1 UNK         0.0600 
    178 H178        0.5107  -13.0081  -40.5753 H         1 UNK         0.0600 
    179 H179        2.6621  -13.5631  -43.9443 H         1 UNK         0.3000 
    180 H180        5.9370  -12.1102  -43.5163 H         1 UNK         0.0600 
    181 H181        4.8079  -14.9530  -43.5780 H         1 UNK         0.0600 
    182 H182        5.8190  -14.2785  -42.3097 H         1 UNK         0.0600 
    183 H183        6.4677  -14.4840  -43.9299 H         1 UNK         0.0600 
    184 H184        4.5022  -13.5693  -45.6115 H         1 UNK         0.3000 
    185 H185        3.7086  -10.9672  -47.5939 H         1 UNK         0.0600 
    186 H186        6.0276  -10.1511  -47.9075 H         1 UNK         0.0600 
    187 H187        6.6329  -11.8017  -47.9778 H         1 UNK         0.0600 
    188 H188        5.5677  -11.1912  -49.2441 H         1 UNK         0.0600 
    189 H189        4.9703  -13.6415  -47.9498 H         1 UNK         0.3000 
    190 H190       -0.8605  -21.2967  -47.2120 H         1 UNK         0.3000 
    191 H191       -1.5451  -22.6030  -49.6110 H         1 UNK         0.0600 
    192 H192       -2.6183  -20.4572  -48.6160 H         1 UNK         0.0600 
    193 H193       -3.7132  -21.6076  -49.3522 H         1 UNK         0.0600 
    194 H194       -3.5846  -21.5058  -47.6045 H         1 UNK         0.0600 
    195 H195       -2.5344  -23.3373  -46.2358 H         1 UNK         0.3000 
    196 H196       -4.1205  -25.6190  -46.8152 H         1 UNK         0.0600 
    197 H197       -3.9064  -26.0454  -44.3589 H         1 UNK         0.0600 
    198 H198       -4.2879  -24.3622  -44.6907 H         1 UNK         0.0600 
    199 H199       -2.6461  -24.8217  -44.2482 H         1 UNK         0.0600 
    200 H200       -0.6486  -25.3166  -45.9474 H         1 UNK         0.3000 
    201 H201       -0.0602  -28.0894  -45.8578 H         1 UNK         0.0600 
    202 H202        1.3962  -26.3256  -44.8728 H         1 UNK         0.0600 
    203 H203        1.7893  -25.7293  -46.4849 H         1 UNK         0.0600 
    204 H204        2.3028  -27.3359  -45.9891 H         1 UNK         0.0600 
    205 H205        0.1373  -25.7428  -48.5733 H         1 UNK         0.3000 
    206 H206        1.1118  -27.6638  -50.4999 H         1 UNK         0.0600 
    207 H207        1.5564  -25.2222  -50.6771 H         1 UNK         0.0600 
    208 H208        0.6888  -25.7890  -52.0960 H         1 UNK         0.0600 
    209 H209       -0.1685  -24.8987  -50.8431 H         1 UNK         0.0600 
    210 H210       -2.0224  -26.9236  -49.2669 H         1 UNK         0.3000 
    211 H211       -4.1263  -27.4080  -49.7106 H         1 UNK         0.0600 
    212 H212       -3.1554  -29.6011  -51.6225 H         1 UNK         0.0600 
    213 H213       -4.7679  -29.4424  -50.9430 H         1 UNK         0.0600 
    214 H214       -3.4088  -29.7992  -49.8888 H         1 UNK         0.0600 
    215 H215       -3.1712  -25.2301  -50.7832 H         1 UNK         0.3000 
    216 H216       -3.9015  -25.0357  -53.6693 H         1 UNK         0.0600 
    217 H217       -2.1723  -23.2304  -51.8895 H         1 UNK         0.0600 
    218 H218       -2.4646  -23.0093  -53.6186 H         1 UNK         0.0600 
    219 H219       -1.5821  -24.4096  -53.0505 H         1 UNK         0.0600 
    220 H220       -3.8401  -22.0256  -52.4053 H         1 UNK         0.3000 
    221 H221       -5.2558  -20.3837  -52.1241 H         1 UNK         0.0600 
    222 H222       -7.1992  -22.3423  -50.7917 H         1 UNK         0.0600 
    223 H223       -5.8757  -21.5229  -49.9702 H         1 UNK         0.0600 
    224 H224       -7.2007  -20.5916  -50.6368 H         1 UNK         0.0600 
    225 H225       -5.2165  -21.6022  -54.6252 H         1 UNK         0.3000 
    226 H226       -7.8338  -22.1144  -55.6712 H         1 UNK         0.0600 
    227 H227       -5.7916  -23.1646  -56.5937 H         1 UNK         0.0600 
    228 H228       -6.6172  -22.2480  -57.8435 H         1 UNK         0.0600 
    229 H229       -5.1693  -21.5904  -57.0912 H         1 UNK         0.0600 
    230 H230       -5.7877  -19.2002  -55.6202 H         1 UNK         0.3000 
    231 H231       -8.0150  -17.5342  -56.5969 H         1 UNK         0.0600 
    232 H232       -5.3139  -17.6606  -58.0462 H         1 UNK         0.0600 
    233 H233       -6.6270  -16.5461  -58.4115 H         1 UNK         0.0600 
    234 H234       -6.8415  -18.2643  -58.6860 H         1 UNK         0.0600 
    235 H235       -6.4061  -17.9385  -54.0550 H         1 UNK         0.3000 
    236 H236       -6.1360  -15.2347  -53.2574 H         1 UNK         0.0600 
    237 H237       -3.9141  -15.3373  -54.3752 H         1 UNK         0.0600 
    238 H238       -3.6555  -15.4134  -52.6431 H         1 UNK         0.0600 
    239 H239       -3.5521  -16.8802  -53.6119 H         1 UNK         0.0600 
    240 H240       -5.3720  -15.2699  -50.8905 H         1 UNK         0.3000 
    241 H241       -5.6636  -15.9022  -48.8070 H         1 UNK         0.0600 
    242 H242       -8.6998  -17.9667  -47.9283 H         1 UNK         0.3800 
    243 H243       -7.0285  -18.1982  -47.5128 H         1 UNK         0.3800 
    244 H244       -5.1175  -18.2424  -48.0624 H         1 UNK         0.0800 
    245 H245       -5.1073  -18.7795  -49.7163 H         1 UNK         0.0800 
    246 H246       -3.0511  -17.8294  -51.5065 H         1 UNK         0.0800 
    247 H247       -2.9164  -19.3185  -50.6139 H         1 UNK         0.0800 
@<TRIPOS>BOND
     1    1    2 1    
     2    1  127 1    
     3    1  128 1    
     4    1  129 1    
     5    2    3 2    
     6    2    4 am   BACKBONE|DICT|INTERRES
     7    4    5 1    
     8    4  130 1    
     9    5    6 1    
    10    5   65 1    
    11    5  131 1    
    12    6    7 1    
    13    6  132 1    
    14    6  133 1    
    15    7    8 1    
    16    8    9 1    
    17    8  134 1    
    18    8  135 1    
    19    9   10 ar   
    20    9   14 ar   
    21   10   11 ar   
    22   10  136 1    
    23   11   12 ar   
    24   11  126 1    
    25   12   13 ar   
    26   12  137 1    
    27   13   14 ar   
    28   13   15 1    
    29   14  138 1    
    30   15   16 1    
    31   15  139 1    
    32   15  140 1    
    33   16   17 1    
    34   17   18 1    
    35   17  141 1    
    36   17  142 1    
    37   18   19 1    
    38   18   67 1    
    39   18  143 1    
    40   19   20 am   BACKBONE|DICT|INTERRES
    41   19  144 1    
    42   20   21 2    
    43   20   22 1    
    44   22   23 1    
    45   22   24 1    
    46   22  145 1    
    47   23  146 1    
    48   23  147 1    
    49   23  148 1    
    50   24   25 am   BACKBONE|DICT|INTERRES
    51   24  149 1    
    52   25   26 2    
    53   25   27 1    
    54   27   28 1    
    55   27   29 1    
    56   27  150 1    
    57   28  151 1    
    58   28  152 1    
    59   28  153 1    
    60   29   30 am   BACKBONE|DICT|INTERRES
    61   29  154 1    
    62   30   31 2    
    63   30   32 1    
    64   32   33 1    
    65   32   34 1    
    66   32  155 1    
    67   33  156 1    
    68   33  157 1    
    69   33  158 1    
    70   34   35 am   BACKBONE|DICT|INTERRES
    71   34  159 1    
    72   35   36 2    
    73   35   37 1    
    74   37   38 1    
    75   37   39 1    
    76   37  160 1    
    77   38  161 1    
    78   38  162 1    
    79   38  163 1    
    80   39   40 am   BACKBONE|DICT|INTERRES
    81   39  164 1    
    82   40   41 2    
    83   40   42 1    
    84   42   43 1    
    85   42   44 1    
    86   42  165 1    
    87   43  166 1    
    88   43  167 1    
    89   43  168 1    
    90   44   45 am   BACKBONE|DICT|INTERRES
    91   44  169 1    
    92   45   46 2    
    93   45   47 1    
    94   47   48 1    
    95   47   49 1    
    96   47  170 1    
    97   48  171 1    
    98   48  172 1    
    99   48  173 1    
   100   49   50 am   BACKBONE|DICT|INTERRES
   101   49  174 1    
   102   50   51 2    
   103   50   52 1    
   104   52   53 1    
   105   52   54 1    
   106   52  175 1    
   107   53  176 1    
   108   53  177 1    
   109   53  178 1    
   110   54   55 am   BACKBONE|DICT|INTERRES
   111   54  179 1    
   112   55   56 2    
   113   55   57 1    
   114   57   58 1    
   115   57   59 1    
   116   57  180 1    
   117   58  181 1    
   118   58  182 1    
   119   58  183 1    
   120   59   60 am   BACKBONE|DICT|INTERRES
   121   59  184 1    
   122   60   61 2    
   123   60   62 1    
   124   62   63 1    
   125   62   64 1    
   126   62  185 1    
   127   63  186 1    
   128   63  187 1    
   129   63  188 1    
   130   64   65 am   BACKBONE|DICT|INTERRES
   131   64  189 1    
   132   65   66 2    
   133   67   68 2    
   134   67   69 am   BACKBONE|DICT|INTERRES
   135   69   70 1    
   136   69  190 1    
   137   70   71 1    
   138   70   72 1    
   139   70  191 1    
   140   71  192 1    
   141   71  193 1    
   142   71  194 1    
   143   72   73 2    
   144   72   74 am   BACKBONE|DICT|INTERRES
   145   74   75 1    
   146   74  195 1    
   147   75   76 1    
   148   75   77 1    
   149   75  196 1    
   150   76  197 1    
   151   76  198 1    
   152   76  199 1    
   153   77   78 2    
   154   77   79 am   BACKBONE|DICT|INTERRES
   155   79   80 1    
   156   79  200 1    
   157   80   81 1    
   158   80   82 1    
   159   80  201 1    
   160   81  202 1    
   161   81  203 1    
   162   81  204 1    
   163   82   83 2    
   164   82   84 am   BACKBONE|DICT|INTERRES
   165   84   85 1    
   166   84  205 1    
   167   85   86 1    
   168   85   87 1    
   169   85  206 1    
   170   86  207 1    
   171   86  208 1    
   172   86  209 1    
   173   87   88 2    
   174   87   89 am   BACKBONE|DICT|INTERRES
   175   89   90 1    
   176   89  210 1    
   177   90   91 1    
   178   90   92 1    
   179   90  211 1    
   180   91  212 1    
   181   91  213 1    
   182   91  214 1    
   183   92   93 2    
   184   92   94 am   BACKBONE|DICT|INTERRES
   185   94   95 1    
   186   94  215 1    
   187   95   96 1    
   188   95   97 1    
   189   95  216 1    
   190   96  217 1    
   191   96  218 1    
   192   96  219 1    
   193   97   98 2    
   194   97   99 am   BACKBONE|DICT|INTERRES
   195   99  100 1    
   196   99  220 1    
   197  100  101 1    
   198  100  102 1    
   199  100  221 1    
   200  101  222 1    
   201  101  223 1    
   202  101  224 1    
   203  102  103 2    
   204  102  104 am   BACKBONE|DICT|INTERRES
   205  104  105 1    
   206  104  225 1    
   207  105  106 1    
   208  105  107 1    
   209  105  226 1    
   210  106  227 1    
   211  106  228 1    
   212  106  229 1    
   213  107  108 2    
   214  107  109 am   BACKBONE|DICT|INTERRES
   215  109  110 1    
   216  109  230 1    
   217  110  111 1    
   218  110  112 1    
   219  110  231 1    
   220  111  232 1    
   221  111  233 1    
   222  111  234 1    
   223  112  113 2    
   224  112  114 am   BACKBONE|DICT|INTERRES
   225  114  115 1    
   226  114  235 1    
   227  115  116 1    
   228  115  117 1    
   229  115  236 1    
   230  116  237 1    
   231  116  238 1    
   232  116  239 1    
   233  117  118 2    
   234  117  119 am   BACKBONE|DICT|INTERRES
   235  119  120 1    
   236  119  240 1    
   237  120  121 1    
   238  120  124 1    
   239  120  241 1    
   240  121  122 am   BACKBONE|DICT|INTERRES
   241  121  123 2    
   242  122  242 1    
   243  122  243 1    
   244  124  125 1    
   245  124  244 1    
   246  124  245 1    
   247  125  126 1    
   248  126  246 1    
   249  126  247 1    
@<TRIPOS>SUBSTRUCTURE
     1 UNK         1 GROUP             0       ****    0 ROOT    
