@<TRIPOS>MOLECULE
3R540
247   249    1
SMALL
USER_CHARGES


@<TRIPOS>ATOM
      1 CA          0.1530  -13.6019  -41.9451 C.3       0 UNK        -0.1800 
      2 C          -1.1940  -13.1280  -42.4684 C.2       0 UNK         0.5000 
      3 O          -1.8634  -12.3415  -41.7986 O.2       0 UNK        -0.5000 
      4 N          -1.5873  -13.5863  -43.6650 N.am      1 UNK        -0.5000 
      5 CA         -2.7711  -13.0869  -44.3765 C.3       1 UNK         0.1400 
      6 C6         -3.3775  -14.1316  -45.3523 C.3       23 UNK        -0.0398 
      7 S7         -2.3884  -14.4704  -46.8520 S.3       23 UNK        -0.2404 
      8 C8         -2.2802  -16.2854  -46.8522 C.3       23 UNK        -0.0205 
      9 C9         -1.4437  -16.7840  -48.0231 C.ar      23 UNK        -0.0193 
     10 C10        -1.8540  -16.5422  -49.3378 C.ar      23 UNK        -0.1150 
     11 C11        -1.0595  -16.9399  -50.4173 C.ar      23 UNK        -0.0193 
     12 C12         0.1369  -17.6202  -50.1768 C.ar      23 UNK        -0.1150 
     13 C13         0.5461  -17.8910  -48.8682 C.ar      23 UNK        -0.0193 
     14 C14        -0.2450  -17.4655  -47.7972 C.ar      23 UNK        -0.1150 
     15 C15         1.8606  -18.6092  -48.6074 C.3       23 UNK        -0.0205 
     16 S16         1.6167  -20.2482  -47.8596 S.3       23 UNK        -0.2404 
     17 C17         0.9275  -21.2239  -49.2453 C.3       23 UNK        -0.0398 
     18 CA          0.0245  -22.3981  -48.7846 C.3       11 UNK         0.1400 
     19 N           0.6633  -23.1988  -47.7329 N.am      11 UNK        -0.5000 
     20 C           0.1589  -24.2881  -47.1402 C.2       10 UNK         0.5000 
     21 O          -0.9057  -24.8148  -47.4612 O.2       10 UNK        -0.5000 
     22 CA          0.9379  -24.8532  -45.9385 C.3       10 UNK         0.1400 
     23 CB          1.8734  -25.9809  -46.3965 C.3       10 UNK        -0.1800 
     24 N           1.7089  -23.8674  -45.1687 N.am      10 UNK        -0.5000 
     25 C           1.2306  -22.7431  -44.6159 C.2       9 UNK         0.5000 
     26 O           0.0856  -22.3214  -44.7984 O.2       9 UNK        -0.5000 
     27 CA          2.2089  -21.9563  -43.7278 C.3       9 UNK         0.1400 
     28 CB          3.1250  -21.0584  -44.5704 C.3       9 UNK        -0.1800 
     29 N           1.4909  -21.1347  -42.7544 N.am      9 UNK        -0.5000 
     30 C           0.9842  -21.6062  -41.6059 C.2       8 UNK         0.5000 
     31 O           1.1234  -22.7726  -41.2346 O.2       8 UNK        -0.5000 
     32 CA          0.2169  -20.6250  -40.6971 C.3       8 UNK         0.1400 
     33 CB          1.0585  -20.2747  -39.4594 C.3       8 UNK        -0.1800 
     34 N          -0.1551  -19.3813  -41.3703 N.am      8 UNK        -0.5000 
     35 C          -1.2428  -19.2177  -42.1351 C.2       7 UNK         0.5000 
     36 O          -2.0853  -20.0952  -42.3207 O.2       7 UNK        -0.5000 
     37 CA         -1.4193  -17.8372  -42.8037 C.3       7 UNK         0.1400 
     38 CB         -2.4249  -16.9803  -42.0203 C.3       7 UNK        -0.1800 
     39 N          -0.1664  -17.0889  -42.9473 N.am      7 UNK        -0.5000 
     40 C           0.8354  -17.4384  -43.7637 C.2       6 UNK         0.5000 
     41 O           0.8138  -18.4409  -44.4761 O.2       6 UNK        -0.5000 
     42 CA          2.0904  -16.5499  -43.7371 C.3       6 UNK         0.1400 
     43 CB          3.3187  -17.3550  -43.2870 C.3       6 UNK        -0.1800 
     44 N           2.3724  -15.9390  -45.0329 N.am      6 UNK        -0.5000 
     45 C           1.5993  -15.0453  -45.6606 C.2       5 UNK         0.5000 
     46 O           0.5279  -14.6333  -45.2132 O.2       5 UNK        -0.5000 
     47 CA          2.1792  -14.4508  -46.9593 C.3       5 UNK         0.1400 
     48 CB          1.0967  -13.8842  -47.8907 C.3       5 UNK        -0.1800 
     49 N           3.1156  -13.3799  -46.6257 N.am      5 UNK        -0.5000 
     50 C           4.3584  -13.5679  -46.1596 C.2       4 UNK         0.5000 
     51 O           4.8995  -14.6731  -46.0972 O.2       4 UNK        -0.5000 
     52 CA          5.1245  -12.3267  -45.6604 C.3       4 UNK         0.1400 
     53 CB          6.1091  -11.8354  -46.7322 C.3       4 UNK        -0.1800 
     54 N           4.2591  -11.2132  -45.2662 N.am      4 UNK        -0.5000 
     55 C           3.4018  -11.2142  -44.2359 C.2       3 UNK         0.5000 
     56 O           3.2492  -12.1672  -43.4715 O.2       3 UNK        -0.5000 
     57 CA          2.5607   -9.9384  -44.0267 C.3       3 UNK         0.1400 
     58 CB          3.2379   -8.6572  -44.5622 C.3       3 UNK        -0.1800 
     59 N           1.2033  -10.0637  -44.5692 N.am      3 UNK        -0.5000 
     60 C           0.8512  -10.3380  -45.8335 C.2       2 UNK         0.5000 
     61 O           1.6501  -10.6059  -46.7327 O.2       2 UNK        -0.5000 
     62 CA         -0.6590  -10.3646  -46.1062 C.3       2 UNK         0.1400 
     63 CB         -1.0137  -10.3515  -47.6065 C.3       2 UNK        -0.1800 
     64 N          -1.1997  -11.5541  -45.4656 N.am      2 UNK        -0.5000 
     65 C          -2.4638  -11.7359  -45.0629 C.2       1 UNK         0.5000 
     66 O          -3.3548  -10.8949  -45.1906 O.2       1 UNK        -0.5000 
     67 C          -1.3969  -21.9132  -48.4125 C.2       11 UNK         0.5000 
     68 O          -2.2716  -21.8759  -49.2794 O.2       11 UNK        -0.5000 
     69 N          -1.6106  -21.6021  -47.1293 N.am      12 UNK        -0.5000 
     70 CA         -2.8951  -21.1917  -46.5745 C.3       12 UNK         0.1400 
     71 CB         -2.6884  -19.8898  -45.7940 C.3       12 UNK        -0.1800 
     72 C          -3.4884  -22.2766  -45.6622 C.2       12 UNK         0.5000 
     73 O          -4.7026  -22.4740  -45.6768 O.2       12 UNK        -0.5000 
     74 N          -2.6404  -22.9602  -44.8831 N.am      13 UNK        -0.5000 
     75 CA         -3.0604  -23.9150  -43.8575 C.3       13 UNK         0.1400 
     76 CB         -1.9087  -24.1263  -42.8632 C.3       13 UNK        -0.1800 
     77 C          -3.5532  -25.2657  -44.4093 C.2       13 UNK         0.5000 
     78 O          -4.3564  -25.9167  -43.7397 O.2       13 UNK        -0.5000 
     79 N          -3.0681  -25.6732  -45.5904 N.am      14 UNK        -0.5000 
     80 CA         -3.3972  -26.9566  -46.2154 C.3       14 UNK         0.1400 
     81 CB         -2.1532  -27.8613  -46.2139 C.3       14 UNK        -0.1800 
     82 C          -3.9379  -26.7639  -47.6390 C.2       14 UNK         0.5000 
     83 O          -4.9843  -27.3204  -47.9725 O.2       14 UNK        -0.5000 
     84 N          -3.2240  -25.9756  -48.4522 N.am      15 UNK        -0.5000 
     85 CA         -3.5505  -25.7081  -49.8542 C.3       15 UNK         0.1400 
     86 CB         -2.2682  -25.2725  -50.5735 C.3       15 UNK        -0.1800 
     87 C          -4.6713  -24.6655  -50.0393 C.2       15 UNK         0.5000 
     88 O          -5.2261  -24.5681  -51.1364 O.2       15 UNK        -0.5000 
     89 N          -4.9837  -23.9179  -48.9687 N.am      16 UNK        -0.5000 
     90 CA         -6.0980  -22.9729  -48.8358 C.3       16 UNK         0.1400 
     91 CB         -7.4288  -23.7486  -48.7484 C.3       16 UNK        -0.1800 
     92 C          -6.1215  -21.8720  -49.9152 C.2       16 UNK         0.5000 
     93 O          -7.1987  -21.4989  -50.3830 O.2       16 UNK        -0.5000 
     94 N          -4.9330  -21.4019  -50.3241 N.am      17 UNK        -0.5000 
     95 CA         -4.6446  -20.4156  -51.3749 C.3       17 UNK         0.1400 
     96 CB         -5.3032  -19.0589  -51.0579 C.3       17 UNK        -0.1800 
     97 C          -4.9726  -20.8831  -52.8121 C.2       17 UNK         0.5000 
     98 O          -4.2370  -20.5509  -53.7431 O.2       17 UNK        -0.5000 
     99 N          -6.0504  -21.6584  -52.9748 N.am      18 UNK        -0.5000 
    100 CA        -6.5396  -22.2063  -54.2365 C.3       18 UNK         0.1400 
    101 CB        -7.8987  -22.8833  -54.0017 C.3       18 UNK        -0.1800 
    102 C         -5.5437  -23.1780  -54.8892 C.2       18 UNK         0.5000 
    103 O         -5.1644  -22.9709  -56.0425 O.2       18 UNK        -0.5000 
    104 N         -5.1007  -24.1950  -54.1349 N.am      19 UNK        -0.5000 
    105 CA        -4.1343  -25.1903  -54.6131 C.3       19 UNK         0.1400 
    106 CB        -4.2721  -26.4849  -53.7982 C.3       19 UNK        -0.1800 
    107 C         -2.6851  -24.6650  -54.6067 C.2       19 UNK         0.5000 
    108 O         -1.8285  -25.2449  -55.2742 O.2       19 UNK        -0.5000 
    109 N         -2.4427  -23.5595  -53.8871 N.am      20 UNK        -0.5000 
    110 CA        -1.1862  -22.8070  -53.9055 C.3       20 UNK         0.1400 
    111 CB        -1.0799  -21.9779  -52.6169 C.3       20 UNK        -0.1800 
    112 C         -1.0573  -21.9006  -55.1482 C.2       20 UNK         0.5000 
    113 O          0.0307  -21.3809  -55.3978 O.2       20 UNK        -0.5000 
    114 N         -2.1585  -21.7375  -55.8993 N.am      21 UNK        -0.5000 
    115 CA        -2.3046  -20.9402  -57.1171 C.3       21 UNK         0.1400 
    116 CB        -1.4336  -21.5072  -58.2582 C.3       21 UNK        -0.1800 
    117 C         -2.0918  -19.4336  -56.8705 C.2       21 UNK         0.5000 
    118 O         -1.4141  -18.7665  -57.6554 O.2       21 UNK        -0.5000 
    119 N         -2.6898  -18.9204  -55.7866 N.am      22 UNK        -0.5000 
    120 CA        -2.6845  -17.4896  -55.4327 C.3       22 UNK         0.1400 
    121 C         -3.4762  -16.5714  -56.4135 C.2       22 UNK         0.5000 
    122 N         -4.3669  -17.0936  -57.2485 N.am      22 UNK        -0.7600 
    123 O         -3.2755  -15.3599  -56.4160 O.2       22 UNK        -0.5000 
    124 C124       -3.1803  -17.2574  -53.9853 C.3       23 UNK        -0.0398 
    125 S125       -2.1258  -18.0460  -52.7192 S.3       23 UNK        -0.2404 
    126 C126       -1.4750  -16.5947  -51.8381 C.3       23 UNK        -0.0205 
    127 H127        0.5577  -12.8829  -41.2333 H         1 UNK         0.0600 
    128 H128        0.0509  -14.5597  -41.4377 H         1 UNK         0.0600 
    129 H129        0.8742  -13.6985  -42.7548 H         1 UNK         0.0600 
    130 H130       -0.9592  -14.1764  -44.2088 H         1 UNK         0.3000 
    131 H131       -3.5453  -12.8849  -43.6331 H         1 UNK         0.0600 
    132 H132       -4.3605  -13.7914  -45.6819 H         1 UNK         0.0800 
    133 H133       -3.5584  -15.0644  -44.8171 H         1 UNK         0.0800 
    134 H134       -3.2819  -16.7122  -46.9137 H         1 UNK         0.0800 
    135 H135       -1.8491  -16.6132  -45.9051 H         1 UNK         0.0800 
    136 H136       -2.7777  -16.0097  -49.5160 H         1 UNK         0.1150 
    137 H137        0.7509  -17.9291  -51.0111 H         1 UNK         0.1150 
    138 H138        0.0807  -17.6619  -46.7867 H         1 UNK         0.1150 
    139 H139        2.4425  -18.7133  -49.5244 H         1 UNK         0.0800 
    140 H140        2.4626  -18.0040  -47.9283 H         1 UNK         0.0800 
    141 H141        0.3898  -20.5699  -49.9342 H         1 UNK         0.0800 
    142 H142        1.7691  -21.6194  -49.8151 H         1 UNK         0.0800 
    143 H143       -0.0894  -23.0629  -49.6409 H         1 UNK         0.0600 
    144 H144        1.5237  -22.8187  -47.3659 H         1 UNK         0.3000 
    145 H145        0.2004  -25.2855  -45.2603 H         1 UNK         0.0600 
    146 H146        2.3403  -26.4774  -45.5456 H         1 UNK         0.0600 
    147 H147        1.3256  -26.7428  -46.9531 H         1 UNK         0.0600 
    148 H148        2.6664  -25.6068  -47.0452 H         1 UNK         0.0600 
    149 H149        2.6694  -24.1177  -44.9820 H         1 UNK         0.3000 
    150 H150        2.8371  -22.6723  -43.1935 H         1 UNK         0.0600 
    151 H151        3.8741  -20.5703  -43.9472 H         1 UNK         0.0600 
    152 H152        2.5629  -20.2819  -45.0871 H         1 UNK         0.0600 
    153 H153        3.6590  -21.6344  -45.3269 H         1 UNK         0.0600 
    154 H154        1.2525  -20.1978  -43.0514 H         1 UNK         0.3000 
    155 H155       -0.6887  -21.1332  -40.3589 H         1 UNK         0.0600 
    156 H156        0.5071  -19.6266  -38.7780 H         1 UNK         0.0600 
    157 H157        1.9843  -19.7668  -39.7322 H         1 UNK         0.0600 
    158 H158        1.3290  -21.1728  -38.9024 H         1 UNK         0.0600 
    159 H159        0.4748  -18.6013  -41.2601 H         1 UNK         0.3000 
    160 H160       -1.8268  -18.0034  -43.8014 H         1 UNK         0.0600 
    161 H161       -2.0584  -16.7395  -41.0218 H         1 UNK         0.0600 
    162 H162       -3.3757  -17.5022  -41.9042 H         1 UNK         0.0600 
    163 H163       -2.6341  -16.0444  -42.5378 H         1 UNK         0.0600 
    164 H164       -0.0745  -16.2586  -42.3833 H         1 UNK         0.3000 
    165 H165        1.9411  -15.7470  -43.0149 H         1 UNK         0.0600 
    166 H166        4.1858  -16.7074  -43.1548 H         1 UNK         0.0600 
    167 H167        3.1370  -17.8540  -42.3343 H         1 UNK         0.0600 
    168 H168        3.5841  -18.1214  -44.0153 H         1 UNK         0.0600 
    169 H169        3.2680  -16.1613  -45.4464 H         1 UNK         0.3000 
    170 H170        2.7059  -15.2398  -47.5001 H         1 UNK         0.0600 
    171 H171        0.4230  -14.6701  -48.2283 H         1 UNK         0.0600 
    172 H172        0.4925  -13.1274  -47.3931 H         1 UNK         0.0600 
    173 H173        1.5352  -13.4312  -48.7796 H         1 UNK         0.0600 
    174 H174        2.7412  -12.4374  -46.6315 H         1 UNK         0.3000 
    175 H175        5.6976  -12.6308  -44.7822 H         1 UNK         0.0600 
    176 H176        5.5894  -11.4953  -47.6289 H         1 UNK         0.0600 
    177 H177        6.7173  -11.0101  -46.3617 H         1 UNK         0.0600 
    178 H178        6.7919  -12.6319  -47.0307 H         1 UNK         0.0600 
    179 H179        4.2777  -10.3987  -45.8627 H         1 UNK         0.3000 
    180 H180        2.4527   -9.8209  -42.9475 H         1 UNK         0.0600 
    181 H181        4.2472   -8.5501  -44.1623 H         1 UNK         0.0600 
    182 H182        3.3085   -8.6452  -45.6500 H         1 UNK         0.0600 
    183 H183        2.6793   -7.7708  -44.2622 H         1 UNK         0.0600 
    184 H184        0.4613   -9.9206  -43.8985 H         1 UNK         0.3000 
    185 H185       -1.0917   -9.4754  -45.6429 H         1 UNK         0.0600 
    186 H186       -2.0920  -10.2979  -47.7566 H         1 UNK         0.0600 
    187 H187       -0.5743   -9.4854  -48.1024 H         1 UNK         0.0600 
    188 H188       -0.6523  -11.2424  -48.1194 H         1 UNK         0.0600 
    189 H189       -0.5418  -12.3082  -45.3140 H         1 UNK         0.3000 
    190 H190       -0.8425  -21.6916  -46.4718 H         1 UNK         0.3000 
    191 H191       -3.6182  -20.9961  -47.3690 H         1 UNK         0.0600 
    192 H192       -3.6045  -19.5698  -45.2961 H         1 UNK         0.0600 
    193 H193       -2.3764  -19.0890  -46.4612 H         1 UNK         0.0600 
    194 H194       -1.9148  -20.0080  -45.0354 H         1 UNK         0.0600 
    195 H195       -1.6520  -22.7155  -44.8921 H         1 UNK         0.3000 
    196 H196       -3.8917  -23.4696  -43.3065 H         1 UNK         0.0600 
    197 H197       -2.2082  -24.7898  -42.0511 H         1 UNK         0.0600 
    198 H198       -1.6022  -23.1816  -42.4134 H         1 UNK         0.0600 
    199 H199       -1.0352  -24.5679  -43.3419 H         1 UNK         0.0600 
    200 H200       -2.4169  -25.0793  -46.0894 H         1 UNK         0.3000 
    201 H201       -4.1787  -27.4707  -45.6522 H         1 UNK         0.0600 
    202 H202       -1.8129  -28.0569  -45.1971 H         1 UNK         0.0600 
    203 H203       -1.3231  -27.4160  -46.7626 H         1 UNK         0.0600 
    204 H204       -2.3714  -28.8254  -46.6748 H         1 UNK         0.0600 
    205 H205       -2.3547  -25.5685  -48.1098 H         1 UNK         0.3000 
    206 H206       -3.8957  -26.6370  -50.3124 H         1 UNK         0.0600 
    207 H207       -1.4957  -26.0384  -50.5055 H         1 UNK         0.0600 
    208 H208       -2.4473  -25.0847  -51.6294 H         1 UNK         0.0600 
    209 H209       -1.8702  -24.3576  -50.1442 H         1 UNK         0.0600 
    210 H210       -4.4423  -24.0719  -48.1311 H         1 UNK         0.3000 
    211 H211       -5.9611  -22.4520  -47.8898 H         1 UNK         0.0600 
    212 H212       -7.6608  -24.2564  -49.6854 H         1 UNK         0.0600 
    213 H213       -8.2605  -23.0807  -48.5210 H         1 UNK         0.0600 
    214 H214       -7.3945  -24.5003  -47.9597 H         1 UNK         0.0600 
    215 H215       -4.0981  -21.7892  -49.8899 H         1 UNK         0.3000 
    216 H216       -3.5659  -20.2671  -51.3338 H         1 UNK         0.0600 
    217 H217       -6.3912  -19.1106  -51.0929 H         1 UNK         0.0600 
    218 H218       -4.9972  -18.2974  -51.7733 H         1 UNK         0.0600 
    219 H219       -5.0134  -18.7045  -50.0686 H         1 UNK         0.0600 
    220 H220       -6.6070  -21.8461  -52.1462 H         1 UNK         0.3000 
    221 H221       -6.6894  -21.3719  -54.9246 H         1 UNK         0.0600 
    222 H222       -7.8275  -23.6911  -53.2720 H         1 UNK         0.0600 
    223 H223       -8.6352  -22.1680  -53.6351 H         1 UNK         0.0600 
    224 H224       -8.2903  -23.3076  -54.9271 H         1 UNK         0.0600 
    225 H225       -5.4076  -24.2806  -53.1701 H         1 UNK         0.3000 
    226 H226       -4.3760  -25.4353  -55.6497 H         1 UNK         0.0600 
    227 H227       -5.2826  -26.8874  -53.8693 H         1 UNK         0.0600 
    228 H228       -3.5906  -27.2525  -54.1667 H         1 UNK         0.0600 
    229 H229       -4.0499  -26.3313  -52.7452 H         1 UNK         0.0600 
    230 H230       -3.2106  -23.1466  -53.3787 H         1 UNK         0.3000 
    231 H231       -0.3542  -23.5140  -53.9232 H         1 UNK         0.0600 
    232 H232       -1.8296  -21.1892  -52.5837 H         1 UNK         0.0600 
    233 H233       -1.2078  -22.6016  -51.7341 H         1 UNK         0.0600 
    234 H234       -0.1034  -21.4986  -52.5402 H         1 UNK         0.0600 
    235 H235       -3.0077  -22.1881  -55.5849 H         1 UNK         0.3000 
    236 H236       -3.3465  -21.0492  -57.4214 H         1 UNK         0.0600 
    237 H237       -1.6273  -22.5690  -58.4104 H         1 UNK         0.0600 
    238 H238       -1.6477  -21.0008  -59.2000 H         1 UNK         0.0600 
    239 H239       -0.3689  -21.3856  -58.0578 H         1 UNK         0.0600 
    240 H240       -3.1994  -19.5353  -55.1586 H         1 UNK         0.3000 
    241 H241       -1.6474  -17.1521  -55.4815 H         1 UNK         0.0600 
    242 H242       -4.5482  -18.0842  -57.2534 H         1 UNK         0.3800 
    243 H243       -4.8694  -16.4890  -57.8797 H         1 UNK         0.3800 
    244 H244       -4.1929  -17.6478  -53.8773 H         1 UNK         0.0800 
    245 H245       -3.2528  -16.1894  -53.7746 H         1 UNK         0.0800 
    246 H246       -2.2254  -15.8035  -51.8120 H         1 UNK         0.0800 
    247 H247       -0.6229  -16.1920  -52.3876 H         1 UNK         0.0800 
@<TRIPOS>BOND
     1    1    2 1    
     2    1  127 1    
     3    1  128 1    
     4    1  129 1    
     5    2    3 2    
     6    2    4 am   BACKBONE|DICT|INTERRES
     7    4    5 1    
     8    4  130 1    
     9    5    6 1    
    10    5   65 1    
    11    5  131 1    
    12    6    7 1    
    13    6  132 1    
    14    6  133 1    
    15    7    8 1    
    16    8    9 1    
    17    8  134 1    
    18    8  135 1    
    19    9   10 ar   
    20    9   14 ar   
    21   10   11 ar   
    22   10  136 1    
    23   11   12 ar   
    24   11  126 1    
    25   12   13 ar   
    26   12  137 1    
    27   13   14 ar   
    28   13   15 1    
    29   14  138 1    
    30   15   16 1    
    31   15  139 1    
    32   15  140 1    
    33   16   17 1    
    34   17   18 1    
    35   17  141 1    
    36   17  142 1    
    37   18   19 1    
    38   18   67 1    
    39   18  143 1    
    40   19   20 am   BACKBONE|DICT|INTERRES
    41   19  144 1    
    42   20   21 2    
    43   20   22 1    
    44   22   23 1    
    45   22   24 1    
    46   22  145 1    
    47   23  146 1    
    48   23  147 1    
    49   23  148 1    
    50   24   25 am   BACKBONE|DICT|INTERRES
    51   24  149 1    
    52   25   26 2    
    53   25   27 1    
    54   27   28 1    
    55   27   29 1    
    56   27  150 1    
    57   28  151 1    
    58   28  152 1    
    59   28  153 1    
    60   29   30 am   BACKBONE|DICT|INTERRES
    61   29  154 1    
    62   30   31 2    
    63   30   32 1    
    64   32   33 1    
    65   32   34 1    
    66   32  155 1    
    67   33  156 1    
    68   33  157 1    
    69   33  158 1    
    70   34   35 am   BACKBONE|DICT|INTERRES
    71   34  159 1    
    72   35   36 2    
    73   35   37 1    
    74   37   38 1    
    75   37   39 1    
    76   37  160 1    
    77   38  161 1    
    78   38  162 1    
    79   38  163 1    
    80   39   40 am   BACKBONE|DICT|INTERRES
    81   39  164 1    
    82   40   41 2    
    83   40   42 1    
    84   42   43 1    
    85   42   44 1    
    86   42  165 1    
    87   43  166 1    
    88   43  167 1    
    89   43  168 1    
    90   44   45 am   BACKBONE|DICT|INTERRES
    91   44  169 1    
    92   45   46 2    
    93   45   47 1    
    94   47   48 1    
    95   47   49 1    
    96   47  170 1    
    97   48  171 1    
    98   48  172 1    
    99   48  173 1    
   100   49   50 am   BACKBONE|DICT|INTERRES
   101   49  174 1    
   102   50   51 2    
   103   50   52 1    
   104   52   53 1    
   105   52   54 1    
   106   52  175 1    
   107   53  176 1    
   108   53  177 1    
   109   53  178 1    
   110   54   55 am   BACKBONE|DICT|INTERRES
   111   54  179 1    
   112   55   56 2    
   113   55   57 1    
   114   57   58 1    
   115   57   59 1    
   116   57  180 1    
   117   58  181 1    
   118   58  182 1    
   119   58  183 1    
   120   59   60 am   BACKBONE|DICT|INTERRES
   121   59  184 1    
   122   60   61 2    
   123   60   62 1    
   124   62   63 1    
   125   62   64 1    
   126   62  185 1    
   127   63  186 1    
   128   63  187 1    
   129   63  188 1    
   130   64   65 am   BACKBONE|DICT|INTERRES
   131   64  189 1    
   132   65   66 2    
   133   67   68 2    
   134   67   69 am   BACKBONE|DICT|INTERRES
   135   69   70 1    
   136   69  190 1    
   137   70   71 1    
   138   70   72 1    
   139   70  191 1    
   140   71  192 1    
   141   71  193 1    
   142   71  194 1    
   143   72   73 2    
   144   72   74 am   BACKBONE|DICT|INTERRES
   145   74   75 1    
   146   74  195 1    
   147   75   76 1    
   148   75   77 1    
   149   75  196 1    
   150   76  197 1    
   151   76  198 1    
   152   76  199 1    
   153   77   78 2    
   154   77   79 am   BACKBONE|DICT|INTERRES
   155   79   80 1    
   156   79  200 1    
   157   80   81 1    
   158   80   82 1    
   159   80  201 1    
   160   81  202 1    
   161   81  203 1    
   162   81  204 1    
   163   82   83 2    
   164   82   84 am   BACKBONE|DICT|INTERRES
   165   84   85 1    
   166   84  205 1    
   167   85   86 1    
   168   85   87 1    
   169   85  206 1    
   170   86  207 1    
   171   86  208 1    
   172   86  209 1    
   173   87   88 2    
   174   87   89 am   BACKBONE|DICT|INTERRES
   175   89   90 1    
   176   89  210 1    
   177   90   91 1    
   178   90   92 1    
   179   90  211 1    
   180   91  212 1    
   181   91  213 1    
   182   91  214 1    
   183   92   93 2    
   184   92   94 am   BACKBONE|DICT|INTERRES
   185   94   95 1    
   186   94  215 1    
   187   95   96 1    
   188   95   97 1    
   189   95  216 1    
   190   96  217 1    
   191   96  218 1    
   192   96  219 1    
   193   97   98 2    
   194   97   99 am   BACKBONE|DICT|INTERRES
   195   99  100 1    
   196   99  220 1    
   197  100  101 1    
   198  100  102 1    
   199  100  221 1    
   200  101  222 1    
   201  101  223 1    
   202  101  224 1    
   203  102  103 2    
   204  102  104 am   BACKBONE|DICT|INTERRES
   205  104  105 1    
   206  104  225 1    
   207  105  106 1    
   208  105  107 1    
   209  105  226 1    
   210  106  227 1    
   211  106  228 1    
   212  106  229 1    
   213  107  108 2    
   214  107  109 am   BACKBONE|DICT|INTERRES
   215  109  110 1    
   216  109  230 1    
   217  110  111 1    
   218  110  112 1    
   219  110  231 1    
   220  111  232 1    
   221  111  233 1    
   222  111  234 1    
   223  112  113 2    
   224  112  114 am   BACKBONE|DICT|INTERRES
   225  114  115 1    
   226  114  235 1    
   227  115  116 1    
   228  115  117 1    
   229  115  236 1    
   230  116  237 1    
   231  116  238 1    
   232  116  239 1    
   233  117  118 2    
   234  117  119 am   BACKBONE|DICT|INTERRES
   235  119  120 1    
   236  119  240 1    
   237  120  121 1    
   238  120  124 1    
   239  120  241 1    
   240  121  122 am   BACKBONE|DICT|INTERRES
   241  121  123 2    
   242  122  242 1    
   243  122  243 1    
   244  124  125 1    
   245  124  244 1    
   246  124  245 1    
   247  125  126 1    
   248  126  246 1    
   249  126  247 1    
@<TRIPOS>SUBSTRUCTURE
     1 UNK         1 GROUP             0       ****    0 ROOT    
