@<TRIPOS>MOLECULE
3R540
247   249    1
SMALL
USER_CHARGES


@<TRIPOS>ATOM
      1 CA          1.1600  -11.0353  -46.8597 C.3       0 UNK        -0.1800 
      2 C           2.5549  -11.6390  -46.8899 C.2       0 UNK         0.5000 
      3 O           3.5352  -10.9065  -47.0200 O.2       0 UNK        -0.5000 
      4 N           2.6546  -12.9677  -46.7660 N.am      1 UNK        -0.5000 
      5 CA          3.9068  -13.7280  -46.8543 C.3       1 UNK         0.1400 
      6 C6          3.6592  -15.2412  -47.0652 C.3       23 UNK        -0.0398 
      7 S7          2.9144  -15.5995  -48.6918 S.3       23 UNK        -0.2404 
      8 C8          1.3505  -16.3950  -48.2158 C.3       23 UNK        -0.0205 
      9 C9          0.6721  -17.0170  -49.4245 C.ar      23 UNK        -0.0193 
     10 C10        -0.2971  -16.3063  -50.1390 C.ar      23 UNK        -0.1150 
     11 C11        -0.9039  -16.8718  -51.2648 C.ar      23 UNK        -0.0193 
     12 C12        -0.5303  -18.1556  -51.6731 C.ar      23 UNK        -0.1150 
     13 C13         0.4117  -18.8884  -50.9487 C.ar      23 UNK        -0.0193 
     14 C14         1.0190  -18.3082  -49.8312 C.ar      23 UNK        -0.1150 
     15 C15         0.7596  -20.3103  -51.3687 C.3       23 UNK        -0.0205 
     16 S16        -0.5809  -21.4822  -50.9720 S.3       23 UNK        -0.2404 
     17 C17        -0.6676  -21.3411  -49.1557 C.3       23 UNK        -0.0398 
     18 CA         -0.5297  -22.7013  -48.4315 C.3       11 UNK         0.1400 
     19 N           0.0446  -22.5366  -47.0940 N.am      11 UNK        -0.5000 
     20 C           0.4929  -23.5277  -46.3126 C.2       10 UNK         0.5000 
     21 O           0.5153  -24.7099  -46.6498 O.2       10 UNK        -0.5000 
     22 CA          0.9394  -23.1289  -44.8938 C.3       10 UNK         0.1400 
     23 CB          2.3815  -22.6010  -44.9059 C.3       10 UNK        -0.1800 
     24 N           0.0579  -22.1210  -44.3010 N.am      10 UNK        -0.5000 
     25 C          -1.2230  -22.3428  -43.9724 C.2       9 UNK         0.5000 
     26 O          -1.7697  -23.4415  -44.0710 O.2       9 UNK        -0.5000 
     27 CA         -2.0439  -21.1231  -43.5077 C.3       9 UNK         0.1400 
     28 CB         -1.9222  -20.9409  -41.9878 C.3       9 UNK        -0.1800 
     29 N          -1.6743  -19.8699  -44.1746 N.am      9 UNK        -0.5000 
     30 C          -1.7168  -19.6482  -45.4971 C.2       8 UNK         0.5000 
     31 O          -2.0810  -20.4988  -46.3074 O.2       8 UNK        -0.5000 
     32 CA         -1.2643  -18.2679  -46.0151 C.3       8 UNK         0.1400 
     33 CB         -2.3969  -17.5644  -46.7789 C.3       8 UNK        -0.1800 
     34 N          -0.7787  -17.3768  -44.9588 N.am      8 UNK        -0.5000 
     35 C           0.4460  -17.4161  -44.4162 C.2       7 UNK         0.5000 
     36 O           1.2986  -18.2448  -44.7378 O.2       7 UNK        -0.5000 
     37 CA          0.7423  -16.3770  -43.3095 C.3       7 UNK         0.1400 
     38 CB          2.2431  -16.0675  -43.1494 C.3       7 UNK        -0.1800 
     39 N          -0.0256  -15.1291  -43.4239 N.am      7 UNK        -0.5000 
     40 C          -0.0461  -14.2820  -44.4649 C.2       6 UNK         0.5000 
     41 O           0.5782  -14.4478  -45.5112 O.2       6 UNK        -0.5000 
     42 CA         -0.9003  -13.0168  -44.2885 C.3       6 UNK         0.1400 
     43 CB         -2.3970  -13.3486  -44.3929 C.3       6 UNK        -0.1800 
     44 N          -0.6319  -12.3271  -43.0267 N.am      6 UNK        -0.5000 
     45 C           0.5419  -11.7736  -42.6946 C.2       5 UNK         0.5000 
     46 O           1.5452  -11.7841  -43.4168 O.2       5 UNK        -0.5000 
     47 CA          0.5982  -11.1041  -41.3153 C.3       5 UNK         0.1400 
     48 CB          0.7619  -12.1458  -40.1951 C.3       5 UNK        -0.1800 
     49 N           1.7218  -10.1780  -41.2915 N.am      5 UNK        -0.5000 
     50 C           1.7855   -9.0330  -40.6031 C.2       4 UNK         0.5000 
     51 O           0.8946   -8.6420  -39.8476 O.2       4 UNK        -0.5000 
     52 CA          3.0564   -8.1769  -40.7797 C.3       4 UNK         0.1400 
     53 CB          3.9419   -8.2657  -39.5271 C.3       4 UNK        -0.1800 
     54 N           3.8530   -8.5744  -41.9409 N.am      4 UNK        -0.5000 
     55 C           3.5836   -8.2708  -43.2150 C.2       3 UNK         0.5000 
     56 O           2.6504   -7.5456  -43.5600 O.2       3 UNK        -0.5000 
     57 CA          4.4891   -8.9100  -44.2858 C.3       3 UNK         0.1400 
     58 CB          5.8704   -8.2299  -44.3384 C.3       3 UNK        -0.1800 
     59 N           4.6066  -10.3709  -44.1725 N.am      3 UNK        -0.5000 
     60 C           5.1716  -11.1113  -43.2046 C.2       2 UNK         0.5000 
     61 O           5.7354  -10.6284  -42.2215 O.2       2 UNK        -0.5000 
     62 CA          5.0759  -12.6450  -43.3312 C.3       2 UNK         0.1400 
     63 CB          4.4483  -13.2710  -42.0752 C.3       2 UNK        -0.1800 
     64 N           4.3043  -13.0564  -44.5077 N.am      2 UNK        -0.5000 
     65 C           4.8493  -13.4838  -45.6558 C.2       1 UNK         0.5000 
     66 O           6.0586  -13.6631  -45.8072 O.2       1 UNK        -0.5000 
     67 C          -1.8792  -23.4408  -48.3657 C.2       11 UNK         0.5000 
     68 O          -2.1248  -24.3418  -49.1666 O.2       11 UNK        -0.5000 
     69 N          -2.7100  -23.0787  -47.3775 N.am      12 UNK        -0.5000 
     70 CA         -3.9895  -23.7221  -47.0916 C.3       12 UNK         0.1400 
     71 CB         -4.7331  -22.9536  -45.9909 C.3       12 UNK        -0.1800 
     72 C          -3.8450  -25.2123  -46.7365 C.2       12 UNK         0.5000 
     73 O          -4.6443  -26.0229  -47.2055 O.2       12 UNK        -0.5000 
     74 N          -2.8115  -25.5485  -45.9554 N.am      13 UNK        -0.5000 
     75 CA         -2.4483  -26.9237  -45.6258 C.3       13 UNK         0.1400 
     76 CB         -1.4497  -26.9217  -44.4577 C.3       13 UNK        -0.1800 
     77 C          -1.8820  -27.6901  -46.8364 C.2       13 UNK         0.5000 
     78 O          -2.3278  -28.8052  -47.1096 O.2       13 UNK        -0.5000 
     79 N          -0.9058  -27.0887  -47.5304 N.am      14 UNK        -0.5000 
     80 CA         -0.1568  -27.7222  -48.6168 C.3       14 UNK         0.1400 
     81 CB          1.1148  -26.9080  -48.9010 C.3       14 UNK        -0.1800 
     82 C          -0.9617  -27.9123  -49.9139 C.2       14 UNK         0.5000 
     83 O          -0.8113  -28.9465  -50.5658 O.2       14 UNK        -0.5000 
     84 N          -1.7756  -26.9142  -50.2775 N.am      15 UNK        -0.5000 
     85 CA         -2.4746  -26.8306  -51.5604 C.3       15 UNK         0.1400 
     86 CB         -1.9509  -25.6080  -52.3392 C.3       15 UNK        -0.1800 
     87 C          -4.0048  -26.8327  -51.3911 C.2       15 UNK         0.5000 
     88 O          -4.7039  -26.2491  -52.2191 O.2       15 UNK        -0.5000 
     89 N          -4.4963  -27.5073  -50.3391 N.am      16 UNK        -0.5000 
     90 CA         -5.9013  -27.8500  -50.0723 C.3       16 UNK         0.1400 
     91 CB         -6.3573  -28.9598  -51.0417 C.3       16 UNK        -0.1800 
     92 C          -6.8429  -26.6286  -50.0961 C.2       16 UNK         0.5000 
     93 O          -7.6394  -26.4713  -51.0231 O.2       16 UNK        -0.5000 
     94 N          -6.6858  -25.7638  -49.0860 N.am      17 UNK        -0.5000 
     95 CA         -7.3248  -24.4500  -48.9336 C.3       17 UNK         0.1400 
     96 CB         -8.8640  -24.5572  -48.8912 C.3       17 UNK        -0.1800 
     97 C          -6.8123  -23.4165  -49.9607 C.2       17 UNK         0.5000 
     98 O          -7.5159  -22.4528  -50.2649 O.2       17 UNK        -0.5000 
     99 N          -5.5794  -23.6335  -50.4470 N.am      18 UNK        -0.5000 
    100 CA        -4.8413  -22.8278  -51.4213 C.3       18 UNK         0.1400 
    101 CB        -4.4699  -21.4545  -50.8280 C.3       18 UNK        -0.1800 
    102 C         -5.5770  -22.7348  -52.7713 C.2       18 UNK         0.5000 
    103 O         -5.7317  -21.6405  -53.3210 O.2       18 UNK        -0.5000 
    104 N         -6.0293  -23.8938  -53.2701 N.am      19 UNK        -0.5000 
    105 CA        -6.7654  -24.0612  -54.5219 C.3       19 UNK         0.1400 
    106 CB        -7.1314  -25.5433  -54.6954 C.3       19 UNK        -0.1800 
    107 C         -5.9508  -23.5439  -55.7195 C.2       19 UNK         0.5000 
    108 O         -4.8612  -24.0571  -55.9800 O.2       19 UNK        -0.5000 
    109 N         -6.4584  -22.4837  -56.3628 N.am      20 UNK        -0.5000 
    110 CA        -5.8538  -21.6777  -57.4353 C.3       20 UNK         0.1400 
    111 CB        -5.5417  -22.5347  -58.6776 C.3       20 UNK        -0.1800 
    112 C         -4.6245  -20.8424  -57.0101 C.2       20 UNK         0.5000 
    113 O         -4.3720  -19.8023  -57.6194 O.2       20 UNK        -0.5000 
    114 N         -3.8923  -21.2876  -55.9814 N.am      21 UNK        -0.5000 
    115 CA        -2.7237  -20.6215  -55.4104 C.3       21 UNK         0.1400 
    116 CB        -2.0114  -21.5865  -54.4501 C.3       21 UNK        -0.1800 
    117 C         -3.0699  -19.3031  -54.6960 C.2       21 UNK         0.5000 
    118 O         -2.3207  -18.3359  -54.8300 O.2       21 UNK        -0.5000 
    119 N         -4.1921  -19.2844  -53.9665 N.am      22 UNK        -0.5000 
    120 CA        -4.6972  -18.1129  -53.2331 C.3       22 UNK         0.1400 
    121 C         -6.2488  -18.0381  -53.1742 C.2       22 UNK         0.5000 
    122 N         -6.9817  -19.1320  -53.3468 N.am      22 UNK        -0.7600 
    123 O         -6.8052  -16.9590  -52.9921 O.2       22 UNK        -0.5000 
    124 C124       -4.0519  -17.9863  -51.8226 C.3       23 UNK        -0.0398 
    125 S125       -3.6272  -16.2701  -51.3655 S.3       23 UNK        -0.2404 
    126 C126       -1.9467  -16.0889  -52.0506 C.3       23 UNK        -0.0205 
    127 H127        0.9540  -10.6108  -45.8773 H         1 UNK         0.0600 
    128 H128        0.4004  -11.7826  -47.0889 H         1 UNK         0.0600 
    129 H129        1.0782  -10.2391  -47.5995 H         1 UNK         0.0600 
    130 H130        1.8223  -13.5198  -46.5716 H         1 UNK         0.3000 
    131 H131        4.4429  -13.3600  -47.7321 H         1 UNK         0.0600 
    132 H132        4.5980  -15.7963  -47.0191 H         1 UNK         0.0800 
    133 H133        3.0305  -15.6441  -46.2711 H         1 UNK         0.0800 
    134 H134        1.5420  -17.1614  -47.4634 H         1 UNK         0.0800 
    135 H135        0.6909  -15.6604  -47.7546 H         1 UNK         0.0800 
    136 H136       -0.5735  -15.3097  -49.8243 H         1 UNK         0.1150 
    137 H137       -0.9868  -18.5986  -52.5461 H         1 UNK         0.1150 
    138 H138        1.7629  -18.8604  -49.2742 H         1 UNK         0.1150 
    139 H139        0.9447  -20.3344  -52.4435 H         1 UNK         0.0800 
    140 H140        1.6831  -20.6420  -50.8915 H         1 UNK         0.0800 
    141 H141       -1.5902  -20.8224  -48.8890 H         1 UNK         0.0800 
    142 H142        0.1361  -20.6853  -48.8251 H         1 UNK         0.0800 
    143 H143        0.1639  -23.3286  -48.9959 H         1 UNK         0.0600 
    144 H144       -0.0058  -21.6089  -46.7005 H         1 UNK         0.3000 
    145 H145        0.9064  -24.0241  -44.2690 H         1 UNK         0.0600 
    146 H146        2.7312  -22.3886  -43.8955 H         1 UNK         0.0600 
    147 H147        3.0623  -23.3364  -45.3369 H         1 UNK         0.0600 
    148 H148        2.4725  -21.6852  -45.4916 H         1 UNK         0.0600 
    149 H149        0.4325  -21.1896  -44.1900 H         1 UNK         0.3000 
    150 H150       -3.0907  -21.3223  -43.7435 H         1 UNK         0.0600 
    151 H151       -2.2118  -21.8513  -41.4611 H         1 UNK         0.0600 
    152 H152       -2.5728  -20.1416  -41.6326 H         1 UNK         0.0600 
    153 H153       -0.9005  -20.7005  -41.6911 H         1 UNK         0.0600 
    154 H154       -1.3686  -19.1150  -43.5799 H         1 UNK         0.3000 
    155 H155       -0.4521  -18.4496  -46.7215 H         1 UNK         0.0600 
    156 H156       -3.2525  -17.3601  -46.1344 H         1 UNK         0.0600 
    157 H157       -2.7488  -18.1761  -47.6111 H         1 UNK         0.0600 
    158 H158       -2.0573  -16.6175  -47.2000 H         1 UNK         0.0600 
    159 H159       -1.4226  -16.6714  -44.6324 H         1 UNK         0.3000 
    160 H160        0.4134  -16.8479  -42.3821 H         1 UNK         0.0600 
    161 H161        2.6464  -15.5403  -44.0121 H         1 UNK         0.0600 
    162 H162        2.8288  -16.9771  -43.0128 H         1 UNK         0.0600 
    163 H163        2.4100  -15.4445  -42.2716 H         1 UNK         0.0600 
    164 H164       -0.5755  -14.8830  -42.6131 H         1 UNK         0.3000 
    165 H165       -0.6556  -12.3318  -45.0995 H         1 UNK         0.0600 
    166 H166       -3.0023  -12.4422  -44.3720 H         1 UNK         0.0600 
    167 H167       -2.6184  -13.8627  -45.3294 H         1 UNK         0.0600 
    168 H168       -2.7302  -13.9919  -43.5778 H         1 UNK         0.0600 
    169 H169       -1.4002  -12.2699  -42.3739 H         1 UNK         0.3000 
    170 H170       -0.3331  -10.5529  -41.1691 H         1 UNK         0.0600 
    171 H171        1.6823  -12.7192  -40.3078 H         1 UNK         0.0600 
    172 H172        0.7852  -11.6688  -39.2151 H         1 UNK         0.0600 
    173 H173       -0.0677  -12.8535  -40.1900 H         1 UNK         0.0600 
    174 H174        2.4584  -10.3992  -41.9479 H         1 UNK         0.3000 
    175 H175        2.7415   -7.1391  -40.9066 H         1 UNK         0.0600 
    176 H176        4.8159   -7.6202  -39.6158 H         1 UNK         0.0600 
    177 H177        4.2928   -9.2842  -39.3554 H         1 UNK         0.0600 
    178 H178        3.3956   -7.9511  -38.6370 H         1 UNK         0.0600 
    179 H179        4.6312   -9.2078  -41.7714 H         1 UNK         0.3000 
    180 H180        4.0057   -8.7317  -45.2477 H         1 UNK         0.0600 
    181 H181        6.4230   -8.3451  -43.4058 H         1 UNK         0.0600 
    182 H182        5.7680   -7.1601  -44.5240 H         1 UNK         0.0600 
    183 H183        6.4802   -8.6421  -45.1424 H         1 UNK         0.0600 
    184 H184        4.1823  -10.8733  -44.9427 H         1 UNK         0.3000 
    185 H185        6.1021  -13.0112  -43.3983 H         1 UNK         0.0600 
    186 H186        4.9669  -12.9547  -41.1693 H         1 UNK         0.0600 
    187 H187        3.4002  -12.9976  -41.9663 H         1 UNK         0.0600 
    188 H188        4.5119  -14.3579  -42.1134 H         1 UNK         0.0600 
    189 H189        3.3025  -12.9095  -44.4602 H         1 UNK         0.3000 
    190 H190       -2.4543  -22.2823  -46.7997 H         1 UNK         0.3000 
    191 H191       -4.5822  -23.6564  -48.0003 H         1 UNK         0.0600 
    192 H192       -4.8451  -21.9004  -46.2498 H         1 UNK         0.0600 
    193 H193       -5.7332  -23.3612  -45.8398 H         1 UNK         0.0600 
    194 H194       -4.2129  -23.0119  -45.0360 H         1 UNK         0.0600 
    195 H195       -2.2356  -24.8123  -45.5620 H         1 UNK         0.3000 
    196 H196       -3.3500  -27.4433  -45.2944 H         1 UNK         0.0600 
    197 H197       -1.1715  -27.9389  -44.1794 H         1 UNK         0.0600 
    198 H198       -1.8795  -26.4481  -43.5747 H         1 UNK         0.0600 
    199 H199       -0.5333  -26.3865  -44.7080 H         1 UNK         0.0600 
    200 H200       -0.5727  -26.1772  -47.2274 H         1 UNK         0.3000 
    201 H201        0.1525  -28.7126  -48.2759 H         1 UNK         0.0600 
    202 H202        1.7500  -26.8478  -48.0172 H         1 UNK         0.0600 
    203 H203        0.8778  -25.8900  -49.2133 H         1 UNK         0.0600 
    204 H204        1.7059  -27.3666  -49.6947 H         1 UNK         0.0600 
    205 H205       -1.8514  -26.0885  -49.6856 H         1 UNK         0.3000 
    206 H206       -2.2572  -27.7100  -52.1693 H         1 UNK         0.0600 
    207 H207       -0.8866  -25.7111  -52.5505 H         1 UNK         0.0600 
    208 H208       -2.4574  -25.4933  -53.2985 H         1 UNK         0.0600 
    209 H209       -2.0828  -24.6830  -51.7809 H         1 UNK         0.0600 
    210 H210       -3.8247  -27.8979  -49.6925 H         1 UNK         0.3000 
    211 H211       -5.9384  -28.2594  -49.0615 H         1 UNK         0.0600 
    212 H212       -6.3245  -28.6297  -52.0809 H         1 UNK         0.0600 
    213 H213       -7.3814  -29.2682  -50.8282 H         1 UNK         0.0600 
    214 H214       -5.7265  -29.8443  -50.9522 H         1 UNK         0.0600 
    215 H215       -5.9836  -25.9856  -48.3798 H         1 UNK         0.3000 
    216 H216       -7.0087  -24.0805  -47.9579 H         1 UNK         0.0600 
    217 H217       -9.3104  -23.6118  -48.5811 H         1 UNK         0.0600 
    218 H218       -9.1881  -25.3163  -48.1793 H         1 UNK         0.0600 
    219 H219       -9.2841  -24.8069  -49.8656 H         1 UNK         0.0600 
    220 H220       -5.1207  -24.4870  -50.1633 H         1 UNK         0.3000 
    221 H221       -3.9105  -23.3579  -51.6163 H         1 UNK         0.0600 
    222 H222       -5.3472  -20.8240  -50.6813 H         1 UNK         0.0600 
    223 H223       -3.9682  -21.5615  -49.8665 H         1 UNK         0.0600 
    224 H224       -3.7863  -20.9237  -51.4898 H         1 UNK         0.0600 
    225 H225       -5.7857  -24.7524  -52.7828 H         1 UNK         0.3000 
    226 H226       -7.6911  -23.4881  -54.4413 H         1 UNK         0.0600 
    227 H227       -7.7502  -25.8950  -53.8694 H         1 UNK         0.0600 
    228 H228       -7.6931  -25.7031  -55.6165 H         1 UNK         0.0600 
    229 H229       -6.2425  -26.1745  -54.7360 H         1 UNK         0.0600 
    230 H230       -7.3375  -22.1196  -56.0219 H         1 UNK         0.3000 
    231 H231       -6.6217  -20.9580  -57.7232 H         1 UNK         0.0600 
    232 H232       -4.7419  -23.2515  -58.4904 H         1 UNK         0.0600 
    233 H233       -5.2235  -21.9071  -59.5109 H         1 UNK         0.0600 
    234 H234       -6.4208  -23.0891  -59.0060 H         1 UNK         0.0600 
    235 H235       -4.1514  -22.1819  -55.5832 H         1 UNK         0.3000 
    236 H236       -2.0386  -20.3878  -56.2280 H         1 UNK         0.0600 
    237 H237       -1.7086  -22.5012  -54.9600 H         1 UNK         0.0600 
    238 H238       -1.1099  -21.1302  -54.0396 H         1 UNK         0.0600 
    239 H239       -2.6479  -21.8670  -53.6106 H         1 UNK         0.0600 
    240 H240       -4.7542  -20.1277  -53.9083 H         1 UNK         0.3000 
    241 H241       -4.4100  -17.2388  -53.8211 H         1 UNK         0.0600 
    242 H242       -6.5611  -20.0558  -53.4117 H         1 UNK         0.3800 
    243 H243       -7.9852  -19.0519  -53.3152 H         1 UNK         0.3800 
    244 H244       -4.7102  -18.3892  -51.0511 H         1 UNK         0.0800 
    245 H245       -3.1529  -18.5938  -51.7520 H         1 UNK         0.0800 
    246 H246       -1.9435  -16.3920  -53.0978 H         1 UNK         0.0800 
    247 H247       -1.6825  -15.0305  -52.0460 H         1 UNK         0.0800 
@<TRIPOS>BOND
     1    1    2 1    
     2    1  127 1    
     3    1  128 1    
     4    1  129 1    
     5    2    3 2    
     6    2    4 am   BACKBONE|DICT|INTERRES
     7    4    5 1    
     8    4  130 1    
     9    5    6 1    
    10    5   65 1    
    11    5  131 1    
    12    6    7 1    
    13    6  132 1    
    14    6  133 1    
    15    7    8 1    
    16    8    9 1    
    17    8  134 1    
    18    8  135 1    
    19    9   10 ar   
    20    9   14 ar   
    21   10   11 ar   
    22   10  136 1    
    23   11   12 ar   
    24   11  126 1    
    25   12   13 ar   
    26   12  137 1    
    27   13   14 ar   
    28   13   15 1    
    29   14  138 1    
    30   15   16 1    
    31   15  139 1    
    32   15  140 1    
    33   16   17 1    
    34   17   18 1    
    35   17  141 1    
    36   17  142 1    
    37   18   19 1    
    38   18   67 1    
    39   18  143 1    
    40   19   20 am   BACKBONE|DICT|INTERRES
    41   19  144 1    
    42   20   21 2    
    43   20   22 1    
    44   22   23 1    
    45   22   24 1    
    46   22  145 1    
    47   23  146 1    
    48   23  147 1    
    49   23  148 1    
    50   24   25 am   BACKBONE|DICT|INTERRES
    51   24  149 1    
    52   25   26 2    
    53   25   27 1    
    54   27   28 1    
    55   27   29 1    
    56   27  150 1    
    57   28  151 1    
    58   28  152 1    
    59   28  153 1    
    60   29   30 am   BACKBONE|DICT|INTERRES
    61   29  154 1    
    62   30   31 2    
    63   30   32 1    
    64   32   33 1    
    65   32   34 1    
    66   32  155 1    
    67   33  156 1    
    68   33  157 1    
    69   33  158 1    
    70   34   35 am   BACKBONE|DICT|INTERRES
    71   34  159 1    
    72   35   36 2    
    73   35   37 1    
    74   37   38 1    
    75   37   39 1    
    76   37  160 1    
    77   38  161 1    
    78   38  162 1    
    79   38  163 1    
    80   39   40 am   BACKBONE|DICT|INTERRES
    81   39  164 1    
    82   40   41 2    
    83   40   42 1    
    84   42   43 1    
    85   42   44 1    
    86   42  165 1    
    87   43  166 1    
    88   43  167 1    
    89   43  168 1    
    90   44   45 am   BACKBONE|DICT|INTERRES
    91   44  169 1    
    92   45   46 2    
    93   45   47 1    
    94   47   48 1    
    95   47   49 1    
    96   47  170 1    
    97   48  171 1    
    98   48  172 1    
    99   48  173 1    
   100   49   50 am   BACKBONE|DICT|INTERRES
   101   49  174 1    
   102   50   51 2    
   103   50   52 1    
   104   52   53 1    
   105   52   54 1    
   106   52  175 1    
   107   53  176 1    
   108   53  177 1    
   109   53  178 1    
   110   54   55 am   BACKBONE|DICT|INTERRES
   111   54  179 1    
   112   55   56 2    
   113   55   57 1    
   114   57   58 1    
   115   57   59 1    
   116   57  180 1    
   117   58  181 1    
   118   58  182 1    
   119   58  183 1    
   120   59   60 am   BACKBONE|DICT|INTERRES
   121   59  184 1    
   122   60   61 2    
   123   60   62 1    
   124   62   63 1    
   125   62   64 1    
   126   62  185 1    
   127   63  186 1    
   128   63  187 1    
   129   63  188 1    
   130   64   65 am   BACKBONE|DICT|INTERRES
   131   64  189 1    
   132   65   66 2    
   133   67   68 2    
   134   67   69 am   BACKBONE|DICT|INTERRES
   135   69   70 1    
   136   69  190 1    
   137   70   71 1    
   138   70   72 1    
   139   70  191 1    
   140   71  192 1    
   141   71  193 1    
   142   71  194 1    
   143   72   73 2    
   144   72   74 am   BACKBONE|DICT|INTERRES
   145   74   75 1    
   146   74  195 1    
   147   75   76 1    
   148   75   77 1    
   149   75  196 1    
   150   76  197 1    
   151   76  198 1    
   152   76  199 1    
   153   77   78 2    
   154   77   79 am   BACKBONE|DICT|INTERRES
   155   79   80 1    
   156   79  200 1    
   157   80   81 1    
   158   80   82 1    
   159   80  201 1    
   160   81  202 1    
   161   81  203 1    
   162   81  204 1    
   163   82   83 2    
   164   82   84 am   BACKBONE|DICT|INTERRES
   165   84   85 1    
   166   84  205 1    
   167   85   86 1    
   168   85   87 1    
   169   85  206 1    
   170   86  207 1    
   171   86  208 1    
   172   86  209 1    
   173   87   88 2    
   174   87   89 am   BACKBONE|DICT|INTERRES
   175   89   90 1    
   176   89  210 1    
   177   90   91 1    
   178   90   92 1    
   179   90  211 1    
   180   91  212 1    
   181   91  213 1    
   182   91  214 1    
   183   92   93 2    
   184   92   94 am   BACKBONE|DICT|INTERRES
   185   94   95 1    
   186   94  215 1    
   187   95   96 1    
   188   95   97 1    
   189   95  216 1    
   190   96  217 1    
   191   96  218 1    
   192   96  219 1    
   193   97   98 2    
   194   97   99 am   BACKBONE|DICT|INTERRES
   195   99  100 1    
   196   99  220 1    
   197  100  101 1    
   198  100  102 1    
   199  100  221 1    
   200  101  222 1    
   201  101  223 1    
   202  101  224 1    
   203  102  103 2    
   204  102  104 am   BACKBONE|DICT|INTERRES
   205  104  105 1    
   206  104  225 1    
   207  105  106 1    
   208  105  107 1    
   209  105  226 1    
   210  106  227 1    
   211  106  228 1    
   212  106  229 1    
   213  107  108 2    
   214  107  109 am   BACKBONE|DICT|INTERRES
   215  109  110 1    
   216  109  230 1    
   217  110  111 1    
   218  110  112 1    
   219  110  231 1    
   220  111  232 1    
   221  111  233 1    
   222  111  234 1    
   223  112  113 2    
   224  112  114 am   BACKBONE|DICT|INTERRES
   225  114  115 1    
   226  114  235 1    
   227  115  116 1    
   228  115  117 1    
   229  115  236 1    
   230  116  237 1    
   231  116  238 1    
   232  116  239 1    
   233  117  118 2    
   234  117  119 am   BACKBONE|DICT|INTERRES
   235  119  120 1    
   236  119  240 1    
   237  120  121 1    
   238  120  124 1    
   239  120  241 1    
   240  121  122 am   BACKBONE|DICT|INTERRES
   241  121  123 2    
   242  122  242 1    
   243  122  243 1    
   244  124  125 1    
   245  124  244 1    
   246  124  245 1    
   247  125  126 1    
   248  126  246 1    
   249  126  247 1    
@<TRIPOS>SUBSTRUCTURE
     1 UNK         1 GROUP             0       ****    0 ROOT    
