@<TRIPOS>MOLECULE
3R540
247   249    1
SMALL
USER_CHARGES


@<TRIPOS>ATOM
      1 CA         -1.2098   -8.8408  -48.2645 C.3       0 UNK        -0.1800 
      2 C          -0.7636  -10.1493  -48.9016 C.2       0 UNK         0.5000 
      3 O           0.1554  -10.1496  -49.7211 O.2       0 UNK        -0.5000 
      4 N          -1.4156  -11.2594  -48.5359 N.am      1 UNK        -0.5000 
      5 CA         -1.1017  -12.6139  -48.9980 C.3       1 UNK         0.1400 
      6 C6         -2.2069  -13.6245  -48.6048 C.3       23 UNK        -0.0398 
      7 S7         -3.7581  -13.3165  -49.5153 S.3       23 UNK        -0.2404 
      8 C8         -3.9334  -14.8514  -50.4812 C.3       23 UNK        -0.0205 
      9 C9         -4.8255  -15.8720  -49.7861 C.ar      23 UNK        -0.0193 
     10 C10        -6.0512  -16.2217  -50.3582 C.ar      23 UNK        -0.1150 
     11 C11        -6.8717  -17.1787  -49.7586 C.ar      23 UNK        -0.0193 
     12 C12        -6.4648  -17.7761  -48.5625 C.ar      23 UNK        -0.1150 
     13 C13        -5.2488  -17.4301  -47.9622 C.ar      23 UNK        -0.0193 
     14 C14        -4.4319  -16.4772  -48.5871 C.ar      23 UNK        -0.1150 
     15 C15        -4.8840  -18.0875  -46.6296 C.3       23 UNK        -0.0205 
     16 S16        -3.1018  -18.1145  -46.2257 S.3       23 UNK        -0.2404 
     17 C17        -3.0603  -19.3324  -44.8608 C.3       23 UNK        -0.0398 
     18 CA         -1.9752  -20.4289  -45.0513 C.3       11 UNK         0.1400 
     19 N          -1.7668  -21.2135  -43.8311 N.am      11 UNK        -0.5000 
     20 C          -2.5420  -22.2070  -43.3688 C.2       10 UNK         0.5000 
     21 O          -3.6142  -22.5361  -43.8792 O.2       10 UNK        -0.5000 
     22 CA         -2.0179  -22.9877  -42.1519 C.3       10 UNK         0.1400 
     23 CB         -1.0238  -24.0695  -42.6029 C.3       10 UNK        -0.1800 
     24 N          -1.3634  -22.1330  -41.1626 N.am      10 UNK        -0.5000 
     25 C          -2.0070  -21.4296  -40.2207 C.2       9 UNK         0.5000 
     26 O          -3.2321  -21.3904  -40.1055 O.2       9 UNK        -0.5000 
     27 CA         -1.1231  -20.6279  -39.2556 C.3       9 UNK         0.1400 
     28 CB         -0.3862  -21.5638  -38.2768 C.3       9 UNK        -0.1800 
     29 N          -0.1888  -19.8219  -40.0333 N.am      9 UNK        -0.5000 
     30 C           0.6005  -18.8395  -39.5964 C.2       8 UNK         0.5000 
     31 O           0.7031  -18.5275  -38.4085 O.2       8 UNK        -0.5000 
     32 CA          1.3847  -18.0632  -40.6819 C.3       8 UNK         0.1400 
     33 CB          2.3280  -17.0048  -40.0812 C.3       8 UNK        -0.1800 
     34 N           2.1580  -18.8959  -41.6123 N.am      8 UNK        -0.5000 
     35 C           1.6791  -19.7389  -42.5371 C.2       7 UNK         0.5000 
     36 O           0.4813  -19.9880  -42.6834 O.2       7 UNK        -0.5000 
     37 CA          2.7184  -20.3785  -43.4666 C.3       7 UNK         0.1400 
     38 CB          2.1041  -21.3974  -44.4446 C.3       7 UNK        -0.1800 
     39 N           3.3568  -19.3108  -44.2249 N.am      7 UNK        -0.5000 
     40 C           4.6749  -19.1319  -44.3585 C.2       6 UNK         0.5000 
     41 O           5.5232  -19.8753  -43.8638 O.2       6 UNK        -0.5000 
     42 CA          5.1251  -17.9075  -45.1750 C.3       6 UNK         0.1400 
     43 CB          5.1323  -18.2376  -46.6756 C.3       6 UNK        -0.1800 
     44 N           4.2998  -16.7196  -44.9501 N.am      6 UNK        -0.5000 
     45 C           4.2369  -16.0291  -43.8020 C.2       5 UNK         0.5000 
     46 O           4.8494  -16.3425  -42.7811 O.2       5 UNK        -0.5000 
     47 CA          3.3354  -14.7830  -43.7915 C.3       5 UNK         0.1400 
     48 CB          4.0180  -13.6069  -44.5078 C.3       5 UNK        -0.1800 
     49 N           2.0569  -15.0691  -44.4383 N.am      5 UNK        -0.5000 
     50 C           0.9259  -15.3747  -43.7881 C.2       4 UNK         0.5000 
     51 O           0.8068  -15.3136  -42.5653 O.2       4 UNK        -0.5000 
     52 CA         -0.2834  -15.8296  -44.6297 C.3       4 UNK         0.1400 
     53 CB         -1.3817  -14.7552  -44.6461 C.3       4 UNK        -0.1800 
     54 N           0.0653  -16.1712  -46.0078 N.am      4 UNK        -0.5000 
     55 C           0.7004  -17.2915  -46.3752 C.2       3 UNK         0.5000 
     56 O           1.0828  -18.1535  -45.5865 O.2       3 UNK        -0.5000 
     57 CA          0.9993  -17.4491  -47.8760 C.3       3 UNK         0.1400 
     58 CB         -0.2131  -18.0627  -48.5855 C.3       3 UNK        -0.1800 
     59 N           1.3486  -16.1926  -48.5415 N.am      3 UNK        -0.5000 
     60 C           2.3609  -15.3827  -48.1992 C.2       2 UNK         0.5000 
     61 O           3.1407  -15.6152  -47.2765 O.2       2 UNK        -0.5000 
     62 CA          2.4730  -14.0597  -48.9772 C.3       2 UNK         0.1400 
     63 CB          3.3093  -14.2532  -50.2505 C.3       2 UNK        -0.1800 
     64 N           1.1633  -13.5034  -49.3313 N.am      2 UNK        -0.5000 
     65 C           0.2580  -13.0754  -48.4402 C.2       1 UNK         0.5000 
     66 O           0.4414  -13.0811  -47.2214 O.2       1 UNK        -0.5000 
     67 C          -2.1705  -21.3695  -46.2653 C.2       11 UNK         0.5000 
     68 O          -1.2744  -22.1639  -46.5585 O.2       11 UNK        -0.5000 
     69 N          -3.3435  -21.3119  -46.9084 N.am      12 UNK        -0.5000 
     70 CA         -3.7478  -22.1004  -48.0716 C.3       12 UNK         0.1400 
     71 CB         -5.1674  -21.6797  -48.4782 C.3       12 UNK        -0.1800 
     72 C          -3.6727  -23.6256  -47.8882 C.2       12 UNK         0.5000 
     73 O          -3.4655  -24.3295  -48.8758 O.2       12 UNK        -0.5000 
     74 N          -3.7932  -24.1123  -46.6446 N.am      13 UNK        -0.5000 
     75 CA         -3.6588  -25.5322  -46.3109 C.3       13 UNK         0.1400 
     76 CB         -4.1721  -25.7723  -44.8832 C.3       13 UNK        -0.1800 
     77 C          -2.2237  -26.0746  -46.4833 C.2       13 UNK         0.5000 
     78 O          -2.0604  -27.2872  -46.6242 O.2       13 UNK        -0.5000 
     79 N          -1.2223  -25.1833  -46.4822 N.am      14 UNK        -0.5000 
     80 CA          0.1821  -25.5073  -46.7295 C.3       14 UNK         0.1400 
     81 CB          1.0303  -24.9834  -45.5610 C.3       14 UNK        -0.1800 
     82 C           0.6699  -24.9034  -48.0568 C.2       14 UNK         0.5000 
     83 O           1.3723  -25.5800  -48.8085 O.2       14 UNK        -0.5000 
     84 N           0.3069  -23.6402  -48.3159 N.am      15 UNK        -0.5000 
     85 CA          0.7781  -22.8522  -49.4547 C.3       15 UNK         0.1400 
     86 CB          0.5437  -21.3693  -49.1438 C.3       15 UNK        -0.1800 
     87 C           0.1234  -23.2306  -50.7955 C.2       15 UNK         0.5000 
     88 O           0.7472  -23.0252  -51.8381 O.2       15 UNK        -0.5000 
     89 N          -1.1064  -23.7680  -50.7485 N.am      16 UNK        -0.5000 
     90 CA         -1.9105  -24.2510  -51.8752 C.3       16 UNK         0.1400 
     91 CB         -1.3552  -25.6039  -52.3716 C.3       16 UNK        -0.1800 
     92 C          -2.0716  -23.1967  -52.9913 C.2       16 UNK         0.5000 
     93 O          -2.8482  -22.2523  -52.8290 O.2       16 UNK        -0.5000 
     94 N          -1.3281  -23.3684  -54.0927 N.am      17 UNK        -0.5000 
     95 CA         -1.2974  -22.4778  -55.2513 C.3       17 UNK         0.1400 
     96 CB         -0.4018  -23.0933  -56.3364 C.3       17 UNK        -0.1800 
     97 C          -0.8323  -21.0486  -54.9181 C.2       17 UNK         0.5000 
     98 O          -1.3664  -20.0930  -55.4827 O.2       17 UNK        -0.5000 
     99 N           0.1291  -20.9252  -53.9906 N.am      18 UNK        -0.5000 
    100 CA         0.7228  -19.6501  -53.5800 C.3       18 UNK         0.1400 
    101 CB         2.0379  -19.9142  -52.8319 C.3       18 UNK        -0.1800 
    102 C         -0.2247  -18.7609  -52.7517 C.2       18 UNK         0.5000 
    103 O         -0.0030  -17.5523  -52.6769 O.2       18 UNK        -0.5000 
    104 N         -1.2890  -19.3463  -52.1874 N.am      19 UNK        -0.5000 
    105 CA        -2.3726  -18.6361  -51.5099 C.3       19 UNK         0.1400 
    106 CB        -2.9324  -19.5313  -50.3937 C.3       19 UNK        -0.1800 
    107 C         -3.4631  -18.2222  -52.5145 C.2       19 UNK         0.5000 
    108 O         -4.6313  -18.5324  -52.3012 O.2       19 UNK        -0.5000 
    109 N         -3.0653  -17.5780  -53.6223 N.am      20 UNK        -0.5000 
    110 CA        -3.9243  -17.1005  -54.7176 C.3       20 UNK         0.1400 
    111 CB        -4.6969  -15.8444  -54.2666 C.3       20 UNK        -0.1800 
    112 C         -4.8544  -18.1904  -55.3038 C.2       20 UNK         0.5000 
    113 O         -5.9960  -17.9026  -55.6675 O.2       20 UNK        -0.5000 
    114 N         -4.3424  -19.4285  -55.3571 N.am      21 UNK        -0.5000 
    115 CA        -5.0261  -20.6626  -55.7532 C.3       21 UNK         0.1400 
    116 CB        -5.4584  -20.6089  -57.2337 C.3       21 UNK        -0.1800 
    117 C         -6.1632  -21.1184  -54.8094 C.2       21 UNK         0.5000 
    118 O         -6.9657  -21.9625  -55.2132 O.2       21 UNK        -0.5000 
    119 N         -6.2109  -20.6060  -53.5704 N.am      22 UNK        -0.5000 
    120 CA        -7.1553  -21.0586  -52.5321 C.3       22 UNK         0.1400 
    121 C         -6.8290  -22.4614  -51.9423 C.2       22 UNK         0.5000 
    122 N         -5.6118  -22.9788  -52.0631 N.am      22 UNK        -0.7600 
    123 O         -7.7052  -23.0992  -51.3652 O.2       22 UNK        -0.5000 
    124 C124       -7.3289  -20.0259  -51.3886 C.3       23 UNK        -0.0398 
    125 S125       -8.0172  -18.4392  -51.9676 S.3       23 UNK        -0.2404 
    126 C126       -8.2083  -17.5429  -50.3923 C.3       23 UNK        -0.0205 
    127 H127       -2.0359   -8.9894  -47.5687 H         1 UNK         0.0600 
    128 H128       -1.5352   -8.1405  -49.0337 H         1 UNK         0.0600 
    129 H129       -0.3822   -8.3887  -47.7179 H         1 UNK         0.0600 
    130 H130       -2.1572  -11.1939  -47.8540 H         1 UNK         0.3000 
    131 H131       -1.0340  -12.5881  -50.0880 H         1 UNK         0.0600 
    132 H132       -1.8755  -14.6462  -48.7942 H         1 UNK         0.0800 
    133 H133       -2.4171  -13.5734  -47.5349 H         1 UNK         0.0800 
    134 H134       -4.3563  -14.5852  -51.4506 H         1 UNK         0.0800 
    135 H135       -2.9603  -15.2934  -50.6970 H         1 UNK         0.0800 
    136 H136       -6.3675  -15.7611  -51.2831 H         1 UNK         0.1150 
    137 H137       -7.1050  -18.5076  -48.0896 H         1 UNK         0.1150 
    138 H138       -3.4928  -16.1936  -48.1385 H         1 UNK         0.1150 
    139 H139       -5.4117  -17.5645  -45.8311 H         1 UNK         0.0800 
    140 H140       -5.2615  -19.1101  -46.6302 H         1 UNK         0.0800 
    141 H141       -2.8450  -18.7740  -43.9487 H         1 UNK         0.0800 
    142 H142       -4.0433  -19.7778  -44.7013 H         1 UNK         0.0800 
    143 H143       -1.0278  -19.9179  -45.2289 H         1 UNK         0.0600 
    144 H144       -0.9086  -20.9889  -43.3344 H         1 UNK         0.3000 
    145 H145       -2.8702  -23.4868  -41.6852 H         1 UNK         0.0600 
    146 H146       -0.7275  -24.7041  -41.7675 H         1 UNK         0.0600 
    147 H147       -1.4578  -24.7184  -43.3633 H         1 UNK         0.0600 
    148 H148       -0.1200  -23.6326  -43.0269 H         1 UNK         0.0600 
    149 H149       -0.3546  -22.1134  -41.1798 H         1 UNK         0.3000 
    150 H150       -1.7685  -19.9560  -38.6862 H         1 UNK         0.0600 
    151 H151       -1.0884  -22.2227  -37.7645 H         1 UNK         0.0600 
    152 H152        0.1430  -21.0019  -37.5075 H         1 UNK         0.0600 
    153 H153        0.3419  -22.1932  -38.7894 H         1 UNK         0.0600 
    154 H154       -0.2014  -19.9738  -41.0405 H         1 UNK         0.3000 
    155 H155        0.6302  -17.5390  -41.2693 H         1 UNK         0.0600 
    156 H156        1.7834  -16.3090  -39.4417 H         1 UNK         0.0600 
    157 H157        2.8033  -16.4117  -40.8621 H         1 UNK         0.0600 
    158 H158        3.1150  -17.4619  -39.4803 H         1 UNK         0.0600 
    159 H159        3.1586  -18.7639  -41.5781 H         1 UNK         0.3000 
    160 H160        3.4406  -20.8983  -42.8339 H         1 UNK         0.0600 
    161 H161        1.3614  -20.9380  -45.0985 H         1 UNK         0.0600 
    162 H162        1.6134  -22.2045  -43.9018 H         1 UNK         0.0600 
    163 H163        2.8695  -21.8481  -45.0762 H         1 UNK         0.0600 
    164 H164        2.7141  -18.6600  -44.6695 H         1 UNK         0.3000 
    165 H165        6.1469  -17.6661  -44.8749 H         1 UNK         0.0600 
    166 H166        4.1306  -18.4664  -47.0409 H         1 UNK         0.0600 
    167 H167        5.5187  -17.4032  -47.2613 H         1 UNK         0.0600 
    168 H168        5.7642  -19.1020  -46.8837 H         1 UNK         0.0600 
    169 H169        3.8042  -16.3621  -45.7635 H         1 UNK         0.3000 
    170 H170        3.1778  -14.4919  -42.7508 H         1 UNK         0.0600 
    171 H171        3.3961  -12.7123  -44.4717 H         1 UNK         0.0600 
    172 H172        4.9690  -13.3617  -44.0336 H         1 UNK         0.0600 
    173 H173        4.2217  -13.8283  -45.5558 H         1 UNK         0.0600 
    174 H174        2.0701  -15.1447  -45.4469 H         1 UNK         0.3000 
    175 H175       -0.6923  -16.7224  -44.1508 H         1 UNK         0.0600 
    176 H176       -2.2549  -15.0920  -45.2055 H         1 UNK         0.0600 
    177 H177       -1.7155  -14.5238  -43.6339 H         1 UNK         0.0600 
    178 H178       -1.0306  -13.8258  -45.0949 H         1 UNK         0.0600 
    179 H179       -0.1565  -15.4824  -46.7107 H         1 UNK         0.3000 
    180 H180        1.8441  -18.1332  -47.9763 H         1 UNK         0.0600 
    181 H181       -1.0556  -17.3710  -48.6215 H         1 UNK         0.0600 
    182 H182       -0.5546  -18.9577  -48.0651 H         1 UNK         0.0600 
    183 H183        0.0344  -18.3480  -49.6075 H         1 UNK         0.0600 
    184 H184        0.7724  -15.9226  -49.3242 H         1 UNK         0.3000 
    185 H185        2.9853  -13.3400  -48.3350 H         1 UNK         0.0600 
    186 H186        3.4593  -13.3072  -50.7711 H         1 UNK         0.0600 
    187 H187        4.2966  -14.6511  -50.0116 H         1 UNK         0.0600 
    188 H188        2.8346  -14.9478  -50.9449 H         1 UNK         0.0600 
    189 H189        0.9508  -13.4468  -50.3172 H         1 UNK         0.3000 
    190 H190       -4.0213  -20.6426  -46.5797 H         1 UNK         0.3000 
    191 H191       -3.0639  -21.8578  -48.8846 H         1 UNK         0.0600 
    192 H192       -5.5114  -22.2523  -49.3383 H         1 UNK         0.0600 
    193 H193       -5.2081  -20.6265  -48.7539 H         1 UNK         0.0600 
    194 H194       -5.8822  -21.8440  -47.6712 H         1 UNK         0.0600 
    195 H195       -3.9279  -23.4705  -45.8717 H         1 UNK         0.3000 
    196 H196       -4.2979  -26.0971  -46.9930 H         1 UNK         0.0600 
    197 H197       -4.1255  -26.8307  -44.6238 H         1 UNK         0.0600 
    198 H198       -5.2110  -25.4587  -44.7803 H         1 UNK         0.0600 
    199 H199       -3.5855  -25.2288  -44.1444 H         1 UNK         0.0600 
    200 H200       -1.4476  -24.2000  -46.3830 H         1 UNK         0.3000 
    201 H201        0.3274  -26.5878  -46.7901 H         1 UNK         0.0600 
    202 H202        0.7641  -25.4823  -44.6294 H         1 UNK         0.0600 
    203 H203        0.8942  -23.9113  -45.4197 H         1 UNK         0.0600 
    204 H204        2.0924  -25.1623  -45.7333 H         1 UNK         0.0600 
    205 H205       -0.2554  -23.1361  -47.6330 H         1 UNK         0.3000 
    206 H206        1.8536  -23.0096  -49.5604 H         1 UNK         0.0600 
    207 H207        1.0714  -21.0664  -48.2389 H         1 UNK         0.0600 
    208 H208        0.8902  -20.7282  -49.9525 H         1 UNK         0.0600 
    209 H209       -0.5154  -21.1674  -48.9960 H         1 UNK         0.0600 
    210 H210       -1.5414  -23.8856  -49.8424 H         1 UNK         0.3000 
    211 H211       -2.9136  -24.4331  -51.4888 H         1 UNK         0.0600 
    212 H212       -0.3172  -25.5320  -52.6984 H         1 UNK         0.0600 
    213 H213       -1.9439  -25.9915  -53.2041 H         1 UNK         0.0600 
    214 H214       -1.3949  -26.3501  -51.5777 H         1 UNK         0.0600 
    215 H215       -0.6955  -24.1548  -54.1153 H         1 UNK         0.3000 
    216 H216       -2.3088  -22.4198  -55.6499 H         1 UNK         0.0600 
    217 H217        0.6254  -23.2148  -55.9902 H         1 UNK         0.0600 
    218 H218       -0.7706  -24.0718  -56.6448 H         1 UNK         0.0600 
    219 H219       -0.3762  -22.4623  -57.2260 H         1 UNK         0.0600 
    220 H220        0.4665  -21.7580  -53.5190 H         1 UNK         0.3000 
    221 H221        0.9660  -19.0883  -54.4844 H         1 UNK         0.0600 
    222 H222        2.7631  -20.4068  -53.4796 H         1 UNK         0.0600 
    223 H223        2.4906  -18.9831  -52.4882 H         1 UNK         0.0600 
    224 H224        1.8894  -20.5495  -51.9610 H         1 UNK         0.0600 
    225 H225       -1.4391  -20.3328  -52.3523 H         1 UNK         0.3000 
    226 H226       -1.9938  -17.7225  -51.0482 H         1 UNK         0.0600 
    227 H227       -3.3463  -20.4573  -50.7941 H         1 UNK         0.0600 
    228 H228       -2.1654  -19.7870  -49.6683 H         1 UNK         0.0600 
    229 H229       -3.7284  -19.0242  -49.8491 H         1 UNK         0.0600 
    230 H230       -2.0759  -17.3930  -53.7243 H         1 UNK         0.3000 
    231 H231       -3.2554  -16.8063  -55.5275 H         1 UNK         0.0600 
    232 H232       -5.2468  -15.4007  -55.0973 H         1 UNK         0.0600 
    233 H233       -4.0199  -15.0809  -53.8841 H         1 UNK         0.0600 
    234 H234       -5.4188  -16.0796  -53.4840 H         1 UNK         0.0600 
    235 H235       -3.3770  -19.5450  -55.0697 H         1 UNK         0.3000 
    236 H236       -4.2753  -21.4450  -55.6723 H         1 UNK         0.0600 
    237 H237       -4.6300  -20.3096  -57.8758 H         1 UNK         0.0600 
    238 H238       -5.7961  -21.5864  -57.5798 H         1 UNK         0.0600 
    239 H239       -6.2781  -19.9080  -57.3924 H         1 UNK         0.0600 
    240 H240       -5.5553  -19.8821  -53.2874 H         1 UNK         0.3000 
    241 H241       -8.1311  -21.1639  -53.0104 H         1 UNK         0.0600 
    242 H242       -4.8535  -22.4640  -52.4949 H         1 UNK         0.3800 
    243 H243       -5.4372  -23.8904  -51.6742 H         1 UNK         0.3800 
    244 H244       -8.0019  -20.4135  -50.6216 H         1 UNK         0.0800 
    245 H245       -6.3752  -19.8427  -50.8920 H         1 UNK         0.0800 
    246 H246       -8.8150  -18.1391  -49.7090 H         1 UNK         0.0800 
    247 H247       -8.7712  -16.6272  -50.5779 H         1 UNK         0.0800 
@<TRIPOS>BOND
     1    1    2 1    
     2    1  127 1    
     3    1  128 1    
     4    1  129 1    
     5    2    3 2    
     6    2    4 am   BACKBONE|DICT|INTERRES
     7    4    5 1    
     8    4  130 1    
     9    5    6 1    
    10    5   65 1    
    11    5  131 1    
    12    6    7 1    
    13    6  132 1    
    14    6  133 1    
    15    7    8 1    
    16    8    9 1    
    17    8  134 1    
    18    8  135 1    
    19    9   10 ar   
    20    9   14 ar   
    21   10   11 ar   
    22   10  136 1    
    23   11   12 ar   
    24   11  126 1    
    25   12   13 ar   
    26   12  137 1    
    27   13   14 ar   
    28   13   15 1    
    29   14  138 1    
    30   15   16 1    
    31   15  139 1    
    32   15  140 1    
    33   16   17 1    
    34   17   18 1    
    35   17  141 1    
    36   17  142 1    
    37   18   19 1    
    38   18   67 1    
    39   18  143 1    
    40   19   20 am   BACKBONE|DICT|INTERRES
    41   19  144 1    
    42   20   21 2    
    43   20   22 1    
    44   22   23 1    
    45   22   24 1    
    46   22  145 1    
    47   23  146 1    
    48   23  147 1    
    49   23  148 1    
    50   24   25 am   BACKBONE|DICT|INTERRES
    51   24  149 1    
    52   25   26 2    
    53   25   27 1    
    54   27   28 1    
    55   27   29 1    
    56   27  150 1    
    57   28  151 1    
    58   28  152 1    
    59   28  153 1    
    60   29   30 am   BACKBONE|DICT|INTERRES
    61   29  154 1    
    62   30   31 2    
    63   30   32 1    
    64   32   33 1    
    65   32   34 1    
    66   32  155 1    
    67   33  156 1    
    68   33  157 1    
    69   33  158 1    
    70   34   35 am   BACKBONE|DICT|INTERRES
    71   34  159 1    
    72   35   36 2    
    73   35   37 1    
    74   37   38 1    
    75   37   39 1    
    76   37  160 1    
    77   38  161 1    
    78   38  162 1    
    79   38  163 1    
    80   39   40 am   BACKBONE|DICT|INTERRES
    81   39  164 1    
    82   40   41 2    
    83   40   42 1    
    84   42   43 1    
    85   42   44 1    
    86   42  165 1    
    87   43  166 1    
    88   43  167 1    
    89   43  168 1    
    90   44   45 am   BACKBONE|DICT|INTERRES
    91   44  169 1    
    92   45   46 2    
    93   45   47 1    
    94   47   48 1    
    95   47   49 1    
    96   47  170 1    
    97   48  171 1    
    98   48  172 1    
    99   48  173 1    
   100   49   50 am   BACKBONE|DICT|INTERRES
   101   49  174 1    
   102   50   51 2    
   103   50   52 1    
   104   52   53 1    
   105   52   54 1    
   106   52  175 1    
   107   53  176 1    
   108   53  177 1    
   109   53  178 1    
   110   54   55 am   BACKBONE|DICT|INTERRES
   111   54  179 1    
   112   55   56 2    
   113   55   57 1    
   114   57   58 1    
   115   57   59 1    
   116   57  180 1    
   117   58  181 1    
   118   58  182 1    
   119   58  183 1    
   120   59   60 am   BACKBONE|DICT|INTERRES
   121   59  184 1    
   122   60   61 2    
   123   60   62 1    
   124   62   63 1    
   125   62   64 1    
   126   62  185 1    
   127   63  186 1    
   128   63  187 1    
   129   63  188 1    
   130   64   65 am   BACKBONE|DICT|INTERRES
   131   64  189 1    
   132   65   66 2    
   133   67   68 2    
   134   67   69 am   BACKBONE|DICT|INTERRES
   135   69   70 1    
   136   69  190 1    
   137   70   71 1    
   138   70   72 1    
   139   70  191 1    
   140   71  192 1    
   141   71  193 1    
   142   71  194 1    
   143   72   73 2    
   144   72   74 am   BACKBONE|DICT|INTERRES
   145   74   75 1    
   146   74  195 1    
   147   75   76 1    
   148   75   77 1    
   149   75  196 1    
   150   76  197 1    
   151   76  198 1    
   152   76  199 1    
   153   77   78 2    
   154   77   79 am   BACKBONE|DICT|INTERRES
   155   79   80 1    
   156   79  200 1    
   157   80   81 1    
   158   80   82 1    
   159   80  201 1    
   160   81  202 1    
   161   81  203 1    
   162   81  204 1    
   163   82   83 2    
   164   82   84 am   BACKBONE|DICT|INTERRES
   165   84   85 1    
   166   84  205 1    
   167   85   86 1    
   168   85   87 1    
   169   85  206 1    
   170   86  207 1    
   171   86  208 1    
   172   86  209 1    
   173   87   88 2    
   174   87   89 am   BACKBONE|DICT|INTERRES
   175   89   90 1    
   176   89  210 1    
   177   90   91 1    
   178   90   92 1    
   179   90  211 1    
   180   91  212 1    
   181   91  213 1    
   182   91  214 1    
   183   92   93 2    
   184   92   94 am   BACKBONE|DICT|INTERRES
   185   94   95 1    
   186   94  215 1    
   187   95   96 1    
   188   95   97 1    
   189   95  216 1    
   190   96  217 1    
   191   96  218 1    
   192   96  219 1    
   193   97   98 2    
   194   97   99 am   BACKBONE|DICT|INTERRES
   195   99  100 1    
   196   99  220 1    
   197  100  101 1    
   198  100  102 1    
   199  100  221 1    
   200  101  222 1    
   201  101  223 1    
   202  101  224 1    
   203  102  103 2    
   204  102  104 am   BACKBONE|DICT|INTERRES
   205  104  105 1    
   206  104  225 1    
   207  105  106 1    
   208  105  107 1    
   209  105  226 1    
   210  106  227 1    
   211  106  228 1    
   212  106  229 1    
   213  107  108 2    
   214  107  109 am   BACKBONE|DICT|INTERRES
   215  109  110 1    
   216  109  230 1    
   217  110  111 1    
   218  110  112 1    
   219  110  231 1    
   220  111  232 1    
   221  111  233 1    
   222  111  234 1    
   223  112  113 2    
   224  112  114 am   BACKBONE|DICT|INTERRES
   225  114  115 1    
   226  114  235 1    
   227  115  116 1    
   228  115  117 1    
   229  115  236 1    
   230  116  237 1    
   231  116  238 1    
   232  116  239 1    
   233  117  118 2    
   234  117  119 am   BACKBONE|DICT|INTERRES
   235  119  120 1    
   236  119  240 1    
   237  120  121 1    
   238  120  124 1    
   239  120  241 1    
   240  121  122 am   BACKBONE|DICT|INTERRES
   241  121  123 2    
   242  122  242 1    
   243  122  243 1    
   244  124  125 1    
   245  124  244 1    
   246  124  245 1    
   247  125  126 1    
   248  126  246 1    
   249  126  247 1    
@<TRIPOS>SUBSTRUCTURE
     1 UNK         1 GROUP             0       ****    0 ROOT    
