@<TRIPOS>MOLECULE
3R540
247   249    1
SMALL
USER_CHARGES


@<TRIPOS>ATOM
      1 CA         -1.4894  -17.7888  -43.8334 C.3       0 UNK        -0.1800 
      2 C          -2.2103  -16.4522  -43.7672 C.2       0 UNK         0.5000 
      3 O          -2.9079  -16.1858  -42.7885 O.2       0 UNK        -0.5000 
      4 N          -2.0431  -15.6169  -44.7978 N.am      1 UNK        -0.5000 
      5 CA         -2.7336  -14.3359  -44.9713 C.3       1 UNK         0.1400 
      6 C6         -3.6989  -14.3593  -46.1848 C.3       23 UNK        -0.0398 
      7 S7         -5.0154  -15.6105  -46.0141 S.3       23 UNK        -0.2404 
      8 C8         -4.8988  -16.4945  -47.6011 C.3       23 UNK        -0.0205 
      9 C9         -3.6312  -17.3291  -47.7372 C.ar      23 UNK        -0.0193 
     10 C10        -2.6853  -17.0187  -48.7194 C.ar      23 UNK        -0.1150 
     11 C11        -1.5618  -17.8284  -48.9166 C.ar      23 UNK        -0.0193 
     12 C12        -1.4008  -18.9642  -48.1158 C.ar      23 UNK        -0.1150 
     13 C13        -2.3192  -19.2740  -47.1092 C.ar      23 UNK        -0.0193 
     14 C14        -3.4352  -18.4519  -46.9277 C.ar      23 UNK        -0.1150 
     15 C15        -2.1391  -20.5189  -46.2489 C.3       23 UNK        -0.0205 
     16 S16        -0.4160  -20.7620  -45.6928 S.3       23 UNK        -0.2404 
     17 C17        -0.6044  -22.2485  -44.6567 C.3       23 UNK        -0.0398 
     18 CA         -0.6028  -23.5498  -45.4928 C.3       11 UNK         0.1400 
     19 N           0.6712  -23.7802  -46.1913 N.am      11 UNK        -0.5000 
     20 C           0.8870  -24.7247  -47.1229 C.2       10 UNK         0.5000 
     21 O           0.0255  -25.5274  -47.4769 O.2       10 UNK        -0.5000 
     22 CA          2.2957  -24.8385  -47.7364 C.3       10 UNK         0.1400 
     23 CB          2.3322  -24.1293  -49.0992 C.3       10 UNK        -0.1800 
     24 N           3.3584  -24.2961  -46.8922 N.am      10 UNK        -0.5000 
     25 C           3.6648  -24.6871  -45.6458 C.2       9 UNK         0.5000 
     26 O           3.1362  -25.6446  -45.0792 O.2       9 UNK        -0.5000 
     27 CA          4.6966  -23.8212  -44.8896 C.3       9 UNK         0.1400 
     28 CB          6.0730  -24.5031  -44.8873 C.3       9 UNK        -0.1800 
     29 N           4.8346  -22.4631  -45.4353 N.am      9 UNK        -0.5000 
     30 C           3.8491  -21.5561  -45.4885 C.2       8 UNK         0.5000 
     31 O           2.7243  -21.7457  -45.0195 O.2       8 UNK        -0.5000 
     32 CA          4.1500  -20.2673  -46.2639 C.3       8 UNK         0.1400 
     33 CB          4.2963  -20.5603  -47.7701 C.3       8 UNK        -0.1800 
     34 N           3.0653  -19.3145  -46.0542 N.am      8 UNK        -0.5000 
     35 C           3.1541  -17.9994  -46.2651 C.2       7 UNK         0.5000 
     36 O           4.1837  -17.4339  -46.6477 O.2       7 UNK        -0.5000 
     37 CA          1.8973  -17.1678  -45.9768 C.3       7 UNK         0.1400 
     38 CB          1.7669  -16.8812  -44.4717 C.3       7 UNK        -0.1800 
     39 N           2.0234  -15.9118  -46.7038 N.am      7 UNK        -0.5000 
     40 C           1.0203  -15.1923  -47.2079 C.2       6 UNK         0.5000 
     41 O          -0.1724  -15.4447  -47.0195 O.2       6 UNK        -0.5000 
     42 CA          1.4314  -13.9796  -48.0571 C.3       6 UNK         0.1400 
     43 CB          2.1584  -14.4026  -49.3475 C.3       6 UNK        -0.1800 
     44 N           0.2501  -13.1975  -48.4052 N.am      6 UNK        -0.5000 
     45 C           0.2227  -11.8763  -48.6084 C.2       5 UNK         0.5000 
     46 O           1.2049  -11.1463  -48.4680 O.2       5 UNK        -0.5000 
     47 CA         -1.1122  -11.2537  -49.0492 C.3       5 UNK         0.1400 
     48 CB         -2.1419  -12.2750  -49.5763 C.3       5 UNK        -0.1800 
     49 N          -1.6897  -10.5382  -47.9189 N.am      5 UNK        -0.5000 
     50 C          -2.1495   -9.2829  -47.9370 C.2       4 UNK         0.5000 
     51 O          -2.0993   -8.5515  -48.9272 O.2       4 UNK        -0.5000 
     52 CA         -2.7881   -8.7468  -46.6437 C.3       4 UNK         0.1400 
     53 CB         -4.2921   -9.0654  -46.6205 C.3       4 UNK        -0.1800 
     54 N          -2.1696   -9.2951  -45.4331 N.am      4 UNK        -0.5000 
     55 C          -1.7245   -8.5598  -44.4034 C.2       3 UNK         0.5000 
     56 O          -1.7536   -7.3284  -44.3811 O.2       3 UNK        -0.5000 
     57 CA         -1.1660   -9.3096  -43.1741 C.3       3 UNK         0.1400 
     58 CB         -2.2279   -9.3821  -42.0658 C.3       3 UNK        -0.1800 
     59 N          -0.7046  -10.6657  -43.4700 N.am      3 UNK        -0.5000 
     60 C           0.3834  -10.9622  -44.1916 C.2       2 UNK         0.5000 
     61 O           1.1739  -10.1147  -44.6068 O.2       2 UNK        -0.5000 
     62 CA          0.6246  -12.4481  -44.5307 C.3       2 UNK         0.1400 
     63 CB          1.7612  -13.0207  -43.6713 C.3       2 UNK        -0.1800 
     64 N          -0.5440  -13.3344  -44.4282 N.am      2 UNK        -0.5000 
     65 C          -1.7050  -13.1934  -45.0859 C.2       1 UNK         0.5000 
     66 O          -1.9702  -12.2018  -45.7652 O.2       1 UNK        -0.5000 
     67 C          -1.1020  -24.7490  -44.6550 C.2       11 UNK         0.5000 
     68 O          -2.2700  -24.7544  -44.2672 O.2       11 UNK        -0.5000 
     69 N          -0.2675  -25.7812  -44.4618 N.am      12 UNK        -0.5000 
     70 CA         -0.6750  -27.1092  -43.9940 C.3       12 UNK         0.1400 
     71 CB          0.5780  -27.9822  -43.8311 C.3       12 UNK        -0.1800 
     72 C          -1.7005  -27.8019  -44.9236 C.2       12 UNK         0.5000 
     73 O          -2.4911  -28.6159  -44.4460 O.2       12 UNK        -0.5000 
     74 N          -1.6978  -27.4453  -46.2181 N.am      13 UNK        -0.5000 
     75 CA         -2.6793  -27.8735  -47.2187 C.3       13 UNK         0.1400 
     76 CB         -2.0119  -27.8571  -48.6036 C.3       13 UNK        -0.1800 
     77 C          -3.9596  -27.0080  -47.2202 C.2       13 UNK         0.5000 
     78 O          -4.8794  -27.3035  -47.9853 O.2       13 UNK        -0.5000 
     79 N          -4.0026  -25.9646  -46.3761 N.am      14 UNK        -0.5000 
     80 CA         -5.1153  -25.0438  -46.1385 C.3       14 UNK         0.1400 
     81 CB         -6.2378  -25.7640  -45.3580 C.3       14 UNK        -0.1800 
     82 C          -5.5879  -24.3429  -47.4282 C.2       14 UNK         0.5000 
     83 O          -4.8205  -23.5747  -48.0133 O.2       14 UNK        -0.5000 
     84 N          -6.8299  -24.6209  -47.8493 N.am      15 UNK        -0.5000 
     85 CA         -7.5113  -24.0276  -49.0014 C.3       15 UNK         0.1400 
     86 CB         -8.9138  -24.6407  -49.1255 C.3       15 UNK        -0.1800 
     87 C          -6.7493  -24.1619  -50.3318 C.2       15 UNK         0.5000 
     88 O          -6.8116  -23.2495  -51.1548 O.2       15 UNK        -0.5000 
     89 N          -6.0163  -25.2707  -50.5046 N.am      16 UNK        -0.5000 
     90 CA         -5.1934  -25.5370  -51.6854 C.3       16 UNK         0.1400 
     91 CB         -4.7064  -26.9919  -51.6429 C.3       16 UNK        -0.1800 
     92 C          -4.0028  -24.5693  -51.8268 C.2       16 UNK         0.5000 
     93 O          -3.6166  -24.2503  -52.9514 O.2       16 UNK        -0.5000 
     94 N          -3.4588  -24.1069  -50.6930 N.am      17 UNK        -0.5000 
     95 CA         -2.4027  -23.0988  -50.6471 C.3       17 UNK         0.1400 
     96 CB         -1.5483  -23.3061  -49.3927 C.3       17 UNK        -0.1800 
     97 C          -2.9843  -21.6800  -50.6823 C.2       17 UNK         0.5000 
     98 O          -2.4273  -20.8236  -51.3650 O.2       17 UNK        -0.5000 
     99 N          -4.1049  -21.4621  -49.9791 N.am      18 UNK        -0.5000 
    100 CA        -4.7944  -20.1717  -49.9027 C.3       18 UNK         0.1400 
    101 CB        -5.8979  -20.2488  -48.8390 C.3       18 UNK        -0.1800 
    102 C         -5.3681  -19.6898  -51.2491 C.2       18 UNK         0.5000 
    103 O         -5.4259  -18.4835  -51.4875 O.2       18 UNK        -0.5000 
    104 N         -5.7669  -20.6359  -52.1095 N.am      19 UNK        -0.5000 
    105 CA        -6.2152  -20.3828  -53.4797 C.3       19 UNK         0.1400 
    106 CB        -7.0335  -21.5919  -53.9599 C.3       19 UNK        -0.1800 
    107 C         -5.0597  -20.0950  -54.4620 C.2       19 UNK         0.5000 
    108 O         -5.3231  -19.6370  -55.5752 O.2       19 UNK        -0.5000 
    109 N         -3.8169  -20.3826  -54.0572 N.am      20 UNK        -0.5000 
    110 CA        -2.6010  -20.1850  -54.8403 C.3       20 UNK         0.1400 
    111 CB        -1.7409  -21.4570  -54.7156 C.3       20 UNK        -0.1800 
    112 C         -1.8347  -18.9417  -54.3502 C.2       20 UNK         0.5000 
    113 O         -2.2667  -18.2584  -53.4197 O.2       20 UNK        -0.5000 
    114 N         -0.6886  -18.6734  -54.9889 N.am      21 UNK        -0.5000 
    115 CA         0.2409  -17.6026  -54.6145 C.3       21 UNK         0.1400 
    116 CB         1.1334  -17.2831  -55.8246 C.3       21 UNK        -0.1800 
    117 C          1.1063  -17.9428  -53.3815 C.2       21 UNK         0.5000 
    118 O          1.7614  -17.0452  -52.8528 O.2       21 UNK        -0.5000 
    119 N          1.1166  -19.2247  -52.9852 N.am      22 UNK        -0.5000 
    120 CA         1.8081  -19.8832  -51.8559 C.3       22 UNK         0.1400 
    121 C          3.3534  -19.7110  -51.7294 C.2       22 UNK         0.5000 
    122 N          3.9687  -18.6980  -52.3199 N.am      22 UNK        -0.7600 
    123 O          4.0112  -20.5474  -51.1177 O.2       22 UNK        -0.5000 
    124 C124        1.0732  -19.7200  -50.4959 C.3       23 UNK        -0.0398 
    125 S125        1.1422  -18.0491  -49.7577 S.3       23 UNK        -0.2404 
    126 C126       -0.5696  -17.4614  -50.0210 C.3       23 UNK        -0.0205 
    127 H127       -0.7648  -17.8707  -43.0238 H         1 UNK         0.0600 
    128 H128       -0.9665  -17.9124  -44.7814 H         1 UNK         0.0600 
    129 H129       -2.2047  -18.6048  -43.7353 H         1 UNK         0.0600 
    130 H130       -1.4292  -15.8661  -45.5706 H         1 UNK         0.3000 
    131 H131       -3.3256  -14.1009  -44.0850 H         1 UNK         0.0600 
    132 H132       -4.1912  -13.3933  -46.3096 H         1 UNK         0.0800 
    133 H133       -3.1385  -14.5387  -47.1030 H         1 UNK         0.0800 
    134 H134       -5.7624  -17.1537  -47.6912 H         1 UNK         0.0800 
    135 H135       -4.9825  -15.7761  -48.4181 H         1 UNK         0.0800 
    136 H136       -2.8345  -16.1542  -49.3505 H         1 UNK         0.1150 
    137 H137       -0.5565  -19.6180  -48.2668 H         1 UNK         0.1150 
    138 H138       -4.1681  -18.6953  -46.1716 H         1 UNK         0.1150 
    139 H139       -2.7872  -20.4675  -45.3730 H         1 UNK         0.0800 
    140 H140       -2.4631  -21.3838  -46.8283 H         1 UNK         0.0800 
    141 H141       -1.5268  -22.1449  -44.0819 H         1 UNK         0.0800 
    142 H142        0.2059  -22.2662  -43.9263 H         1 UNK         0.0800 
    143 H143       -1.3562  -23.4330  -46.2726 H         1 UNK         0.0600 
    144 H144        1.4285  -23.1566  -45.9347 H         1 UNK         0.3000 
    145 H145        2.5023  -25.8994  -47.8900 H         1 UNK         0.0600 
    146 H146        3.3019  -24.2485  -49.5828 H         1 UNK         0.0600 
    147 H147        1.5816  -24.5423  -49.7746 H         1 UNK         0.0600 
    148 H148        2.1329  -23.0611  -49.0034 H         1 UNK         0.0600 
    149 H149        3.8605  -23.5054  -47.2657 H         1 UNK         0.3000 
    150 H150        4.3529  -23.7341  -43.8569 H         1 UNK         0.0600 
    151 H151        6.4765  -24.5987  -45.8961 H         1 UNK         0.0600 
    152 H152        6.0116  -25.5057  -44.4619 H         1 UNK         0.0600 
    153 H153        6.7909  -23.9418  -44.2889 H         1 UNK         0.0600 
    154 H154        5.7307  -22.2359  -45.8425 H         1 UNK         0.3000 
    155 H155        5.0804  -19.8484  -45.8750 H         1 UNK         0.0600 
    156 H156        3.3829  -20.9880  -48.1844 H         1 UNK         0.0600 
    157 H157        5.1076  -21.2617  -47.9667 H         1 UNK         0.0600 
    158 H158        4.5189  -19.6542  -48.3340 H         1 UNK         0.0600 
    159 H159        2.2143  -19.7279  -45.6895 H         1 UNK         0.3000 
    160 H160        1.0228  -17.7163  -46.3352 H         1 UNK         0.0600 
    161 H161        0.9234  -16.2244  -44.2643 H         1 UNK         0.0600 
    162 H162        2.6645  -16.4049  -44.0755 H         1 UNK         0.0600 
    163 H163        1.6120  -17.8039  -43.9118 H         1 UNK         0.0600 
    164 H164        2.9808  -15.6853  -46.9440 H         1 UNK         0.3000 
    165 H165        2.1079  -13.3743  -47.4506 H         1 UNK         0.0600 
    166 H166        3.0372  -15.0115  -49.1330 H         1 UNK         0.0600 
    167 H167        1.5091  -14.9845  -50.0019 H         1 UNK         0.0600 
    168 H168        2.5003  -13.5332  -49.9091 H         1 UNK         0.0600 
    169 H169       -0.6061  -13.7338  -48.4492 H         1 UNK         0.3000 
    170 H170       -0.8754  -10.5630  -49.8610 H         1 UNK         0.0600 
    171 H171       -1.7279  -12.8702  -50.3913 H         1 UNK         0.0600 
    172 H172       -2.4780  -12.9579  -48.7961 H         1 UNK         0.0600 
    173 H173       -3.0239  -11.7670  -49.9666 H         1 UNK         0.0600 
    174 H174       -1.7662  -11.0851  -47.0631 H         1 UNK         0.3000 
    175 H175       -2.6741   -7.6611  -46.6704 H         1 UNK         0.0600 
    176 H176       -4.7758   -8.6157  -45.7533 H         1 UNK         0.0600 
    177 H177       -4.7897   -8.6752  -47.5093 H         1 UNK         0.0600 
    178 H178       -4.4736  -10.1406  -46.5857 H         1 UNK         0.0600 
    179 H179       -2.0934  -10.3055  -45.3795 H         1 UNK         0.3000 
    180 H180       -0.3176   -8.7347  -42.7966 H         1 UNK         0.0600 
    181 H181       -3.0988   -9.9585  -42.3805 H         1 UNK         0.0600 
    182 H182       -2.5758   -8.3853  -41.7915 H         1 UNK         0.0600 
    183 H183       -1.8264   -9.8438  -41.1634 H         1 UNK         0.0600 
    184 H184       -1.2957  -11.4247  -43.1655 H         1 UNK         0.3000 
    185 H185        0.9482  -12.4677  -45.5712 H         1 UNK         0.0600 
    186 H186        2.6461  -12.3840  -43.7118 H         1 UNK         0.0600 
    187 H187        1.4678  -13.1097  -42.6248 H         1 UNK         0.0600 
    188 H188        2.0623  -14.0060  -44.0239 H         1 UNK         0.0600 
    189 H189       -0.4215  -14.1750  -43.8830 H         1 UNK         0.3000 
    190 H190        0.6816  -25.6984  -44.8021 H         1 UNK         0.3000 
    191 H191       -1.1439  -26.9908  -43.0151 H         1 UNK         0.0600 
    192 H192        1.2766  -27.5409  -43.1200 H         1 UNK         0.0600 
    193 H193        0.3189  -28.9745  -43.4597 H         1 UNK         0.0600 
    194 H194        1.1027  -28.1111  -44.7788 H         1 UNK         0.0600 
    195 H195       -1.0098  -26.7700  -46.5449 H         1 UNK         0.3000 
    196 H196       -2.9792  -28.9006  -47.0017 H         1 UNK         0.0600 
    197 H197       -2.6440  -28.3473  -49.3437 H         1 UNK         0.0600 
    198 H198       -1.0602  -28.3887  -48.5924 H         1 UNK         0.0600 
    199 H199       -1.8243  -26.8400  -48.9506 H         1 UNK         0.0600 
    200 H200       -3.1937  -25.7980  -45.7905 H         1 UNK         0.3000 
    201 H201       -4.7271  -24.2521  -45.4963 H         1 UNK         0.0600 
    202 H202       -7.0520  -25.0805  -45.1134 H         1 UNK         0.0600 
    203 H203       -6.6571  -26.6029  -45.9146 H         1 UNK         0.0600 
    204 H204       -5.8590  -26.1562  -44.4139 H         1 UNK         0.0600 
    205 H205       -7.3653  -25.2892  -47.3148 H         1 UNK         0.3000 
    206 H206       -7.6286  -22.9641  -48.7940 H         1 UNK         0.0600 
    207 H207       -9.5044  -24.4624  -48.2267 H         1 UNK         0.0600 
    208 H208       -9.4593  -24.2027  -49.9626 H         1 UNK         0.0600 
    209 H209       -8.8686  -25.7180  -49.2905 H         1 UNK         0.0600 
    210 H210       -5.9898  -25.9573  -49.7618 H         1 UNK         0.3000 
    211 H211       -5.8234  -25.4141  -52.5690 H         1 UNK         0.0600 
    212 H212       -4.0932  -27.1797  -50.7624 H         1 UNK         0.0600 
    213 H213       -4.1047  -27.2300  -52.5210 H         1 UNK         0.0600 
    214 H214       -5.5443  -27.6890  -51.6232 H         1 UNK         0.0600 
    215 H215       -3.8761  -24.3670  -49.8082 H         1 UNK         0.3000 
    216 H216       -1.7494  -23.2131  -51.5150 H         1 UNK         0.0600 
    217 H217       -0.7779  -22.5388  -49.3032 H         1 UNK         0.0600 
    218 H218       -1.0467  -24.2709  -49.4388 H         1 UNK         0.0600 
    219 H219       -2.1497  -23.2807  -48.4847 H         1 UNK         0.0600 
    220 H220       -4.4765  -22.2147  -49.4085 H         1 UNK         0.3000 
    221 H221       -4.0595  -19.4323  -49.5857 H         1 UNK         0.0600 
    222 H222       -6.6842  -20.9418  -49.1332 H         1 UNK         0.0600 
    223 H223       -5.5012  -20.5722  -47.8763 H         1 UNK         0.0600 
    224 H224       -6.3636  -19.2744  -48.6911 H         1 UNK         0.0600 
    225 H225       -5.7707  -21.6036  -51.8041 H         1 UNK         0.3000 
    226 H226       -6.8691  -19.5084  -53.4783 H         1 UNK         0.0600 
    227 H227       -7.4084  -21.4375  -54.9724 H         1 UNK         0.0600 
    228 H228       -6.4347  -22.5039  -53.9650 H         1 UNK         0.0600 
    229 H229       -7.8976  -21.7627  -53.3175 H         1 UNK         0.0600 
    230 H230       -3.6674  -20.6441  -53.0899 H         1 UNK         0.3000 
    231 H231       -2.8462  -20.0352  -55.8936 H         1 UNK         0.0600 
    232 H232       -1.3735  -21.6009  -53.6992 H         1 UNK         0.0600 
    233 H233       -0.8749  -21.4215  -55.3769 H         1 UNK         0.0600 
    234 H234       -2.3125  -22.3449  -54.9874 H         1 UNK         0.0600 
    235 H235       -0.4072  -19.2597  -55.7618 H         1 UNK         0.3000 
    236 H236       -0.3343  -16.7069  -54.3707 H         1 UNK         0.0600 
    237 H237        1.8153  -16.4611  -55.6024 H         1 UNK         0.0600 
    238 H238        1.7394  -18.1418  -56.1162 H         1 UNK         0.0600 
    239 H239        0.5373  -16.9830  -56.6866 H         1 UNK         0.0600 
    240 H240        0.5548  -19.8515  -53.5402 H         1 UNK         0.3000 
    241 H241        1.7017  -20.9394  -52.1073 H         1 UNK         0.0600 
    242 H242        3.4000  -17.9571  -52.7186 H         1 UNK         0.3800 
    243 H243        4.9681  -18.5981  -52.2476 H         1 UNK         0.3800 
    244 H244        1.4877  -20.4170  -49.7661 H         1 UNK         0.0800 
    245 H245        0.0311  -20.0181  -50.6127 H         1 UNK         0.0800 
    246 H246       -0.5284  -16.3755  -50.1130 H         1 UNK         0.0800 
    247 H247       -0.9458  -17.8346  -50.9744 H         1 UNK         0.0800 
@<TRIPOS>BOND
     1    1    2 1    
     2    1  127 1    
     3    1  128 1    
     4    1  129 1    
     5    2    3 2    
     6    2    4 am   BACKBONE|DICT|INTERRES
     7    4    5 1    
     8    4  130 1    
     9    5    6 1    
    10    5   65 1    
    11    5  131 1    
    12    6    7 1    
    13    6  132 1    
    14    6  133 1    
    15    7    8 1    
    16    8    9 1    
    17    8  134 1    
    18    8  135 1    
    19    9   10 ar   
    20    9   14 ar   
    21   10   11 ar   
    22   10  136 1    
    23   11   12 ar   
    24   11  126 1    
    25   12   13 ar   
    26   12  137 1    
    27   13   14 ar   
    28   13   15 1    
    29   14  138 1    
    30   15   16 1    
    31   15  139 1    
    32   15  140 1    
    33   16   17 1    
    34   17   18 1    
    35   17  141 1    
    36   17  142 1    
    37   18   19 1    
    38   18   67 1    
    39   18  143 1    
    40   19   20 am   BACKBONE|DICT|INTERRES
    41   19  144 1    
    42   20   21 2    
    43   20   22 1    
    44   22   23 1    
    45   22   24 1    
    46   22  145 1    
    47   23  146 1    
    48   23  147 1    
    49   23  148 1    
    50   24   25 am   BACKBONE|DICT|INTERRES
    51   24  149 1    
    52   25   26 2    
    53   25   27 1    
    54   27   28 1    
    55   27   29 1    
    56   27  150 1    
    57   28  151 1    
    58   28  152 1    
    59   28  153 1    
    60   29   30 am   BACKBONE|DICT|INTERRES
    61   29  154 1    
    62   30   31 2    
    63   30   32 1    
    64   32   33 1    
    65   32   34 1    
    66   32  155 1    
    67   33  156 1    
    68   33  157 1    
    69   33  158 1    
    70   34   35 am   BACKBONE|DICT|INTERRES
    71   34  159 1    
    72   35   36 2    
    73   35   37 1    
    74   37   38 1    
    75   37   39 1    
    76   37  160 1    
    77   38  161 1    
    78   38  162 1    
    79   38  163 1    
    80   39   40 am   BACKBONE|DICT|INTERRES
    81   39  164 1    
    82   40   41 2    
    83   40   42 1    
    84   42   43 1    
    85   42   44 1    
    86   42  165 1    
    87   43  166 1    
    88   43  167 1    
    89   43  168 1    
    90   44   45 am   BACKBONE|DICT|INTERRES
    91   44  169 1    
    92   45   46 2    
    93   45   47 1    
    94   47   48 1    
    95   47   49 1    
    96   47  170 1    
    97   48  171 1    
    98   48  172 1    
    99   48  173 1    
   100   49   50 am   BACKBONE|DICT|INTERRES
   101   49  174 1    
   102   50   51 2    
   103   50   52 1    
   104   52   53 1    
   105   52   54 1    
   106   52  175 1    
   107   53  176 1    
   108   53  177 1    
   109   53  178 1    
   110   54   55 am   BACKBONE|DICT|INTERRES
   111   54  179 1    
   112   55   56 2    
   113   55   57 1    
   114   57   58 1    
   115   57   59 1    
   116   57  180 1    
   117   58  181 1    
   118   58  182 1    
   119   58  183 1    
   120   59   60 am   BACKBONE|DICT|INTERRES
   121   59  184 1    
   122   60   61 2    
   123   60   62 1    
   124   62   63 1    
   125   62   64 1    
   126   62  185 1    
   127   63  186 1    
   128   63  187 1    
   129   63  188 1    
   130   64   65 am   BACKBONE|DICT|INTERRES
   131   64  189 1    
   132   65   66 2    
   133   67   68 2    
   134   67   69 am   BACKBONE|DICT|INTERRES
   135   69   70 1    
   136   69  190 1    
   137   70   71 1    
   138   70   72 1    
   139   70  191 1    
   140   71  192 1    
   141   71  193 1    
   142   71  194 1    
   143   72   73 2    
   144   72   74 am   BACKBONE|DICT|INTERRES
   145   74   75 1    
   146   74  195 1    
   147   75   76 1    
   148   75   77 1    
   149   75  196 1    
   150   76  197 1    
   151   76  198 1    
   152   76  199 1    
   153   77   78 2    
   154   77   79 am   BACKBONE|DICT|INTERRES
   155   79   80 1    
   156   79  200 1    
   157   80   81 1    
   158   80   82 1    
   159   80  201 1    
   160   81  202 1    
   161   81  203 1    
   162   81  204 1    
   163   82   83 2    
   164   82   84 am   BACKBONE|DICT|INTERRES
   165   84   85 1    
   166   84  205 1    
   167   85   86 1    
   168   85   87 1    
   169   85  206 1    
   170   86  207 1    
   171   86  208 1    
   172   86  209 1    
   173   87   88 2    
   174   87   89 am   BACKBONE|DICT|INTERRES
   175   89   90 1    
   176   89  210 1    
   177   90   91 1    
   178   90   92 1    
   179   90  211 1    
   180   91  212 1    
   181   91  213 1    
   182   91  214 1    
   183   92   93 2    
   184   92   94 am   BACKBONE|DICT|INTERRES
   185   94   95 1    
   186   94  215 1    
   187   95   96 1    
   188   95   97 1    
   189   95  216 1    
   190   96  217 1    
   191   96  218 1    
   192   96  219 1    
   193   97   98 2    
   194   97   99 am   BACKBONE|DICT|INTERRES
   195   99  100 1    
   196   99  220 1    
   197  100  101 1    
   198  100  102 1    
   199  100  221 1    
   200  101  222 1    
   201  101  223 1    
   202  101  224 1    
   203  102  103 2    
   204  102  104 am   BACKBONE|DICT|INTERRES
   205  104  105 1    
   206  104  225 1    
   207  105  106 1    
   208  105  107 1    
   209  105  226 1    
   210  106  227 1    
   211  106  228 1    
   212  106  229 1    
   213  107  108 2    
   214  107  109 am   BACKBONE|DICT|INTERRES
   215  109  110 1    
   216  109  230 1    
   217  110  111 1    
   218  110  112 1    
   219  110  231 1    
   220  111  232 1    
   221  111  233 1    
   222  111  234 1    
   223  112  113 2    
   224  112  114 am   BACKBONE|DICT|INTERRES
   225  114  115 1    
   226  114  235 1    
   227  115  116 1    
   228  115  117 1    
   229  115  236 1    
   230  116  237 1    
   231  116  238 1    
   232  116  239 1    
   233  117  118 2    
   234  117  119 am   BACKBONE|DICT|INTERRES
   235  119  120 1    
   236  119  240 1    
   237  120  121 1    
   238  120  124 1    
   239  120  241 1    
   240  121  122 am   BACKBONE|DICT|INTERRES
   241  121  123 2    
   242  122  242 1    
   243  122  243 1    
   244  124  125 1    
   245  124  244 1    
   246  124  245 1    
   247  125  126 1    
   248  126  246 1    
   249  126  247 1    
@<TRIPOS>SUBSTRUCTURE
     1 UNK         1 GROUP             0       ****    0 ROOT    
