@<TRIPOS>MOLECULE
3R540
247   249    1
SMALL
USER_CHARGES


@<TRIPOS>ATOM
      1 CA          7.7479  -14.3893  -48.4025 C.3       0 UNK        -0.1800 
      2 C           6.5298  -13.7141  -47.7884 C.2       0 UNK         0.5000 
      3 O           6.2800  -12.5411  -48.0645 O.2       0 UNK        -0.5000 
      4 N           5.7765  -14.4560  -46.9651 N.am      1 UNK        -0.5000 
      5 CA          4.5618  -14.0251  -46.2618 C.3       1 UNK         0.1400 
      6 C6          3.3575  -13.7446  -47.2028 C.3       23 UNK        -0.0398 
      7 S7          2.6234  -15.2986  -47.7972 S.3       23 UNK        -0.2404 
      8 C8          3.2494  -15.4116  -49.4959 C.3       23 UNK        -0.0205 
      9 C9          2.9738  -16.7929  -50.0693 C.ar      23 UNK        -0.0193 
     10 C10         2.0142  -16.9821  -51.0697 C.ar      23 UNK        -0.1150 
     11 C11         1.7913  -18.2559  -51.6061 C.ar      23 UNK        -0.0193 
     12 C12         2.5320  -19.3405  -51.1279 C.ar      23 UNK        -0.1150 
     13 C13         3.4666  -19.1695  -50.1021 C.ar      23 UNK        -0.0193 
     14 C14         3.6918  -17.8909  -49.5891 C.ar      23 UNK        -0.1150 
     15 C15         4.2345  -20.3571  -49.5374 C.3       23 UNK        -0.0205 
     16 S16         3.1533  -21.7390  -49.0458 S.3       23 UNK        -0.2404 
     17 C17         1.9539  -20.9176  -47.9370 C.3       23 UNK        -0.0398 
     18 CA          0.9589  -21.9296  -47.3253 C.3       11 UNK         0.1400 
     19 N           0.3009  -21.4116  -46.1245 N.am      11 UNK        -0.5000 
     20 C          -0.3817  -22.1762  -45.2605 C.2       10 UNK         0.5000 
     21 O          -0.5035  -23.3964  -45.3775 O.2       10 UNK        -0.5000 
     22 CA         -1.0795  -21.4554  -44.0936 C.3       10 UNK         0.1400 
     23 CB         -0.0695  -21.0696  -43.0027 C.3       10 UNK        -0.1800 
     24 N          -1.8229  -20.2712  -44.5257 N.am      10 UNK        -0.5000 
     25 C          -2.8746  -20.3057  -45.3574 C.2       9 UNK         0.5000 
     26 O          -3.3420  -21.3423  -45.8268 O.2       9 UNK        -0.5000 
     27 CA         -3.4890  -18.9567  -45.7662 C.3       9 UNK         0.1400 
     28 CB         -4.4218  -18.4317  -44.6651 C.3       9 UNK        -0.1800 
     29 N          -2.4815  -17.9463  -46.0856 N.am      9 UNK        -0.5000 
     30 C          -1.5864  -18.0473  -47.0795 C.2       8 UNK         0.5000 
     31 O          -1.5251  -18.9986  -47.8546 O.2       8 UNK        -0.5000 
     32 CA         -0.5392  -16.9289  -47.1844 C.3       8 UNK         0.1400 
     33 CB         -1.1499  -15.6570  -47.7913 C.3       8 UNK        -0.1800 
     34 N           0.0655  -16.6281  -45.8876 N.am      8 UNK        -0.5000 
     35 C           0.7791  -17.5057  -45.1670 C.2       7 UNK         0.5000 
     36 O           1.0227  -18.6586  -45.5260 O.2       7 UNK        -0.5000 
     37 CA          1.2659  -17.0274  -43.7908 C.3       7 UNK         0.1400 
     38 CB          2.5687  -16.2275  -43.9202 C.3       7 UNK        -0.1800 
     39 N           0.2547  -16.2266  -43.1019 N.am      7 UNK        -0.5000 
     40 C          -0.8833  -16.7272  -42.6013 C.2       6 UNK         0.5000 
     41 O          -1.1777  -17.9225  -42.6284 O.2       6 UNK        -0.5000 
     42 CA         -1.8781  -15.7101  -42.0157 C.3       6 UNK         0.1400 
     43 CB         -1.4691  -15.3027  -40.5926 C.3       6 UNK        -0.1800 
     44 N          -2.0079  -14.5154  -42.8520 N.am      6 UNK        -0.5000 
     45 C          -2.5515  -14.5174  -44.0780 C.2       5 UNK         0.5000 
     46 O          -3.0095  -15.5231  -44.6178 O.2       5 UNK        -0.5000 
     47 CA         -2.5630  -13.1870  -44.8523 C.3       5 UNK         0.1400 
     48 CB         -3.8663  -12.4217  -44.5806 C.3       5 UNK        -0.1800 
     49 N          -1.4256  -12.3123  -44.5677 N.am      5 UNK        -0.5000 
     50 C          -0.1337  -12.6254  -44.7338 C.2       4 UNK         0.5000 
     51 O           0.2595  -13.7335  -45.1056 O.2       4 UNK        -0.5000 
     52 CA          0.9005  -11.5243  -44.4217 C.3       4 UNK         0.1400 
     53 CB          0.2871  -10.1658  -44.0119 C.3       4 UNK        -0.1800 
     54 N           1.8777  -11.9590  -43.4224 N.am      4 UNK        -0.5000 
     55 C           1.6315  -12.3898  -42.1749 C.2       3 UNK         0.5000 
     56 O           0.4966  -12.5019  -41.7081 O.2       3 UNK        -0.5000 
     57 CA          2.8474  -12.7736  -41.3028 C.3       3 UNK         0.1400 
     58 CB          2.5963  -14.0822  -40.5329 C.3       3 UNK        -0.1800 
     59 N           4.0809  -12.9023  -42.0870 N.am      3 UNK        -0.5000 
     60 C           4.9882  -11.9300  -42.2622 C.2       2 UNK         0.5000 
     61 O           4.9234  -10.8271  -41.7191 O.2       2 UNK        -0.5000 
     62 CA          6.1438  -12.2248  -43.2430 C.3       2 UNK         0.1400 
     63 CB          7.3542  -12.8002  -42.4924 C.3       2 UNK        -0.1800 
     64 N           5.7756  -13.1372  -44.3319 N.am      2 UNK        -0.5000 
     65 C           4.8429  -12.8839  -45.2618 C.2       1 UNK         0.5000 
     66 O           4.2107  -11.8279  -45.3158 O.2       1 UNK        -0.5000 
     67 C          -0.0628  -22.4480  -48.3604 C.2       11 UNK         0.5000 
     68 O           0.1443  -23.5241  -48.9198 O.2       11 UNK        -0.5000 
     69 N          -1.1721  -21.7200  -48.5566 N.am      12 UNK        -0.5000 
     70 CA         -2.2823  -22.1278  -49.4174 C.3       12 UNK         0.1400 
     71 CB         -3.3115  -20.9937  -49.5191 C.3       12 UNK        -0.1800 
     72 C          -2.9428  -23.4354  -48.9465 C.2       12 UNK         0.5000 
     73 O          -3.2022  -24.3071  -49.7737 O.2       12 UNK        -0.5000 
     74 N          -3.1549  -23.5804  -47.6310 N.am      13 UNK        -0.5000 
     75 CA         -3.6529  -24.8069  -47.0068 C.3       13 UNK         0.1400 
     76 CB         -3.9663  -24.5516  -45.5256 C.3       13 UNK        -0.1800 
     77 C          -2.6914  -25.9965  -47.1744 C.2       13 UNK         0.5000 
     78 O          -3.1453  -27.0902  -47.5112 O.2       13 UNK        -0.5000 
     79 N          -1.3842  -25.7584  -46.9931 N.am      14 UNK        -0.5000 
     80 CA         -0.3241  -26.7475  -47.2135 C.3       14 UNK         0.1400 
     81 CB          1.0147  -26.1891  -46.7082 C.3       14 UNK        -0.1800 
     82 C          -0.2133  -27.1955  -48.6854 C.2       14 UNK         0.5000 
     83 O           0.0256  -28.3748  -48.9473 O.2       14 UNK        -0.5000 
     84 N          -0.4274  -26.2561  -49.6157 N.am      15 UNK        -0.5000 
     85 CA         -0.4806  -26.4862  -51.0609 C.3       15 UNK         0.1400 
     86 CB         -0.2621  -25.1436  -51.7789 C.3       15 UNK        -0.1800 
     87 C          -1.7941  -27.1411  -51.5407 C.2       15 UNK         0.5000 
     88 O          -1.8716  -27.5272  -52.7077 O.2       15 UNK        -0.5000 
     89 N          -2.7981  -27.2371  -50.6547 N.am      16 UNK        -0.5000 
     90 CA         -4.1687  -27.6999  -50.9007 C.3       16 UNK         0.1400 
     91 CB         -4.1931  -29.1947  -51.2824 C.3       16 UNK        -0.1800 
     92 C          -4.9247  -26.7973  -51.9006 C.2       16 UNK         0.5000 
     93 O          -5.6703  -27.2888  -52.7499 O.2       16 UNK        -0.5000 
     94 N          -4.7107  -25.4839  -51.7706 N.am      17 UNK        -0.5000 
     95 CA         -5.2687  -24.4222  -52.6027 C.3       17 UNK         0.1400 
     96 CB         -4.2026  -23.9703  -53.6148 C.3       17 UNK        -0.1800 
     97 C          -5.7844  -23.2713  -51.7183 C.2       17 UNK         0.5000 
     98 O          -5.6537  -22.0985  -52.0806 O.2       17 UNK        -0.5000 
     99 N          -6.3556  -23.6297  -50.5585 N.am      18 UNK        -0.5000 
    100 CA        -7.0512  -22.7257  -49.6416 C.3       18 UNK         0.1400 
    101 CB        -7.3671  -23.4720  -48.3376 C.3       18 UNK        -0.1800 
    102 C         -8.3390  -22.1679  -50.2745 C.2       18 UNK         0.5000 
    103 O         -8.9162  -22.8090  -51.1562 O.2       18 UNK        -0.5000 
    104 N         -8.7394  -20.9626  -49.8458 N.am      19 UNK        -0.5000 
    105 CA        -9.8321  -20.1212  -50.3682 C.3       19 UNK         0.1400 
    106 CB       -11.1954  -20.8372  -50.3118 C.3       19 UNK        -0.1800 
    107 C         -9.5519  -19.5445  -51.7729 C.2       19 UNK         0.5000 
    108 O         -9.8705  -18.3825  -52.0253 O.2       19 UNK        -0.5000 
    109 N         -8.9036  -20.3366  -52.6360 N.am      20 UNK        -0.5000 
    110 CA        -8.3188  -19.9225  -53.9111 C.3       20 UNK         0.1400 
    111 CB        -8.0212  -21.1770  -54.7480 C.3       20 UNK        -0.1800 
    112 C         -7.0401  -19.0758  -53.7378 C.2       20 UNK         0.5000 
    113 O         -6.6131  -18.4398  -54.7015 O.2       20 UNK        -0.5000 
    114 N         -6.4490  -19.0956  -52.5311 N.am      21 UNK        -0.5000 
    115 CA        -5.2661  -18.3456  -52.0940 C.3       21 UNK         0.1400 
    116 CB        -5.6002  -16.8451  -51.9686 C.3       21 UNK        -0.1800 
    117 C         -4.0415  -18.6226  -52.9869 C.2       21 UNK         0.5000 
    118 O         -3.4756  -17.6983  -53.5729 O.2       21 UNK        -0.5000 
    119 N         -3.7060  -19.9132  -53.1025 N.am      22 UNK        -0.5000 
    120 CA        -2.6875  -20.4886  -54.0005 C.3       22 UNK         0.1400 
    121 C         -3.1684  -20.6782  -55.4713 C.2       22 UNK         0.5000 
    122 N         -4.3532  -20.2255  -55.8648 N.am      22 UNK        -0.7600 
    123 O         -2.4594  -21.2800  -56.2728 O.2       22 UNK        -0.5000 
    124 C124       -1.2915  -19.7993  -53.9613 C.3       23 UNK        -0.0398 
    125 S125       -0.5560  -19.6100  -52.3013 S.3       23 UNK        -0.2404 
    126 C126        0.7915  -18.4592  -52.7358 C.3       23 UNK        -0.0205 
    127 H127        7.8449  -15.4258  -48.0783 H         1 UNK         0.0600 
    128 H128        8.6555  -13.8574  -48.1171 H         1 UNK         0.0600 
    129 H129        7.6731  -14.3796  -49.4899 H         1 UNK         0.0600 
    130 H130        6.0516  -15.4128  -46.7931 H         1 UNK         0.3000 
    131 H131        4.2921  -14.8704  -45.6316 H         1 UNK         0.0600 
    132 H132        3.6339  -13.0999  -48.0378 H         1 UNK         0.0800 
    133 H133        2.5566  -13.2270  -46.6733 H         1 UNK         0.0800 
    134 H134        2.7877  -14.6339  -50.1060 H         1 UNK         0.0800 
    135 H135        4.3240  -15.2246  -49.5061 H         1 UNK         0.0800 
    136 H136        1.4533  -16.1359  -51.4409 H         1 UNK         0.1150 
    137 H137        2.3640  -20.3251  -51.5417 H         1 UNK         0.1150 
    138 H138        4.4202  -17.7451  -48.8036 H         1 UNK         0.1150 
    139 H139        4.9411  -20.7105  -50.2892 H         1 UNK         0.0800 
    140 H140        4.8275  -20.0584  -48.6715 H         1 UNK         0.0800 
    141 H141        1.4238  -20.1250  -48.4688 H         1 UNK         0.0800 
    142 H142        2.5216  -20.4260  -47.1456 H         1 UNK         0.0800 
    143 H143        1.5407  -22.7941  -46.9973 H         1 UNK         0.0600 
    144 H144        0.3779  -20.4120  -45.9527 H         1 UNK         0.3000 
    145 H145       -1.7957  -22.1542  -43.6565 H         1 UNK         0.0600 
    146 H146       -0.5721  -20.6423  -42.1349 H         1 UNK         0.0600 
    147 H147        0.4867  -21.9426  -42.6591 H         1 UNK         0.0600 
    148 H148        0.6550  -20.3388  -43.3623 H         1 UNK         0.0600 
    149 H149       -1.5154  -19.3788  -44.1559 H         1 UNK         0.3000 
    150 H150       -4.0862  -19.1231  -46.6647 H         1 UNK         0.0600 
    151 H151       -5.1810  -19.1717  -44.4085 H         1 UNK         0.0600 
    152 H152       -4.9429  -17.5304  -44.9881 H         1 UNK         0.0600 
    153 H153       -3.8730  -18.1917  -43.7535 H         1 UNK         0.0600 
    154 H154       -2.4829  -17.1110  -45.5055 H         1 UNK         0.3000 
    155 H155        0.2561  -17.2750  -47.8485 H         1 UNK         0.0600 
    156 H156       -1.5013  -15.8450  -48.8064 H         1 UNK         0.0600 
    157 H157       -0.4190  -14.8501  -47.8435 H         1 UNK         0.0600 
    158 H158       -2.0009  -15.3019  -47.2119 H         1 UNK         0.0600 
    159 H159       -0.0369  -15.6802  -45.5401 H         1 UNK         0.3000 
    160 H160        1.4740  -17.9151  -43.1898 H         1 UNK         0.0600 
    161 H161        2.3898  -15.2404  -44.3463 H         1 UNK         0.0600 
    162 H162        3.2801  -16.7471  -44.5637 H         1 UNK         0.0600 
    163 H163        3.0524  -16.1004  -42.9536 H         1 UNK         0.0600 
    164 H164        0.3780  -15.2242  -43.1105 H         1 UNK         0.3000 
    165 H165       -2.8557  -16.1942  -41.9623 H         1 UNK         0.0600 
    166 H166       -2.2019  -14.6282  -40.1495 H         1 UNK         0.0600 
    167 H167       -1.3961  -16.1759  -39.9432 H         1 UNK         0.0600 
    168 H168       -0.5011  -14.8016  -40.5779 H         1 UNK         0.0600 
    169 H169       -1.6152  -13.6557  -42.4918 H         1 UNK         0.3000 
    170 H170       -2.5280  -13.4262  -45.9161 H         1 UNK         0.0600 
    171 H171       -4.7366  -13.0391  -44.8078 H         1 UNK         0.0600 
    172 H172       -3.9436  -12.1168  -43.5362 H         1 UNK         0.0600 
    173 H173       -3.9355  -11.5264  -45.1988 H         1 UNK         0.0600 
    174 H174       -1.6481  -11.3862  -44.2331 H         1 UNK         0.3000 
    175 H175        1.4554  -11.3653  -45.3469 H         1 UNK         0.0600 
    176 H176       -0.2901  -10.2339  -43.0891 H         1 UNK         0.0600 
    177 H177        1.0684   -9.4222  -43.8539 H         1 UNK         0.0600 
    178 H178       -0.3678   -9.7747  -44.7915 H         1 UNK         0.0600 
    179 H179        2.8404  -11.9200  -43.7345 H         1 UNK         0.3000 
    180 H180        2.9672  -11.9788  -40.5638 H         1 UNK         0.0600 
    181 H181        2.3073  -14.8970  -41.1945 H         1 UNK         0.0600 
    182 H182        1.7919  -13.9563  -39.8073 H         1 UNK         0.0600 
    183 H183        3.4818  -14.3934  -39.9785 H         1 UNK         0.0600 
    184 H184        4.2195  -13.7775  -42.5696 H         1 UNK         0.3000 
    185 H185        6.4413  -11.2750  -43.6924 H         1 UNK         0.0600 
    186 H186        7.6705  -12.1315  -41.6906 H         1 UNK         0.0600 
    187 H187        7.1269  -13.7675  -42.0424 H         1 UNK         0.0600 
    188 H188        8.2067  -12.9309  -43.1592 H         1 UNK         0.0600 
    189 H189        6.2691  -14.0177  -44.3666 H         1 UNK         0.3000 
    190 H190       -1.2662  -20.8147  -48.1011 H         1 UNK         0.3000 
    191 H191       -1.8777  -22.3025  -50.4164 H         1 UNK         0.0600 
    192 H192       -2.8643  -20.0957  -49.9459 H         1 UNK         0.0600 
    193 H193       -4.1406  -21.2744  -50.1641 H         1 UNK         0.0600 
    194 H194       -3.7258  -20.7351  -48.5449 H         1 UNK         0.0600 
    195 H195       -2.9663  -22.7981  -47.0095 H         1 UNK         0.3000 
    196 H196       -4.5842  -25.0785  -47.5058 H         1 UNK         0.0600 
    197 H197       -4.3437  -25.4543  -45.0438 H         1 UNK         0.0600 
    198 H198       -4.7284  -23.7803  -45.4134 H         1 UNK         0.0600 
    199 H199       -3.0820  -24.2293  -44.9755 H         1 UNK         0.0600 
    200 H200       -1.0926  -24.8380  -46.6787 H         1 UNK         0.3000 
    201 H201       -0.5672  -27.6302  -46.6184 H         1 UNK         0.0600 
    202 H202        0.9579  -25.9227  -45.6527 H         1 UNK         0.0600 
    203 H203        1.3162  -25.2998  -47.2614 H         1 UNK         0.0600 
    204 H204        1.8104  -26.9271  -46.8160 H         1 UNK         0.0600 
    205 H205       -0.5336  -25.2919  -49.3112 H         1 UNK         0.3000 
    206 H206        0.3368  -27.1562  -51.3344 H         1 UNK         0.0600 
    207 H207        0.6858  -24.6899  -51.4888 H         1 UNK         0.0600 
    208 H208       -0.2416  -25.2741  -52.8615 H         1 UNK         0.0600 
    209 H209       -1.0566  -24.4328  -51.5498 H         1 UNK         0.0600 
    210 H210       -2.6286  -26.8771  -49.7242 H         1 UNK         0.3000 
    211 H211       -4.6932  -27.5988  -49.9495 H         1 UNK         0.0600 
    212 H212       -3.7451  -29.3737  -52.2601 H         1 UNK         0.0600 
    213 H213       -5.2162  -29.5703  -51.3198 H         1 UNK         0.0600 
    214 H214       -3.6540  -29.7962  -50.5505 H         1 UNK         0.0600 
    215 H215       -4.0943  -25.1605  -51.0232 H         1 UNK         0.3000 
    216 H216       -6.1343  -24.7921  -53.1554 H         1 UNK         0.0600 
    217 H217       -4.5756  -23.1696  -54.2543 H         1 UNK         0.0600 
    218 H218       -3.9072  -24.7933  -54.2656 H         1 UNK         0.0600 
    219 H219       -3.3071  -23.6120  -53.1072 H         1 UNK         0.0600 
    220 H220       -6.4285  -24.6154  -50.3574 H         1 UNK         0.3000 
    221 H221       -6.3855  -21.8910  -49.4141 H         1 UNK         0.0600 
    222 H222       -7.9786  -24.3573  -48.5170 H         1 UNK         0.0600 
    223 H223       -6.4543  -23.7869  -47.8351 H         1 UNK         0.0600 
    224 H224       -7.9109  -22.8334  -47.6403 H         1 UNK         0.0600 
    225 H225       -8.1955  -20.5247  -49.1149 H         1 UNK         0.3000 
    226 H226       -9.8894  -19.2674  -49.6910 H         1 UNK         0.0600 
    227 H227      -11.3957  -21.2265  -49.3137 H         1 UNK         0.0600 
    228 H228      -12.0030  -20.1476  -50.5601 H         1 UNK         0.0600 
    229 H229      -11.2549  -21.6677  -51.0154 H         1 UNK         0.0600 
    230 H230       -8.7347  -21.2951  -52.3459 H         1 UNK         0.3000 
    231 H231       -9.0494  -19.3134  -54.4471 H         1 UNK         0.0600 
    232 H232       -7.2903  -21.8229  -54.2606 H         1 UNK         0.0600 
    233 H233       -7.6201  -20.9093  -55.7263 H         1 UNK         0.0600 
    234 H234       -8.9253  -21.7619  -54.9174 H         1 UNK         0.0600 
    235 H235       -6.8437  -19.7227  -51.8460 H         1 UNK         0.3000 
    236 H236       -5.0125  -18.7112  -51.0977 H         1 UNK         0.0600 
    237 H237       -5.8536  -16.4038  -52.9332 H         1 UNK         0.0600 
    238 H238       -6.4430  -16.6848  -51.2962 H         1 UNK         0.0600 
    239 H239       -4.7526  -16.2892  -51.5660 H         1 UNK         0.0600 
    240 H240       -4.2941  -20.5959  -52.6354 H         1 UNK         0.3000 
    241 H241       -2.5378  -21.4994  -53.6247 H         1 UNK         0.0600 
    242 H242       -4.6388  -20.3725  -56.8197 H         1 UNK         0.3800 
    243 H243       -4.9370  -19.6742  -55.2501 H         1 UNK         0.3800 
    244 H244       -0.5804  -20.3756  -54.5559 H         1 UNK         0.0800 
    245 H245       -1.3411  -18.8188  -54.4364 H         1 UNK         0.0800 
    246 H246        1.3283  -18.8438  -53.6043 H         1 UNK         0.0800 
    247 H247        0.3547  -17.5063  -53.0393 H         1 UNK         0.0800 
@<TRIPOS>BOND
     1    1    2 1    
     2    1  127 1    
     3    1  128 1    
     4    1  129 1    
     5    2    3 2    
     6    2    4 am   BACKBONE|DICT|INTERRES
     7    4    5 1    
     8    4  130 1    
     9    5    6 1    
    10    5   65 1    
    11    5  131 1    
    12    6    7 1    
    13    6  132 1    
    14    6  133 1    
    15    7    8 1    
    16    8    9 1    
    17    8  134 1    
    18    8  135 1    
    19    9   10 ar   
    20    9   14 ar   
    21   10   11 ar   
    22   10  136 1    
    23   11   12 ar   
    24   11  126 1    
    25   12   13 ar   
    26   12  137 1    
    27   13   14 ar   
    28   13   15 1    
    29   14  138 1    
    30   15   16 1    
    31   15  139 1    
    32   15  140 1    
    33   16   17 1    
    34   17   18 1    
    35   17  141 1    
    36   17  142 1    
    37   18   19 1    
    38   18   67 1    
    39   18  143 1    
    40   19   20 am   BACKBONE|DICT|INTERRES
    41   19  144 1    
    42   20   21 2    
    43   20   22 1    
    44   22   23 1    
    45   22   24 1    
    46   22  145 1    
    47   23  146 1    
    48   23  147 1    
    49   23  148 1    
    50   24   25 am   BACKBONE|DICT|INTERRES
    51   24  149 1    
    52   25   26 2    
    53   25   27 1    
    54   27   28 1    
    55   27   29 1    
    56   27  150 1    
    57   28  151 1    
    58   28  152 1    
    59   28  153 1    
    60   29   30 am   BACKBONE|DICT|INTERRES
    61   29  154 1    
    62   30   31 2    
    63   30   32 1    
    64   32   33 1    
    65   32   34 1    
    66   32  155 1    
    67   33  156 1    
    68   33  157 1    
    69   33  158 1    
    70   34   35 am   BACKBONE|DICT|INTERRES
    71   34  159 1    
    72   35   36 2    
    73   35   37 1    
    74   37   38 1    
    75   37   39 1    
    76   37  160 1    
    77   38  161 1    
    78   38  162 1    
    79   38  163 1    
    80   39   40 am   BACKBONE|DICT|INTERRES
    81   39  164 1    
    82   40   41 2    
    83   40   42 1    
    84   42   43 1    
    85   42   44 1    
    86   42  165 1    
    87   43  166 1    
    88   43  167 1    
    89   43  168 1    
    90   44   45 am   BACKBONE|DICT|INTERRES
    91   44  169 1    
    92   45   46 2    
    93   45   47 1    
    94   47   48 1    
    95   47   49 1    
    96   47  170 1    
    97   48  171 1    
    98   48  172 1    
    99   48  173 1    
   100   49   50 am   BACKBONE|DICT|INTERRES
   101   49  174 1    
   102   50   51 2    
   103   50   52 1    
   104   52   53 1    
   105   52   54 1    
   106   52  175 1    
   107   53  176 1    
   108   53  177 1    
   109   53  178 1    
   110   54   55 am   BACKBONE|DICT|INTERRES
   111   54  179 1    
   112   55   56 2    
   113   55   57 1    
   114   57   58 1    
   115   57   59 1    
   116   57  180 1    
   117   58  181 1    
   118   58  182 1    
   119   58  183 1    
   120   59   60 am   BACKBONE|DICT|INTERRES
   121   59  184 1    
   122   60   61 2    
   123   60   62 1    
   124   62   63 1    
   125   62   64 1    
   126   62  185 1    
   127   63  186 1    
   128   63  187 1    
   129   63  188 1    
   130   64   65 am   BACKBONE|DICT|INTERRES
   131   64  189 1    
   132   65   66 2    
   133   67   68 2    
   134   67   69 am   BACKBONE|DICT|INTERRES
   135   69   70 1    
   136   69  190 1    
   137   70   71 1    
   138   70   72 1    
   139   70  191 1    
   140   71  192 1    
   141   71  193 1    
   142   71  194 1    
   143   72   73 2    
   144   72   74 am   BACKBONE|DICT|INTERRES
   145   74   75 1    
   146   74  195 1    
   147   75   76 1    
   148   75   77 1    
   149   75  196 1    
   150   76  197 1    
   151   76  198 1    
   152   76  199 1    
   153   77   78 2    
   154   77   79 am   BACKBONE|DICT|INTERRES
   155   79   80 1    
   156   79  200 1    
   157   80   81 1    
   158   80   82 1    
   159   80  201 1    
   160   81  202 1    
   161   81  203 1    
   162   81  204 1    
   163   82   83 2    
   164   82   84 am   BACKBONE|DICT|INTERRES
   165   84   85 1    
   166   84  205 1    
   167   85   86 1    
   168   85   87 1    
   169   85  206 1    
   170   86  207 1    
   171   86  208 1    
   172   86  209 1    
   173   87   88 2    
   174   87   89 am   BACKBONE|DICT|INTERRES
   175   89   90 1    
   176   89  210 1    
   177   90   91 1    
   178   90   92 1    
   179   90  211 1    
   180   91  212 1    
   181   91  213 1    
   182   91  214 1    
   183   92   93 2    
   184   92   94 am   BACKBONE|DICT|INTERRES
   185   94   95 1    
   186   94  215 1    
   187   95   96 1    
   188   95   97 1    
   189   95  216 1    
   190   96  217 1    
   191   96  218 1    
   192   96  219 1    
   193   97   98 2    
   194   97   99 am   BACKBONE|DICT|INTERRES
   195   99  100 1    
   196   99  220 1    
   197  100  101 1    
   198  100  102 1    
   199  100  221 1    
   200  101  222 1    
   201  101  223 1    
   202  101  224 1    
   203  102  103 2    
   204  102  104 am   BACKBONE|DICT|INTERRES
   205  104  105 1    
   206  104  225 1    
   207  105  106 1    
   208  105  107 1    
   209  105  226 1    
   210  106  227 1    
   211  106  228 1    
   212  106  229 1    
   213  107  108 2    
   214  107  109 am   BACKBONE|DICT|INTERRES
   215  109  110 1    
   216  109  230 1    
   217  110  111 1    
   218  110  112 1    
   219  110  231 1    
   220  111  232 1    
   221  111  233 1    
   222  111  234 1    
   223  112  113 2    
   224  112  114 am   BACKBONE|DICT|INTERRES
   225  114  115 1    
   226  114  235 1    
   227  115  116 1    
   228  115  117 1    
   229  115  236 1    
   230  116  237 1    
   231  116  238 1    
   232  116  239 1    
   233  117  118 2    
   234  117  119 am   BACKBONE|DICT|INTERRES
   235  119  120 1    
   236  119  240 1    
   237  120  121 1    
   238  120  124 1    
   239  120  241 1    
   240  121  122 am   BACKBONE|DICT|INTERRES
   241  121  123 2    
   242  122  242 1    
   243  122  243 1    
   244  124  125 1    
   245  124  244 1    
   246  124  245 1    
   247  125  126 1    
   248  126  246 1    
   249  126  247 1    
@<TRIPOS>SUBSTRUCTURE
     1 UNK         1 GROUP             0       ****    0 ROOT    
