@<TRIPOS>MOLECULE
3R540
247   249    1
SMALL
USER_CHARGES


@<TRIPOS>ATOM
      1 CA          0.4740  -10.6619  -48.3388 C.3       0 UNK        -0.1800 
      2 C           0.0199  -12.1019  -48.5295 C.2       0 UNK         0.5000 
      3 O          -1.0311  -12.3356  -49.1253 O.2       0 UNK        -0.5000 
      4 N           0.8100  -13.0603  -48.0256 N.am      1 UNK        -0.5000 
      5 CA          0.5466  -14.5027  -48.0161 C.3       1 UNK         0.1400 
      6 C6          0.4914  -15.1306  -49.4353 C.3       23 UNK        -0.0398 
      7 S7          0.3518  -16.9528  -49.4060 S.3       23 UNK        -0.2404 
      8 C8          1.8216  -17.4567  -50.3461 C.3       23 UNK        -0.0205 
      9 C9          1.8684  -18.9662  -50.5260 C.ar      23 UNK        -0.0193 
     10 C10         0.9531  -19.5908  -51.3751 C.ar      23 UNK        -0.1150 
     11 C11         1.0014  -20.9709  -51.5862 C.ar      23 UNK        -0.0193 
     12 C12         1.9798  -21.7310  -50.9369 C.ar      23 UNK        -0.1150 
     13 C13         2.9039  -21.1186  -50.0819 C.ar      23 UNK        -0.0193 
     14 C14         2.8358  -19.7362  -49.8742 C.ar      23 UNK        -0.1150 
     15 C15         4.0159  -21.9315  -49.4266 C.3       23 UNK        -0.0205 
     16 S16         3.4155  -23.2375  -48.3056 S.3       23 UNK        -0.2404 
     17 C17         2.5828  -22.2729  -46.9980 C.3       23 UNK        -0.0398 
     18 CA          1.2592  -22.9213  -46.5253 C.3       11 UNK         0.1400 
     19 N           0.7452  -22.3003  -45.3007 N.am      11 UNK        -0.5000 
     20 C          -0.2899  -22.7655  -44.5855 C.2       10 UNK         0.5000 
     21 O          -0.8777  -23.8152  -44.8392 O.2       10 UNK        -0.5000 
     22 CA         -0.7895  -21.8947  -43.4197 C.3       10 UNK         0.1400 
     23 CB          0.0446  -22.1471  -42.1554 C.3       10 UNK        -0.1800 
     24 N          -0.7903  -20.4680  -43.7423 N.am      10 UNK        -0.5000 
     25 C          -1.5464  -19.9022  -44.6953 C.2       9 UNK         0.5000 
     26 O          -2.3794  -20.5181  -45.3598 O.2       9 UNK        -0.5000 
     27 CA         -1.2834  -18.4137  -44.9959 C.3       9 UNK         0.1400 
     28 CB         -1.9704  -17.5173  -43.9541 C.3       9 UNK        -0.1800 
     29 N           0.1466  -18.1061  -45.0493 N.am      9 UNK        -0.5000 
     30 C           1.0080  -18.6529  -45.9191 C.2       8 UNK         0.5000 
     31 O           0.6728  -19.4251  -46.8152 O.2       8 UNK        -0.5000 
     32 CA          2.5008  -18.3553  -45.7031 C.3       8 UNK         0.1400 
     33 CB          2.9130  -17.0266  -46.3463 C.3       8 UNK        -0.1800 
     34 N           2.8397  -18.3346  -44.2821 N.am      8 UNK        -0.5000 
     35 C           2.9774  -19.4305  -43.5256 C.2       7 UNK         0.5000 
     36 O           2.8701  -20.5762  -43.9633 O.2       7 UNK        -0.5000 
     37 CA          3.2520  -19.2078  -42.0257 C.3       7 UNK         0.1400 
     38 CB          4.7554  -19.0192  -41.7745 C.3       7 UNK        -0.1800 
     39 N           2.5215  -18.0638  -41.4742 N.am      7 UNK        -0.5000 
     40 C           1.1900  -18.0238  -41.3295 C.2       6 UNK         0.5000 
     41 O           0.4473  -18.9587  -41.6237 O.2       6 UNK        -0.5000 
     42 CA          0.5742  -16.7112  -40.8079 C.3       6 UNK         0.1400 
     43 CB          0.5587  -16.6993  -39.2724 C.3       6 UNK        -0.1800 
     44 N           1.2111  -15.4820  -41.2912 N.am      6 UNK        -0.5000 
     45 C           1.4528  -15.1634  -42.5693 C.2       5 UNK         0.5000 
     46 O           1.2795  -15.9399  -43.5077 O.2       5 UNK        -0.5000 
     47 CA          1.9443  -13.7260  -42.8318 C.3       5 UNK         0.1400 
     48 CB          2.5270  -13.5509  -44.2459 C.3       5 UNK        -0.1800 
     49 N           0.8564  -12.7655  -42.6502 N.am      5 UNK        -0.5000 
     50 C           0.3651  -12.3553  -41.4729 C.2       4 UNK         0.5000 
     51 O           0.8337  -12.7004  -40.3865 O.2       4 UNK        -0.5000 
     52 CA         -0.8499  -11.4049  -41.5038 C.3       4 UNK         0.1400 
     53 CB         -0.4080   -9.9629  -41.2096 C.3       4 UNK        -0.1800 
     54 N          -1.5943  -11.4210  -42.7676 N.am      4 UNK        -0.5000 
     55 C          -2.3522  -12.4359  -43.2055 C.2       3 UNK         0.5000 
     56 O          -2.4908  -13.4927  -42.5866 O.2       3 UNK        -0.5000 
     57 CA         -3.0710  -12.2529  -44.5553 C.3       3 UNK         0.1400 
     58 CB         -2.6183  -11.0137  -45.3592 C.3       3 UNK        -0.1800 
     59 N          -2.8574  -13.4538  -45.3498 N.am      3 UNK        -0.5000 
     60 C          -3.6599  -13.9434  -46.2975 C.2       2 UNK         0.5000 
     61 O          -4.7378  -13.4343  -46.6101 O.2       2 UNK        -0.5000 
     62 CA         -3.1385  -15.1990  -47.0320 C.3       2 UNK         0.1400 
     63 CB         -4.1350  -15.7495  -48.0684 C.3       2 UNK        -0.1800 
     64 N          -1.8639  -14.9449  -47.7051 N.am      2 UNK        -0.5000 
     65 C          -0.6677  -14.8165  -47.1152 C.2       1 UNK         0.5000 
     66 O          -0.5003  -14.9000  -45.8992 O.2       1 UNK        -0.5000 
     67 C           0.1880  -22.9527  -47.6359 C.2       11 UNK         0.5000 
     68 O          -0.0529  -24.0151  -48.2094 O.2       11 UNK        -0.5000 
     69 N          -0.4795  -21.8143  -47.8740 N.am      12 UNK        -0.5000 
     70 CA         -1.5828  -21.6946  -48.8261 C.3       12 UNK         0.1400 
     71 CB         -2.0142  -20.2264  -48.9555 C.3       12 UNK        -0.1800 
     72 C          -2.7800  -22.5933  -48.4707 C.2       12 UNK         0.5000 
     73 O          -3.3569  -23.2095  -49.3676 O.2       12 UNK        -0.5000 
     74 N          -3.1213  -22.6785  -47.1787 N.am      13 UNK        -0.5000 
     75 CA         -4.1566  -23.5710  -46.6583 C.3       13 UNK         0.1400 
     76 CB         -4.4395  -23.2379  -45.1862 C.3       13 UNK        -0.1800 
     77 C          -3.7978  -25.0586  -46.8345 C.2       13 UNK         0.5000 
     78 O          -4.6295  -25.8235  -47.3226 O.2       13 UNK        -0.5000 
     79 N          -2.5604  -25.4353  -46.4800 N.am      14 UNK        -0.5000 
     80 CA         -2.0229  -26.7932  -46.6163 C.3       14 UNK         0.1400 
     81 CB         -0.6523  -26.8753  -45.9277 C.3       14 UNK        -0.1800 
     82 C          -1.9213  -27.2644  -48.0791 C.2       14 UNK         0.5000 
     83 O          -2.1763  -28.4356  -48.3613 O.2       14 UNK        -0.5000 
     84 N          -1.5901  -26.3358  -48.9854 N.am      15 UNK        -0.5000 
     85 CA         -1.5618  -26.5395  -50.4348 C.3       15 UNK         0.1400 
     86 CB         -0.7744  -25.3832  -51.0722 C.3       15 UNK        -0.1800 
     87 C          -2.9623  -26.6410  -51.0758 C.2       15 UNK         0.5000 
     88 O          -3.0522  -26.9854  -52.2547 O.2       15 UNK        -0.5000 
     89 N          -4.0164  -26.3089  -50.3126 N.am      16 UNK        -0.5000 
     90 CA         -5.4217  -26.1921  -50.7217 C.3       16 UNK         0.1400 
     91 CB         -5.9828  -27.5444  -51.2082 C.3       16 UNK        -0.1800 
     92 C          -5.6691  -25.0395  -51.7197 C.2       16 UNK         0.5000 
     93 O          -6.6700  -25.0463  -52.4381 O.2       16 UNK        -0.5000 
     94 N          -4.7599  -24.0574  -51.7273 N.am      17 UNK        -0.5000 
     95 CA         -4.8550  -22.8165  -52.4879 C.3       17 UNK         0.1400 
     96 CB         -3.4376  -22.2613  -52.6928 C.3       17 UNK        -0.1800 
     97 C          -5.7375  -21.7937  -51.7547 C.2       17 UNK         0.5000 
     98 O          -6.5218  -21.0961  -52.3978 O.2       17 UNK        -0.5000 
     99 N          -5.5870  -21.7448  -50.4216 N.am      18 UNK        -0.5000 
    100 CA        -6.3083  -20.9583  -49.4132 C.3       18 UNK         0.1400 
    101 CB        -7.7879  -21.3787  -49.3472 C.3       18 UNK        -0.1800 
    102 C         -6.1689  -19.4297  -49.5491 C.2       18 UNK         0.5000 
    103 O         -5.7562  -18.7714  -48.5961 O.2       18 UNK        -0.5000 
    104 N         -6.5021  -18.8962  -50.7271 N.am      19 UNK        -0.5000 
    105 CA        -6.5304  -17.4725  -51.0611 C.3       19 UNK         0.1400 
    106 CB        -7.8144  -17.1899  -51.8617 C.3       19 UNK        -0.1800 
    107 C         -5.2624  -17.0352  -51.8220 C.2       19 UNK         0.5000 
    108 O         -5.3330  -16.1326  -52.6572 O.2       19 UNK        -0.5000 
    109 N         -4.1279  -17.6895  -51.5271 N.am      20 UNK        -0.5000 
    110 CA        -2.7939  -17.4463  -52.0921 C.3       20 UNK         0.1400 
    111 CB        -2.2837  -16.0461  -51.6994 C.3       20 UNK        -0.1800 
    112 C         -2.7114  -17.7016  -53.6134 C.2       20 UNK         0.5000 
    113 O         -1.9587  -17.0249  -54.3174 O.2       20 UNK        -0.5000 
    114 N         -3.4685  -18.7003  -54.0932 N.am      21 UNK        -0.5000 
    115 CA        -3.6095  -19.0708  -55.5088 C.3       21 UNK         0.1400 
    116 CB        -4.7200  -20.1252  -55.6508 C.3       21 UNK        -0.1800 
    117 C         -2.3118  -19.5363  -56.2088 C.2       21 UNK         0.5000 
    118 O         -2.2974  -19.6288  -57.4371 O.2       21 UNK        -0.5000 
    119 N         -1.2437  -19.7865  -55.4381 N.am      22 UNK        -0.5000 
    120 CA         0.1312  -19.9473  -55.9428 C.3       22 UNK         0.1400 
    121 C          0.7193  -18.6573  -56.5935 C.2       22 UNK         0.5000 
    122 N          0.2074  -17.4663  -56.2992 N.am      22 UNK        -0.7600 
    123 O          1.6584  -18.7417  -57.3801 O.2       22 UNK        -0.5000 
    124 C124        1.1054  -20.4556  -54.8486 C.3       23 UNK        -0.0398 
    125 S125        0.6552  -22.0757  -54.1358 S.3       23 UNK        -0.2404 
    126 C126       -0.0185  -21.6318  -52.5026 C.3       23 UNK        -0.0205 
    127 H127        0.6282  -10.1861  -49.3073 H         1 UNK         0.0600 
    128 H128        1.4061  -10.6002  -47.7767 H         1 UNK         0.0600 
    129 H129       -0.2865  -10.0983  -47.7983 H         1 UNK         0.0600 
    130 H130        1.6514  -12.7823  -47.5406 H         1 UNK         0.3000 
    131 H131        1.4101  -14.9373  -47.5168 H         1 UNK         0.0600 
    132 H132       -0.3356  -14.7239  -50.0156 H         1 UNK         0.0800 
    133 H133        1.3923  -14.8525  -49.9834 H         1 UNK         0.0800 
    134 H134        1.8041  -16.9805  -51.3275 H         1 UNK         0.0800 
    135 H135        2.7194  -17.0981  -49.8413 H         1 UNK         0.0800 
    136 H136        0.2045  -18.9933  -51.8747 H         1 UNK         0.1150 
    137 H137        2.0269  -22.7983  -51.1024 H         1 UNK         0.1150 
    138 H138        3.5500  -19.2542  -49.2218 H         1 UNK         0.1150 
    139 H139        4.6131  -22.3967  -50.2118 H         1 UNK         0.0800 
    140 H140        4.6968  -21.2827  -48.8734 H         1 UNK         0.0800 
    141 H141        2.4114  -21.2538  -47.3415 H         1 UNK         0.0800 
    142 H142        3.2767  -22.1952  -46.1602 H         1 UNK         0.0800 
    143 H143        1.4804  -23.9596  -46.2686 H         1 UNK         0.0600 
    144 H144        1.2022  -21.4490  -44.9970 H         1 UNK         0.3000 
    145 H145       -1.8198  -22.1862  -43.2067 H         1 UNK         0.0600 
    146 H146       -0.3632  -21.6073  -41.3008 H         1 UNK         0.0600 
    147 H147        0.0512  -23.2067  -41.8968 H         1 UNK         0.0600 
    148 H148        1.0806  -21.8339  -42.2857 H         1 UNK         0.0600 
    149 H149       -0.1775  -19.8781  -43.1860 H         1 UNK         0.3000 
    150 H150       -1.7042  -18.1866  -45.9776 H         1 UNK         0.0600 
    151 H151       -3.0529  -17.6448  -43.9871 H         1 UNK         0.0600 
    152 H152       -1.7597  -16.4627  -44.1301 H         1 UNK         0.0600 
    153 H153       -1.6450  -17.7544  -42.9419 H         1 UNK         0.0600 
    154 H154        0.4993  -17.4225  -44.3839 H         1 UNK         0.3000 
    155 H155        3.0730  -19.1492  -46.1877 H         1 UNK         0.0600 
    156 H156        2.3957  -16.1847  -45.8883 H         1 UNK         0.0600 
    157 H157        3.9847  -16.8555  -46.2453 H         1 UNK         0.0600 
    158 H158        2.6824  -17.0241  -47.4108 H         1 UNK         0.0600 
    159 H159        2.8297  -17.4288  -43.8318 H         1 UNK         0.3000 
    160 H160        2.9290  -20.1054  -41.4940 H         1 UNK         0.0600 
    161 H161        5.1365  -18.1206  -42.2612 H         1 UNK         0.0600 
    162 H162        5.3242  -19.8672  -42.1585 H         1 UNK         0.0600 
    163 H163        4.9703  -18.9414  -40.7086 H         1 UNK         0.0600 
    164 H164        3.0610  -17.2505  -41.2164 H         1 UNK         0.3000 
    165 H165       -0.4607  -16.6829  -41.1527 H         1 UNK         0.0600 
    166 H166        0.0171  -15.8337  -38.8902 H         1 UNK         0.0600 
    167 H167        0.0658  -17.5892  -38.8784 H         1 UNK         0.0600 
    168 H168        1.5683  -16.6725  -38.8606 H         1 UNK         0.0600 
    169 H169        1.3313  -14.7442  -40.6066 H         1 UNK         0.3000 
    170 H170        2.7380  -13.5074  -42.1143 H         1 UNK         0.0600 
    171 H171        1.7759  -13.7232  -45.0168 H         1 UNK         0.0600 
    172 H172        2.9254  -12.5460  -44.3859 H         1 UNK         0.0600 
    173 H173        3.3445  -14.2514  -44.4207 H         1 UNK         0.0600 
    174 H174        0.3890  -12.4578  -43.4893 H         1 UNK         0.3000 
    175 H175       -1.5272  -11.7220  -40.7081 H         1 UNK         0.0600 
    176 H176       -1.2652   -9.2925  -41.1445 H         1 UNK         0.0600 
    177 H177        0.2604   -9.5813  -41.9824 H         1 UNK         0.0600 
    178 H178        0.1221   -9.9021  -40.2581 H         1 UNK         0.0600 
    179 H179       -1.5317  -10.5878  -43.3348 H         1 UNK         0.3000 
    180 H180       -4.1354  -12.1572  -44.3323 H         1 UNK         0.0600 
    181 H181       -1.5526  -11.0484  -45.5893 H         1 UNK         0.0600 
    182 H182       -2.8200  -10.0894  -44.8167 H         1 UNK         0.0600 
    183 H183       -3.1538  -10.9447  -46.3064 H         1 UNK         0.0600 
    184 H184       -1.9893  -13.9534  -45.1701 H         1 UNK         0.3000 
    185 H185       -2.9852  -15.9736  -46.2790 H         1 UNK         0.0600 
    186 H186       -5.0931  -15.9871  -47.6045 H         1 UNK         0.0600 
    187 H187       -4.3240  -15.0335  -48.8691 H         1 UNK         0.0600 
    188 H188       -3.7626  -16.6685  -48.5220 H         1 UNK         0.0600 
    189 H189       -1.9203  -14.7606  -48.6954 H         1 UNK         0.3000 
    190 H190       -0.1945  -20.9649  -47.3903 H         1 UNK         0.3000 
    191 H191       -1.2078  -22.0220  -49.7962 H         1 UNK         0.0600 
    192 H192       -1.1799  -19.6002  -49.2705 H         1 UNK         0.0600 
    193 H193       -2.8054  -20.1151  -49.6973 H         1 UNK         0.0600 
    194 H194       -2.3888  -19.8292  -48.0117 H         1 UNK         0.0600 
    195 H195       -2.6422  -22.0867  -46.5057 H         1 UNK         0.3000 
    196 H196       -5.0714  -23.3838  -47.2244 H         1 UNK         0.0600 
    197 H197       -5.2361  -23.8685  -44.7897 H         1 UNK         0.0600 
    198 H198       -4.7566  -22.2012  -45.0716 H         1 UNK         0.0600 
    199 H199       -3.5598  -23.3884  -44.5610 H         1 UNK         0.0600 
    200 H200       -1.9410  -24.7488  -46.0548 H         1 UNK         0.3000 
    201 H201       -2.7040  -27.4719  -46.0990 H         1 UNK         0.0600 
    202 H202       -0.7295  -26.6353  -44.8672 H         1 UNK         0.0600 
    203 H203        0.0636  -26.1851  -46.3755 H         1 UNK         0.0600 
    204 H204       -0.2343  -27.8797  -46.0043 H         1 UNK         0.0600 
    205 H205       -1.3109  -25.4154  -48.6550 H         1 UNK         0.3000 
    206 H206       -1.0356  -27.4728  -50.6439 H         1 UNK         0.0600 
    207 H207        0.2437  -25.3359  -50.6850 H         1 UNK         0.0600 
    208 H208       -0.7045  -25.4980  -52.1547 H         1 UNK         0.0600 
    209 H209       -1.2525  -24.4240  -50.8728 H         1 UNK         0.0600 
    210 H210       -3.8340  -26.0482  -49.3509 H         1 UNK         0.3000 
    211 H211       -5.9691  -25.9207  -49.8181 H         1 UNK         0.0600 
    212 H212       -5.5543  -27.8435  -52.1649 H         1 UNK         0.0600 
    213 H213       -7.0642  -27.4930  -51.3395 H         1 UNK         0.0600 
    214 H214       -5.7823  -28.3364  -50.4867 H         1 UNK         0.0600 
    215 H215       -4.0106  -24.1071  -51.0459 H         1 UNK         0.3000 
    216 H216       -5.2980  -23.0178  -53.4657 H         1 UNK         0.0600 
    217 H217       -3.4543  -21.3031  -53.2057 H         1 UNK         0.0600 
    218 H218       -2.8324  -22.9420  -53.2922 H         1 UNK         0.0600 
    219 H219       -2.9246  -22.1062  -51.7445 H         1 UNK         0.0600 
    220 H220       -4.8738  -22.3581  -50.0359 H         1 UNK         0.3000 
    221 H221       -5.8543  -21.2241  -48.4571 H         1 UNK         0.0600 
    222 H222       -8.3141  -21.1706  -50.2793 H         1 UNK         0.0600 
    223 H223       -7.8834  -22.4449  -49.1412 H         1 UNK         0.0600 
    224 H224       -8.3099  -20.8458  -48.5515 H         1 UNK         0.0600 
    225 H225       -6.7496  -19.5447  -51.4724 H         1 UNK         0.3000 
    226 H226       -6.5698  -16.8790  -50.1454 H         1 UNK         0.0600 
    227 H227       -8.6999  -17.5007  -51.3070 H         1 UNK         0.0600 
    228 H228       -7.9242  -16.1251  -52.0712 H         1 UNK         0.0600 
    229 H229       -7.8155  -17.7173  -52.8166 H         1 UNK         0.0600 
    230 H230       -4.1858  -18.4054  -50.8177 H         1 UNK         0.3000 
    231 H231       -2.1306  -18.1761  -51.6260 H         1 UNK         0.0600 
    232 H232       -2.8427  -15.2527  -52.1960 H         1 UNK         0.0600 
    233 H233       -1.2349  -15.9242  -51.9722 H         1 UNK         0.0600 
    234 H234       -2.3643  -15.8897  -50.6247 H         1 UNK         0.0600 
    235 H235       -4.0751  -19.1808  -53.4465 H         1 UNK         0.3000 
    236 H236       -3.9388  -18.1720  -56.0343 H         1 UNK         0.0600 
    237 H237       -5.6348  -19.8146  -55.1451 H         1 UNK         0.0600 
    238 H238       -4.9704  -20.2816  -56.7007 H         1 UNK         0.0600 
    239 H239       -4.4216  -21.0919  -55.2475 H         1 UNK         0.0600 
    240 H240       -1.3449  -19.6841  -54.4421 H         1 UNK         0.3000 
    241 H241        0.0977  -20.7013  -56.7315 H         1 UNK         0.0600 
    242 H242       -0.5601  -17.3685  -55.6408 H         1 UNK         0.3800 
    243 H243        0.5967  -16.6429  -56.7298 H         1 UNK         0.3800 
    244 H244        2.1066  -20.5734  -55.2674 H         1 UNK         0.0800 
    245 H245        1.2073  -19.7101  -54.0614 H         1 UNK         0.0800 
    246 H246       -0.8836  -20.9829  -52.6371 H         1 UNK         0.0800 
    247 H247       -0.3878  -22.5400  -52.0278 H         1 UNK         0.0800 
@<TRIPOS>BOND
     1    1    2 1    
     2    1  127 1    
     3    1  128 1    
     4    1  129 1    
     5    2    3 2    
     6    2    4 am   BACKBONE|DICT|INTERRES
     7    4    5 1    
     8    4  130 1    
     9    5    6 1    
    10    5   65 1    
    11    5  131 1    
    12    6    7 1    
    13    6  132 1    
    14    6  133 1    
    15    7    8 1    
    16    8    9 1    
    17    8  134 1    
    18    8  135 1    
    19    9   10 ar   
    20    9   14 ar   
    21   10   11 ar   
    22   10  136 1    
    23   11   12 ar   
    24   11  126 1    
    25   12   13 ar   
    26   12  137 1    
    27   13   14 ar   
    28   13   15 1    
    29   14  138 1    
    30   15   16 1    
    31   15  139 1    
    32   15  140 1    
    33   16   17 1    
    34   17   18 1    
    35   17  141 1    
    36   17  142 1    
    37   18   19 1    
    38   18   67 1    
    39   18  143 1    
    40   19   20 am   BACKBONE|DICT|INTERRES
    41   19  144 1    
    42   20   21 2    
    43   20   22 1    
    44   22   23 1    
    45   22   24 1    
    46   22  145 1    
    47   23  146 1    
    48   23  147 1    
    49   23  148 1    
    50   24   25 am   BACKBONE|DICT|INTERRES
    51   24  149 1    
    52   25   26 2    
    53   25   27 1    
    54   27   28 1    
    55   27   29 1    
    56   27  150 1    
    57   28  151 1    
    58   28  152 1    
    59   28  153 1    
    60   29   30 am   BACKBONE|DICT|INTERRES
    61   29  154 1    
    62   30   31 2    
    63   30   32 1    
    64   32   33 1    
    65   32   34 1    
    66   32  155 1    
    67   33  156 1    
    68   33  157 1    
    69   33  158 1    
    70   34   35 am   BACKBONE|DICT|INTERRES
    71   34  159 1    
    72   35   36 2    
    73   35   37 1    
    74   37   38 1    
    75   37   39 1    
    76   37  160 1    
    77   38  161 1    
    78   38  162 1    
    79   38  163 1    
    80   39   40 am   BACKBONE|DICT|INTERRES
    81   39  164 1    
    82   40   41 2    
    83   40   42 1    
    84   42   43 1    
    85   42   44 1    
    86   42  165 1    
    87   43  166 1    
    88   43  167 1    
    89   43  168 1    
    90   44   45 am   BACKBONE|DICT|INTERRES
    91   44  169 1    
    92   45   46 2    
    93   45   47 1    
    94   47   48 1    
    95   47   49 1    
    96   47  170 1    
    97   48  171 1    
    98   48  172 1    
    99   48  173 1    
   100   49   50 am   BACKBONE|DICT|INTERRES
   101   49  174 1    
   102   50   51 2    
   103   50   52 1    
   104   52   53 1    
   105   52   54 1    
   106   52  175 1    
   107   53  176 1    
   108   53  177 1    
   109   53  178 1    
   110   54   55 am   BACKBONE|DICT|INTERRES
   111   54  179 1    
   112   55   56 2    
   113   55   57 1    
   114   57   58 1    
   115   57   59 1    
   116   57  180 1    
   117   58  181 1    
   118   58  182 1    
   119   58  183 1    
   120   59   60 am   BACKBONE|DICT|INTERRES
   121   59  184 1    
   122   60   61 2    
   123   60   62 1    
   124   62   63 1    
   125   62   64 1    
   126   62  185 1    
   127   63  186 1    
   128   63  187 1    
   129   63  188 1    
   130   64   65 am   BACKBONE|DICT|INTERRES
   131   64  189 1    
   132   65   66 2    
   133   67   68 2    
   134   67   69 am   BACKBONE|DICT|INTERRES
   135   69   70 1    
   136   69  190 1    
   137   70   71 1    
   138   70   72 1    
   139   70  191 1    
   140   71  192 1    
   141   71  193 1    
   142   71  194 1    
   143   72   73 2    
   144   72   74 am   BACKBONE|DICT|INTERRES
   145   74   75 1    
   146   74  195 1    
   147   75   76 1    
   148   75   77 1    
   149   75  196 1    
   150   76  197 1    
   151   76  198 1    
   152   76  199 1    
   153   77   78 2    
   154   77   79 am   BACKBONE|DICT|INTERRES
   155   79   80 1    
   156   79  200 1    
   157   80   81 1    
   158   80   82 1    
   159   80  201 1    
   160   81  202 1    
   161   81  203 1    
   162   81  204 1    
   163   82   83 2    
   164   82   84 am   BACKBONE|DICT|INTERRES
   165   84   85 1    
   166   84  205 1    
   167   85   86 1    
   168   85   87 1    
   169   85  206 1    
   170   86  207 1    
   171   86  208 1    
   172   86  209 1    
   173   87   88 2    
   174   87   89 am   BACKBONE|DICT|INTERRES
   175   89   90 1    
   176   89  210 1    
   177   90   91 1    
   178   90   92 1    
   179   90  211 1    
   180   91  212 1    
   181   91  213 1    
   182   91  214 1    
   183   92   93 2    
   184   92   94 am   BACKBONE|DICT|INTERRES
   185   94   95 1    
   186   94  215 1    
   187   95   96 1    
   188   95   97 1    
   189   95  216 1    
   190   96  217 1    
   191   96  218 1    
   192   96  219 1    
   193   97   98 2    
   194   97   99 am   BACKBONE|DICT|INTERRES
   195   99  100 1    
   196   99  220 1    
   197  100  101 1    
   198  100  102 1    
   199  100  221 1    
   200  101  222 1    
   201  101  223 1    
   202  101  224 1    
   203  102  103 2    
   204  102  104 am   BACKBONE|DICT|INTERRES
   205  104  105 1    
   206  104  225 1    
   207  105  106 1    
   208  105  107 1    
   209  105  226 1    
   210  106  227 1    
   211  106  228 1    
   212  106  229 1    
   213  107  108 2    
   214  107  109 am   BACKBONE|DICT|INTERRES
   215  109  110 1    
   216  109  230 1    
   217  110  111 1    
   218  110  112 1    
   219  110  231 1    
   220  111  232 1    
   221  111  233 1    
   222  111  234 1    
   223  112  113 2    
   224  112  114 am   BACKBONE|DICT|INTERRES
   225  114  115 1    
   226  114  235 1    
   227  115  116 1    
   228  115  117 1    
   229  115  236 1    
   230  116  237 1    
   231  116  238 1    
   232  116  239 1    
   233  117  118 2    
   234  117  119 am   BACKBONE|DICT|INTERRES
   235  119  120 1    
   236  119  240 1    
   237  120  121 1    
   238  120  124 1    
   239  120  241 1    
   240  121  122 am   BACKBONE|DICT|INTERRES
   241  121  123 2    
   242  122  242 1    
   243  122  243 1    
   244  124  125 1    
   245  124  244 1    
   246  124  245 1    
   247  125  126 1    
   248  126  246 1    
   249  126  247 1    
@<TRIPOS>SUBSTRUCTURE
     1 UNK         1 GROUP             0       ****    0 ROOT    
