@<TRIPOS>MOLECULE
3R540
247   249    1
SMALL
USER_CHARGES


@<TRIPOS>ATOM
      1 CA          1.1034   -8.2490  -48.6343 C.3       0 UNK        -0.1800 
      2 C           2.1976   -9.0471  -49.3295 C.2       0 UNK         0.5000 
      3 O           3.2662   -8.5048  -49.6143 O.2       0 UNK        -0.5000 
      4 N           1.9319  -10.3278  -49.6104 N.am      1 UNK        -0.5000 
      5 CA          2.8862  -11.2798  -50.1852 C.3       1 UNK         0.1400 
      6 C6          2.1581  -12.5056  -50.7979 C.3       23 UNK        -0.0398 
      7 S7          1.1681  -13.4765  -49.6054 S.3       23 UNK        -0.2404 
      8 C8          0.0213  -14.3318  -50.7254 C.3       23 UNK        -0.0205 
      9 C9         -0.7534  -15.4161  -49.9931 C.ar      23 UNK        -0.0193 
     10 C10        -1.9801  -15.1300  -49.3877 C.ar      23 UNK        -0.1150 
     11 C11        -2.6980  -16.1339  -48.7285 C.ar      23 UNK        -0.0193 
     12 C12        -2.1789  -17.4312  -48.6750 C.ar      23 UNK        -0.1150 
     13 C13        -0.9524  -17.7273  -49.2767 C.ar      23 UNK        -0.0193 
     14 C14        -0.2470  -16.7160  -49.9330 C.ar      23 UNK        -0.1150 
     15 C15        -0.4000  -19.1425  -49.2661 C.3       23 UNK        -0.0205 
     16 S16         0.6909  -19.4596  -47.8465 S.3       23 UNK        -0.2404 
     17 C17        -0.5018  -19.9101  -46.5489 C.3       23 UNK        -0.0398 
     18 CA         -0.6515  -21.4422  -46.3662 C.3       11 UNK         0.1400 
     19 N          -1.0555  -21.7643  -44.9972 N.am      11 UNK        -0.5000 
     20 C          -1.1686  -22.9942  -44.4800 C.2       10 UNK         0.5000 
     21 O          -0.8861  -24.0266  -45.0868 O.2       10 UNK        -0.5000 
     22 CA         -1.7529  -23.0777  -43.0601 C.3       10 UNK         0.1400 
     23 CB         -0.6740  -22.7916  -42.0044 C.3       10 UNK        -0.1800 
     24 N          -2.8782  -22.1565  -42.8839 N.am      10 UNK        -0.5000 
     25 C          -4.0747  -22.3110  -43.4690 C.2       9 UNK         0.5000 
     26 O          -4.3608  -23.2646  -44.1906 O.2       9 UNK        -0.5000 
     27 CA         -5.1159  -21.2012  -43.2399 C.3       9 UNK         0.1400 
     28 CB         -5.8593  -21.4222  -41.9144 C.3       9 UNK        -0.1800 
     29 N          -4.5278  -19.8626  -43.2489 N.am      9 UNK        -0.5000 
     30 C          -4.0081  -19.2695  -44.3323 C.2       8 UNK         0.5000 
     31 O          -3.9708  -19.7831  -45.4505 O.2       8 UNK        -0.5000 
     32 CA         -3.3724  -17.8852  -44.1108 C.3       8 UNK         0.1400 
     33 CB         -4.4499  -16.7903  -44.1018 C.3       8 UNK        -0.1800 
     34 N          -2.5799  -17.7845  -42.8807 N.am      8 UNK        -0.5000 
     35 C          -1.5427  -18.5703  -42.5654 C.2       7 UNK         0.5000 
     36 O          -1.1911  -19.5453  -43.2322 O.2       7 UNK        -0.5000 
     37 CA         -0.7782  -18.2277  -41.2746 C.3       7 UNK         0.1400 
     38 CB         -1.2202  -19.1496  -40.1280 C.3       7 UNK        -0.1800 
     39 N           0.6664  -18.3584  -41.4712 N.am      7 UNK        -0.5000 
     40 C           1.3808  -17.5827  -42.2965 C.2       6 UNK         0.5000 
     41 O           0.9065  -16.6199  -42.9049 O.2       6 UNK        -0.5000 
     42 CA          2.8559  -17.9717  -42.4966 C.3       6 UNK         0.1400 
     43 CB          2.9726  -19.0894  -43.5464 C.3       6 UNK        -0.1800 
     44 N           3.6194  -16.8116  -42.9506 N.am      6 UNK        -0.5000 
     45 C           4.1932  -15.9119  -42.1379 C.2       5 UNK         0.5000 
     46 O           4.2889  -16.0585  -40.9185 O.2       5 UNK        -0.5000 
     47 CA          4.7337  -14.6180  -42.7859 C.3       5 UNK         0.1400 
     48 CB          6.2245  -14.7648  -43.1257 C.3       5 UNK        -0.1800 
     49 N           4.0053  -14.2516  -43.9998 N.am      5 UNK        -0.5000 
     50 C           2.7189  -13.8742  -44.0376 C.2       4 UNK         0.5000 
     51 O           2.0783  -13.5648  -43.0320 O.2       4 UNK        -0.5000 
     52 CA          2.0214  -13.8538  -45.4163 C.3       4 UNK         0.1400 
     53 CB          1.4999  -12.4455  -45.7444 C.3       4 UNK        -0.1800 
     54 N           2.8541  -14.3393  -46.5252 N.am      4 UNK        -0.5000 
     55 C           3.2569  -15.6103  -46.6920 C.2       3 UNK         0.5000 
     56 O           2.9838  -16.5103  -45.8988 O.2       3 UNK        -0.5000 
     57 CA          4.1577  -15.9361  -47.9017 C.3       3 UNK         0.1400 
     58 CB          3.3770  -16.7069  -48.9745 C.3       3 UNK        -0.1800 
     59 N           4.7665  -14.7601  -48.5216 N.am      3 UNK        -0.5000 
     60 C           5.7371  -14.0112  -47.9806 C.2       2 UNK         0.5000 
     61 O           6.2593  -14.2531  -46.8919 O.2       2 UNK        -0.5000 
     62 CA          6.1656  -12.7619  -48.7800 C.3       2 UNK         0.1400 
     63 CB          7.3875  -13.0770  -49.6560 C.3       2 UNK        -0.1800 
     64 N           5.0945  -12.2159  -49.6249 N.am      2 UNK        -0.5000 
     65 C           3.9514  -11.7033  -49.1478 C.2       1 UNK         0.5000 
     66 O           3.7102  -11.6157  -47.9419 O.2       1 UNK        -0.5000 
     67 C          -1.6170  -22.0640  -47.4012 C.2       11 UNK         0.5000 
     68 O          -1.1684  -22.6753  -48.3738 O.2       11 UNK        -0.5000 
     69 N          -2.9271  -21.9405  -47.1387 N.am      12 UNK        -0.5000 
     70 CA         -3.9936  -22.5529  -47.9259 C.3       12 UNK         0.1400 
     71 CB         -5.3532  -22.0028  -47.4768 C.3       12 UNK        -0.1800 
     72 C          -3.9819  -24.0892  -47.8605 C.2       12 UNK         0.5000 
     73 O          -4.0924  -24.7289  -48.9043 O.2       12 UNK        -0.5000 
     74 N          -3.8145  -24.6578  -46.6574 N.am      13 UNK        -0.5000 
     75 CA         -3.7308  -26.1044  -46.4246 C.3       13 UNK         0.1400 
     76 CB         -3.7121  -26.3868  -44.9152 C.3       13 UNK        -0.1800 
     77 C          -2.5216  -26.7652  -47.1138 C.2       13 UNK         0.5000 
     78 O          -2.6330  -27.8977  -47.5843 O.2       13 UNK        -0.5000 
     79 N          -1.4046  -26.0307  -47.1988 N.am      14 UNK        -0.5000 
     80 CA         -0.2093  -26.4041  -47.9563 C.3       14 UNK         0.1400 
     81 CB          0.9650  -25.5329  -47.4813 C.3       14 UNK        -0.1800 
     82 C          -0.3851  -26.2812  -49.4857 C.2       14 UNK         0.5000 
     83 O           0.4638  -26.7832  -50.2236 O.2       14 UNK        -0.5000 
     84 N          -1.4594  -25.6096  -49.9309 N.am      15 UNK        -0.5000 
     85 CA         -1.8039  -25.2756  -51.3167 C.3       15 UNK         0.1400 
     86 CB         -2.1634  -26.5432  -52.1178 C.3       15 UNK        -0.1800 
     87 C          -0.7346  -24.3999  -52.0005 C.2       15 UNK         0.5000 
     88 O          -0.4671  -24.5589  -53.1937 O.2       15 UNK        -0.5000 
     89 N          -0.1307  -23.4941  -51.2212 N.am      16 UNK        -0.5000 
     90 CA          0.8185  -22.4996  -51.7047 C.3       16 UNK         0.1400 
     91 CB          1.7063  -22.0554  -50.5338 C.3       16 UNK        -0.1800 
     92 C           0.0656  -21.3063  -52.3147 C.2       16 UNK         0.5000 
     93 O          -1.0261  -20.9716  -51.8504 O.2       16 UNK        -0.5000 
     94 N           0.6689  -20.6820  -53.3352 N.am      17 UNK        -0.5000 
     95 CA          0.2184  -19.5018  -54.0919 C.3       17 UNK         0.1400 
     96 CB          0.0807  -18.2713  -53.1744 C.3       17 UNK        -0.1800 
     97 C          -1.0562  -19.6991  -54.9421 C.2       17 UNK         0.5000 
     98 O          -1.1223  -19.1688  -56.0520 O.2       17 UNK        -0.5000 
     99 N          -2.0322  -20.4531  -54.4320 N.am      18 UNK        -0.5000 
    100 CA        -3.3037  -20.7751  -55.0661 C.3       18 UNK         0.1400 
    101 CB        -4.3031  -19.6314  -54.8159 C.3       18 UNK        -0.1800 
    102 C         -3.8281  -22.1035  -54.5010 C.2       18 UNK         0.5000 
    103 O         -3.3282  -22.5879  -53.4817 O.2       18 UNK        -0.5000 
    104 N         -4.8551  -22.6602  -55.1542 N.am      19 UNK        -0.5000 
    105 CA        -5.5275  -23.9096  -54.7871 C.3       19 UNK         0.1400 
    106 CB        -6.2858  -24.4389  -56.0179 C.3       19 UNK        -0.1800 
    107 C         -6.4396  -23.7470  -53.5503 C.2       19 UNK         0.5000 
    108 O         -7.6573  -23.9065  -53.6493 O.2       19 UNK        -0.5000 
    109 N         -5.8196  -23.4111  -52.4113 N.am      20 UNK        -0.5000 
    110 CA        -6.4116  -23.2218  -51.0827 C.3       20 UNK         0.1400 
    111 CB        -6.9877  -24.5479  -50.5445 C.3       20 UNK        -0.1800 
    112 C         -7.4207  -22.0557  -51.0057 C.2       20 UNK         0.5000 
    113 O         -8.3491  -22.0987  -50.1965 O.2       20 UNK        -0.5000 
    114 N         -7.2104  -21.0185  -51.8304 N.am      21 UNK        -0.5000 
    115 CA        -8.0961  -19.8568  -51.9795 C.3       21 UNK         0.1400 
    116 CB        -7.5579  -18.9553  -53.1005 C.3       21 UNK        -0.1800 
    117 C         -8.3093  -19.0410  -50.6880 C.2       21 UNK         0.5000 
    118 O         -9.3879  -18.4761  -50.5017 O.2       21 UNK        -0.5000 
    119 N         -7.2932  -19.0167  -49.8171 N.am      22 UNK        -0.5000 
    120 CA        -7.3506  -18.4122  -48.4757 C.3       22 UNK         0.1400 
    121 C         -7.9902  -19.3295  -47.3881 C.2       22 UNK         0.5000 
    122 N         -8.4431  -20.5392  -47.6983 N.am      22 UNK        -0.7600 
    123 O         -8.0971  -18.9266  -46.2333 O.2       22 UNK        -0.5000 
    124 C124       -5.9651  -17.8712  -48.0348 C.3       23 UNK        -0.0398 
    125 S125       -5.4293  -16.4550  -49.0535 S.3       23 UNK        -0.2404 
    126 C126       -4.0328  -15.8147  -48.0747 C.3       23 UNK        -0.0205 
    127 H127        0.8144   -7.3947  -49.2465 H         1 UNK         0.0600 
    128 H128        1.4631   -7.8770  -47.6750 H         1 UNK         0.0600 
    129 H129        0.2144   -8.8535  -48.4522 H         1 UNK         0.0600 
    130 H130        1.0525  -10.7289  -49.3176 H         1 UNK         0.3000 
    131 H131        3.4115  -10.7712  -50.9965 H         1 UNK         0.0600 
    132 H132        1.4977  -12.1615  -51.5953 H         1 UNK         0.0800 
    133 H133        2.8717  -13.1753  -51.2803 H         1 UNK         0.0800 
    134 H134       -0.6662  -13.6078  -51.1653 H         1 UNK         0.0800 
    135 H135        0.5799  -14.7719  -51.5532 H         1 UNK         0.0800 
    136 H136       -2.3762  -14.1252  -49.4337 H         1 UNK         0.1150 
    137 H137       -2.7403  -18.2101  -48.1796 H         1 UNK         0.1150 
    138 H138        0.6948  -16.9461  -50.4092 H         1 UNK         0.1150 
    139 H139       -1.2102  -19.8716  -49.3016 H         1 UNK         0.0800 
    140 H140        0.1849  -19.2989  -50.1720 H         1 UNK         0.0800 
    141 H141       -1.4635  -19.4244  -46.7117 H         1 UNK         0.0800 
    142 H142       -0.1072  -19.4665  -45.6339 H         1 UNK         0.0800 
    143 H143        0.3260  -21.9071  -46.5121 H         1 UNK         0.0600 
    144 H144       -1.2663  -20.9726  -44.3931 H         1 UNK         0.3000 
    145 H145       -2.1167  -24.0954  -42.9043 H         1 UNK         0.0600 
    146 H146       -1.0784  -22.8687  -40.9951 H         1 UNK         0.0600 
    147 H147        0.1434  -23.5095  -42.0826 H         1 UNK         0.0600 
    148 H148       -0.2443  -21.7964  -42.1201 H         1 UNK         0.0600 
    149 H149       -2.6986  -21.3139  -42.3587 H         1 UNK         0.3000 
    150 H150       -5.8444  -21.2558  -44.0520 H         1 UNK         0.0600 
    151 H151       -6.3236  -22.4090  -41.8879 H         1 UNK         0.0600 
    152 H152       -6.6535  -20.6874  -41.7810 H         1 UNK         0.0600 
    153 H153       -5.1882  -21.3518  -41.0575 H         1 UNK         0.0600 
    154 H154       -4.5045  -19.3663  -42.3705 H         1 UNK         0.3000 
    155 H155       -2.7011  -17.6984  -44.9517 H         1 UNK         0.0600 
    156 H156       -5.0908  -16.8631  -43.2224 H         1 UNK         0.0600 
    157 H157       -4.0016  -15.7965  -44.1092 H         1 UNK         0.0600 
    158 H158       -5.0946  -16.8608  -44.9769 H         1 UNK         0.0600 
    159 H159       -2.8041  -17.0114  -42.2711 H         1 UNK         0.3000 
    160 H160       -0.9935  -17.1943  -40.9948 H         1 UNK         0.0600 
    161 H161       -1.0070  -20.1967  -40.3446 H         1 UNK         0.0600 
    162 H162       -2.2926  -19.0636  -39.9479 H         1 UNK         0.0600 
    163 H163       -0.7145  -18.8909  -39.1975 H         1 UNK         0.0600 
    164 H164        1.1099  -19.1522  -41.0334 H         1 UNK         0.3000 
    165 H165        3.2606  -18.3365  -41.5503 H         1 UNK         0.0600 
    166 H166        4.0139  -19.3586  -43.7232 H         1 UNK         0.0600 
    167 H167        2.4538  -19.9911  -43.2183 H         1 UNK         0.0600 
    168 H168        2.5357  -18.7939  -44.5014 H         1 UNK         0.0600 
    169 H169        3.5101  -16.5823  -43.9334 H         1 UNK         0.3000 
    170 H170        4.6221  -13.8086  -42.0615 H         1 UNK         0.0600 
    171 H171        6.8050  -15.0170  -42.2374 H         1 UNK         0.0600 
    172 H172        6.3932  -15.5501  -43.8639 H         1 UNK         0.0600 
    173 H173        6.6309  -13.8362  -43.5271 H         1 UNK         0.0600 
    174 H174        4.4664  -14.4451  -44.8776 H         1 UNK         0.3000 
    175 H175        1.1595  -14.5202  -45.3415 H         1 UNK         0.0600 
    176 H176        1.0174  -12.4152  -46.7211 H         1 UNK         0.0600 
    177 H177        2.3039  -11.7094  -45.7406 H         1 UNK         0.0600 
    178 H178        0.7617  -12.1226  -45.0095 H         1 UNK         0.0600 
    179 H179        3.1464  -13.6402  -47.1969 H         1 UNK         0.3000 
    180 H180        4.9602  -16.5817  -47.5388 H         1 UNK         0.0600 
    181 H181        2.5877  -16.0938  -49.4061 H         1 UNK         0.0600 
    182 H182        2.9111  -17.5988  -48.5555 H         1 UNK         0.0600 
    183 H183        4.0307  -17.0327  -49.7836 H         1 UNK         0.0600 
    184 H184        4.3931  -14.4808  -49.4160 H         1 UNK         0.3000 
    185 H185        6.4510  -11.9936  -48.0583 H         1 UNK         0.0600 
    186 H186        8.2109  -13.4625  -49.0531 H         1 UNK         0.0600 
    187 H187        7.1573  -13.8262  -50.4145 H         1 UNK         0.0600 
    188 H188        7.7501  -12.1833  -50.1643 H         1 UNK         0.0600 
    189 H189        5.2439  -12.2566  -50.6231 H         1 UNK         0.3000 
    190 H190       -3.2198  -21.3791  -46.3447 H         1 UNK         0.3000 
    191 H191       -3.8364  -22.2636  -48.9669 H         1 UNK         0.0600 
    192 H192       -6.1697  -22.4529  -48.0417 H         1 UNK         0.0600 
    193 H193       -5.4067  -20.9267  -47.6273 H         1 UNK         0.0600 
    194 H194       -5.5418  -22.1991  -46.4215 H         1 UNK         0.0600 
    195 H195       -3.7898  -24.0665  -45.8310 H         1 UNK         0.3000 
    196 H196       -4.6324  -26.5570  -46.8425 H         1 UNK         0.0600 
    197 H197       -3.6657  -27.4585  -44.7179 H         1 UNK         0.0600 
    198 H198       -4.6123  -26.0072  -44.4316 H         1 UNK         0.0600 
    199 H199       -2.8508  -25.9261  -44.4313 H         1 UNK         0.0600 
    200 H200       -1.3734  -25.1387  -46.7147 H         1 UNK         0.3000 
    201 H201        0.0276  -27.4469  -47.7362 H         1 UNK         0.0600 
    202 H202        1.1381  -25.6535  -46.4117 H         1 UNK         0.0600 
    203 H203        0.7837  -24.4748  -47.6730 H         1 UNK         0.0600 
    204 H204        1.8890  -25.8054  -47.9927 H         1 UNK         0.0600 
    205 H205       -2.1100  -25.2524  -49.2412 H         1 UNK         0.3000 
    206 H206       -2.7017  -24.6580  -51.2660 H         1 UNK         0.0600 
    207 H207       -2.5492  -26.2839  -53.1044 H         1 UNK         0.0600 
    208 H208       -1.2980  -27.1902  -52.2636 H         1 UNK         0.0600 
    209 H209       -2.9353  -27.1220  -51.6105 H         1 UNK         0.0600 
    210 H210       -0.4554  -23.3769  -50.2672 H         1 UNK         0.3000 
    211 H211        1.4557  -22.9475  -52.4703 H         1 UNK         0.0600 
    212 H212        1.1099  -21.6878  -49.6999 H         1 UNK         0.0600 
    213 H213        2.3877  -21.2577  -50.8318 H         1 UNK         0.0600 
    214 H214        2.3121  -22.8835  -50.1656 H         1 UNK         0.0600 
    215 H215        1.5500  -21.0619  -53.6526 H         1 UNK         0.3000 
    216 H216        1.0239  -19.2883  -54.7963 H         1 UNK         0.0600 
    217 H217       -0.1280  -17.3731  -53.7567 H         1 UNK         0.0600 
    218 H218        0.9993  -18.0906  -52.6165 H         1 UNK         0.0600 
    219 H219       -0.7327  -18.3863  -52.4574 H         1 UNK         0.0600 
    220 H220       -1.8944  -20.8662  -53.5106 H         1 UNK         0.3000 
    221 H221       -3.1508  -20.9032  -56.1396 H         1 UNK         0.0600 
    222 H222       -4.4676  -19.4747  -53.7494 H         1 UNK         0.0600 
    223 H223       -3.9436  -18.6927  -55.2379 H         1 UNK         0.0600 
    224 H224       -5.2699  -19.8395  -55.2750 H         1 UNK         0.0600 
    225 H225       -5.2272  -22.1846  -55.9636 H         1 UNK         0.3000 
    226 H226       -4.7662  -24.6488  -54.5281 H         1 UNK         0.0600 
    227 H227       -5.6078  -24.6140  -56.8533 H         1 UNK         0.0600 
    228 H228       -6.7767  -25.3876  -55.7970 H         1 UNK         0.0600 
    229 H229       -7.0544  -23.7398  -56.3502 H         1 UNK         0.0600 
    230 H230       -4.8191  -23.2406  -52.4794 H         1 UNK         0.3000 
    231 H231       -5.5839  -22.9387  -50.4349 H         1 UNK         0.0600 
    232 H232       -7.2708  -24.4545  -49.4954 H         1 UNK         0.0600 
    233 H233       -6.2529  -25.3507  -50.6076 H         1 UNK         0.0600 
    234 H234       -7.8745  -24.8593  -51.0970 H         1 UNK         0.0600 
    235 H235       -6.4230  -21.0676  -52.4588 H         1 UNK         0.3000 
    236 H236       -9.0733  -20.2341  -52.2876 H         1 UNK         0.0600 
    237 H237       -7.4803  -19.4983  -54.0425 H         1 UNK         0.0600 
    238 H238       -8.2218  -18.1067  -53.2709 H         1 UNK         0.0600 
    239 H239       -6.5734  -18.5550  -52.8562 H         1 UNK         0.0600 
    240 H240       -6.4434  -19.5038  -50.0560 H         1 UNK         0.3000 
    241 H241       -8.0201  -17.5513  -48.5270 H         1 UNK         0.0600 
    242 H242       -8.8633  -21.0999  -46.9752 H         1 UNK         0.3800 
    243 H243       -8.3972  -20.9052  -48.6435 H         1 UNK         0.3800 
    244 H244       -6.0046  -17.5344  -46.9989 H         1 UNK         0.0800 
    245 H245       -5.2051  -18.6517  -48.0758 H         1 UNK         0.0800 
    246 H246       -4.1525  -14.7357  -47.9658 H         1 UNK         0.0800 
    247 H247       -4.0462  -16.2211  -47.0636 H         1 UNK         0.0800 
@<TRIPOS>BOND
     1    1    2 1    
     2    1  127 1    
     3    1  128 1    
     4    1  129 1    
     5    2    3 2    
     6    2    4 am   BACKBONE|DICT|INTERRES
     7    4    5 1    
     8    4  130 1    
     9    5    6 1    
    10    5   65 1    
    11    5  131 1    
    12    6    7 1    
    13    6  132 1    
    14    6  133 1    
    15    7    8 1    
    16    8    9 1    
    17    8  134 1    
    18    8  135 1    
    19    9   10 ar   
    20    9   14 ar   
    21   10   11 ar   
    22   10  136 1    
    23   11   12 ar   
    24   11  126 1    
    25   12   13 ar   
    26   12  137 1    
    27   13   14 ar   
    28   13   15 1    
    29   14  138 1    
    30   15   16 1    
    31   15  139 1    
    32   15  140 1    
    33   16   17 1    
    34   17   18 1    
    35   17  141 1    
    36   17  142 1    
    37   18   19 1    
    38   18   67 1    
    39   18  143 1    
    40   19   20 am   BACKBONE|DICT|INTERRES
    41   19  144 1    
    42   20   21 2    
    43   20   22 1    
    44   22   23 1    
    45   22   24 1    
    46   22  145 1    
    47   23  146 1    
    48   23  147 1    
    49   23  148 1    
    50   24   25 am   BACKBONE|DICT|INTERRES
    51   24  149 1    
    52   25   26 2    
    53   25   27 1    
    54   27   28 1    
    55   27   29 1    
    56   27  150 1    
    57   28  151 1    
    58   28  152 1    
    59   28  153 1    
    60   29   30 am   BACKBONE|DICT|INTERRES
    61   29  154 1    
    62   30   31 2    
    63   30   32 1    
    64   32   33 1    
    65   32   34 1    
    66   32  155 1    
    67   33  156 1    
    68   33  157 1    
    69   33  158 1    
    70   34   35 am   BACKBONE|DICT|INTERRES
    71   34  159 1    
    72   35   36 2    
    73   35   37 1    
    74   37   38 1    
    75   37   39 1    
    76   37  160 1    
    77   38  161 1    
    78   38  162 1    
    79   38  163 1    
    80   39   40 am   BACKBONE|DICT|INTERRES
    81   39  164 1    
    82   40   41 2    
    83   40   42 1    
    84   42   43 1    
    85   42   44 1    
    86   42  165 1    
    87   43  166 1    
    88   43  167 1    
    89   43  168 1    
    90   44   45 am   BACKBONE|DICT|INTERRES
    91   44  169 1    
    92   45   46 2    
    93   45   47 1    
    94   47   48 1    
    95   47   49 1    
    96   47  170 1    
    97   48  171 1    
    98   48  172 1    
    99   48  173 1    
   100   49   50 am   BACKBONE|DICT|INTERRES
   101   49  174 1    
   102   50   51 2    
   103   50   52 1    
   104   52   53 1    
   105   52   54 1    
   106   52  175 1    
   107   53  176 1    
   108   53  177 1    
   109   53  178 1    
   110   54   55 am   BACKBONE|DICT|INTERRES
   111   54  179 1    
   112   55   56 2    
   113   55   57 1    
   114   57   58 1    
   115   57   59 1    
   116   57  180 1    
   117   58  181 1    
   118   58  182 1    
   119   58  183 1    
   120   59   60 am   BACKBONE|DICT|INTERRES
   121   59  184 1    
   122   60   61 2    
   123   60   62 1    
   124   62   63 1    
   125   62   64 1    
   126   62  185 1    
   127   63  186 1    
   128   63  187 1    
   129   63  188 1    
   130   64   65 am   BACKBONE|DICT|INTERRES
   131   64  189 1    
   132   65   66 2    
   133   67   68 2    
   134   67   69 am   BACKBONE|DICT|INTERRES
   135   69   70 1    
   136   69  190 1    
   137   70   71 1    
   138   70   72 1    
   139   70  191 1    
   140   71  192 1    
   141   71  193 1    
   142   71  194 1    
   143   72   73 2    
   144   72   74 am   BACKBONE|DICT|INTERRES
   145   74   75 1    
   146   74  195 1    
   147   75   76 1    
   148   75   77 1    
   149   75  196 1    
   150   76  197 1    
   151   76  198 1    
   152   76  199 1    
   153   77   78 2    
   154   77   79 am   BACKBONE|DICT|INTERRES
   155   79   80 1    
   156   79  200 1    
   157   80   81 1    
   158   80   82 1    
   159   80  201 1    
   160   81  202 1    
   161   81  203 1    
   162   81  204 1    
   163   82   83 2    
   164   82   84 am   BACKBONE|DICT|INTERRES
   165   84   85 1    
   166   84  205 1    
   167   85   86 1    
   168   85   87 1    
   169   85  206 1    
   170   86  207 1    
   171   86  208 1    
   172   86  209 1    
   173   87   88 2    
   174   87   89 am   BACKBONE|DICT|INTERRES
   175   89   90 1    
   176   89  210 1    
   177   90   91 1    
   178   90   92 1    
   179   90  211 1    
   180   91  212 1    
   181   91  213 1    
   182   91  214 1    
   183   92   93 2    
   184   92   94 am   BACKBONE|DICT|INTERRES
   185   94   95 1    
   186   94  215 1    
   187   95   96 1    
   188   95   97 1    
   189   95  216 1    
   190   96  217 1    
   191   96  218 1    
   192   96  219 1    
   193   97   98 2    
   194   97   99 am   BACKBONE|DICT|INTERRES
   195   99  100 1    
   196   99  220 1    
   197  100  101 1    
   198  100  102 1    
   199  100  221 1    
   200  101  222 1    
   201  101  223 1    
   202  101  224 1    
   203  102  103 2    
   204  102  104 am   BACKBONE|DICT|INTERRES
   205  104  105 1    
   206  104  225 1    
   207  105  106 1    
   208  105  107 1    
   209  105  226 1    
   210  106  227 1    
   211  106  228 1    
   212  106  229 1    
   213  107  108 2    
   214  107  109 am   BACKBONE|DICT|INTERRES
   215  109  110 1    
   216  109  230 1    
   217  110  111 1    
   218  110  112 1    
   219  110  231 1    
   220  111  232 1    
   221  111  233 1    
   222  111  234 1    
   223  112  113 2    
   224  112  114 am   BACKBONE|DICT|INTERRES
   225  114  115 1    
   226  114  235 1    
   227  115  116 1    
   228  115  117 1    
   229  115  236 1    
   230  116  237 1    
   231  116  238 1    
   232  116  239 1    
   233  117  118 2    
   234  117  119 am   BACKBONE|DICT|INTERRES
   235  119  120 1    
   236  119  240 1    
   237  120  121 1    
   238  120  124 1    
   239  120  241 1    
   240  121  122 am   BACKBONE|DICT|INTERRES
   241  121  123 2    
   242  122  242 1    
   243  122  243 1    
   244  124  125 1    
   245  124  244 1    
   246  124  245 1    
   247  125  126 1    
   248  126  246 1    
   249  126  247 1    
@<TRIPOS>SUBSTRUCTURE
     1 UNK         1 GROUP             0       ****    0 ROOT    
