@<TRIPOS>MOLECULE
3R540
247   249    1
SMALL
USER_CHARGES


@<TRIPOS>ATOM
      1 CA          4.8956  -13.9832  -46.9515 C.3       0 UNK        -0.1800 
      2 C           3.5340  -13.6348  -46.3704 C.2       0 UNK         0.5000 
      3 O           3.4249  -13.4027  -45.1676 O.2       0 UNK        -0.5000 
      4 N           2.4994  -13.5748  -47.2184 N.am      1 UNK        -0.5000 
      5 CA          1.0980  -13.3358  -46.8390 C.3       1 UNK         0.1400 
      6 C6          0.1334  -13.4731  -48.0452 C.3       23 UNK        -0.0398 
      7 S7          0.3361  -15.0458  -48.9426 S.3       23 UNK        -0.2404 
      8 C8         -1.2095  -15.1130  -49.9040 C.3       23 UNK        -0.0205 
      9 C9         -1.1155  -16.1577  -51.0067 C.ar      23 UNK        -0.0193 
     10 C10        -1.1582  -15.7841  -52.3538 C.ar      23 UNK        -0.1150 
     11 C11        -1.0317  -16.7414  -53.3664 C.ar      23 UNK        -0.0193 
     12 C12        -0.8308  -18.0806  -53.0098 C.ar      23 UNK        -0.1150 
     13 C13        -0.8086  -18.4726  -51.6695 C.ar      23 UNK        -0.0193 
     14 C14        -0.9706  -17.5055  -50.6745 C.ar      23 UNK        -0.1150 
     15 C15        -0.6767  -19.9464  -51.3154 C.3       23 UNK        -0.0205 
     16 S16         0.8662  -20.3537  -50.4358 S.3       23 UNK        -0.2404 
     17 C17         0.3487  -20.2671  -48.6881 C.3       23 UNK        -0.0398 
     18 CA         -0.1388  -21.6169  -48.1077 C.3       11 UNK         0.1400 
     19 N          -0.1146  -21.5882  -46.6460 N.am      11 UNK        -0.5000 
     20 C          -0.3283  -22.6520  -45.8636 C.2       10 UNK         0.5000 
     21 O          -0.5138  -23.7897  -46.2932 O.2       10 UNK        -0.5000 
     22 CA         -0.4074  -22.3862  -44.3503 C.3       10 UNK         0.1400 
     23 CB          0.9973  -22.2417  -43.7472 C.3       10 UNK        -0.1800 
     24 N          -1.2106  -21.2035  -44.0325 N.am      10 UNK        -0.5000 
     25 C          -2.5132  -21.0773  -44.3251 C.2       9 UNK         0.5000 
     26 O          -3.1792  -21.9641  -44.8593 O.2       9 UNK        -0.5000 
     27 CA         -3.1766  -19.7252  -44.0118 C.3       9 UNK         0.1400 
     28 CB         -3.5201  -19.6206  -42.5189 C.3       9 UNK        -0.1800 
     29 N          -2.3622  -18.5773  -44.4120 N.am      9 UNK        -0.5000 
     30 C          -1.9915  -18.2981  -45.6700 C.2       8 UNK         0.5000 
     31 O          -2.2930  -18.9846  -46.6433 O.2       8 UNK        -0.5000 
     32 CA         -1.0839  -17.0729  -45.8699 C.3       8 UNK         0.1400 
     33 CB         -1.8938  -15.7723  -45.7449 C.3       8 UNK        -0.1800 
     34 N           0.0385  -17.0684  -44.9309 N.am      8 UNK        -0.5000 
     35 C           0.9817  -18.0224  -44.8794 C.2       7 UNK         0.5000 
     36 O           1.0430  -18.9744  -45.6586 O.2       7 UNK        -0.5000 
     37 CA          1.9861  -17.9323  -43.7190 C.3       7 UNK         0.1400 
     38 CB          3.1187  -16.9465  -44.0439 C.3       7 UNK        -0.1800 
     39 N           1.3318  -17.5500  -42.4669 N.am      7 UNK        -0.5000 
     40 C           0.4798  -18.3391  -41.7941 C.2       6 UNK         0.5000 
     41 O           0.1945  -19.4855  -42.1378 O.2       6 UNK        -0.5000 
     42 CA         -0.2045  -17.7317  -40.5558 C.3       6 UNK         0.1400 
     43 CB          0.6885  -17.8842  -39.3157 C.3       6 UNK        -0.1800 
     44 N          -0.5461  -16.3208  -40.7362 N.am      6 UNK        -0.5000 
     45 C          -1.4230  -15.8549  -41.6378 C.2       5 UNK         0.5000 
     46 O          -2.0940  -16.5800  -42.3700 O.2       5 UNK        -0.5000 
     47 CA         -1.5316  -14.3241  -41.7774 C.3       5 UNK         0.1400 
     48 CB         -2.6870  -13.7850  -40.9215 C.3       5 UNK        -0.1800 
     49 N          -0.2908  -13.6378  -41.4068 N.am      5 UNK        -0.5000 
     50 C           0.8520  -13.7239  -42.0996 C.2       4 UNK         0.5000 
     51 O           0.9647  -14.3426  -43.1597 O.2       4 UNK        -0.5000 
     52 CA          2.0865  -13.0961  -41.4448 C.3       4 UNK         0.1400 
     53 CB          2.9781  -14.1848  -40.8207 C.3       4 UNK        -0.1800 
     54 N           2.8463  -12.3357  -42.4289 N.am      4 UNK        -0.5000 
     55 C           3.6172  -11.2811  -42.1323 C.2       3 UNK         0.5000 
     56 O           3.7812  -10.8547  -40.9880 O.2       3 UNK        -0.5000 
     57 CA          4.3088  -10.5637  -43.3022 C.3       3 UNK         0.1400 
     58 CB          5.6300  -11.2582  -43.6700 C.3       3 UNK        -0.1800 
     59 N           3.4436  -10.4910  -44.4781 N.am      3 UNK        -0.5000 
     60 C           2.5083   -9.5499  -44.6709 C.2       2 UNK         0.5000 
     61 O           2.2952   -8.6300  -43.8800 O.2       2 UNK        -0.5000 
     62 CA          1.6795   -9.6284  -45.9678 C.3       2 UNK         0.1400 
     63 CB          2.2218   -8.6373  -47.0094 C.3       2 UNK        -0.1800 
     64 N           1.6717  -10.9679  -46.5541 N.am      2 UNK        -0.5000 
     65 C           0.8786  -11.9704  -46.1520 C.2       1 UNK         0.5000 
     66 O           0.0153  -11.8531  -45.2824 O.2       1 UNK        -0.5000 
     67 C          -1.5362  -22.0023  -48.6474 C.2       11 UNK         0.5000 
     68 O          -1.6375  -22.8297  -49.5509 O.2       11 UNK        -0.5000 
     69 N          -2.5854  -21.3712  -48.1052 N.am      12 UNK        -0.5000 
     70 CA         -3.9553  -21.4979  -48.5872 C.3       12 UNK         0.1400 
     71 CB         -4.7963  -20.3309  -48.0499 C.3       12 UNK        -0.1800 
     72 C          -4.6279  -22.8350  -48.2432 C.2       12 UNK         0.5000 
     73 O          -5.3351  -23.3698  -49.0987 O.2       12 UNK        -0.5000 
     74 N          -4.4593  -23.3083  -47.0021 N.am      13 UNK        -0.5000 
     75 CA         -5.2205  -24.4321  -46.4576 C.3       13 UNK         0.1400 
     76 CB         -5.8343  -24.0212  -45.1089 C.3       13 UNK        -0.1800 
     77 C          -4.3796  -25.7052  -46.2935 C.2       13 UNK         0.5000 
     78 O          -4.8678  -26.7844  -46.6328 O.2       13 UNK        -0.5000 
     79 N          -3.1626  -25.5839  -45.7425 N.am      14 UNK        -0.5000 
     80 CA         -2.3196  -26.7397  -45.4218 C.3       14 UNK         0.1400 
     81 CB         -1.3299  -26.3926  -44.2973 C.3       14 UNK        -0.1800 
     82 C          -1.6024  -27.2919  -46.6647 C.2       14 UNK         0.5000 
     83 O          -1.6393  -28.5008  -46.9003 O.2       14 UNK        -0.5000 
     84 N          -0.9798  -26.4011  -47.4450 N.am      15 UNK        -0.5000 
     85 CA         -0.3617  -26.7254  -48.7280 C.3       15 UNK         0.1400 
     86 CB          0.6841  -25.6536  -49.0700 C.3       15 UNK        -0.1800 
     87 C          -1.4199  -26.8281  -49.8418 C.2       15 UNK         0.5000 
     88 O          -2.4045  -26.0868  -49.8313 O.2       15 UNK        -0.5000 
     89 N          -1.1835  -27.7341  -50.7982 N.am      16 UNK        -0.5000 
     90 CA         -2.0181  -27.9003  -51.9911 C.3       16 UNK         0.1400 
     91 CB         -1.9252  -29.3582  -52.4671 C.3       16 UNK        -0.1800 
     92 C          -1.6114  -26.9407  -53.1259 C.2       16 UNK         0.5000 
     93 O          -2.4475  -26.6042  -53.9658 O.2       16 UNK        -0.5000 
     94 N          -0.3349  -26.5310  -53.1427 N.am      17 UNK        -0.5000 
     95 CA          0.2500  -25.6284  -54.1310 C.3       17 UNK         0.1400 
     96 CB          1.7793  -25.6309  -53.9707 C.3       17 UNK        -0.1800 
     97 C          -0.3268  -24.2089  -53.9936 C.2       17 UNK         0.5000 
     98 O          -0.0412  -23.5340  -53.0036 O.2       17 UNK        -0.5000 
     99 N          -1.1354  -23.8041  -54.9838 N.am      18 UNK        -0.5000 
    100 CA        -1.8550  -22.5277  -55.0662 C.3       18 UNK         0.1400 
    101 CB        -0.8721  -21.3590  -55.2747 C.3       18 UNK        -0.1800 
    102 C         -2.8315  -22.3110  -53.8894 C.2       18 UNK         0.5000 
    103 O         -2.9186  -21.2077  -53.3436 O.2       18 UNK        -0.5000 
    104 N         -3.5535  -23.3838  -53.5322 N.am      19 UNK        -0.5000 
    105 CA        -4.5499  -23.4358  -52.4609 C.3       19 UNK         0.1400 
    106 CB        -5.1668  -24.8420  -52.4238 C.3       19 UNK        -0.1800 
    107 C         -5.6538  -22.3646  -52.5821 C.2       19 UNK         0.5000 
    108 O         -5.9179  -21.8542  -53.6747 O.2       19 UNK        -0.5000 
    109 N         -6.2604  -22.0328  -51.4349 N.am      20 UNK        -0.5000 
    110 CA        -7.2397  -20.9563  -51.2319 C.3       20 UNK         0.1400 
    111 CB        -8.5409  -21.2350  -52.0133 C.3       20 UNK        -0.1800 
    112 C         -6.6657  -19.5454  -51.5040 C.2       20 UNK         0.5000 
    113 O         -7.4284  -18.6225  -51.7910 O.2       20 UNK        -0.5000 
    114 N         -5.3339  -19.4156  -51.3894 N.am      21 UNK        -0.5000 
    115 CA        -4.5134  -18.2330  -51.6593 C.3       21 UNK         0.1400 
    116 CB        -4.8283  -17.0870  -50.6745 C.3       21 UNK        -0.1800 
    117 C         -4.6013  -17.8127  -53.1377 C.2       21 UNK         0.5000 
    118 O         -5.1334  -16.7447  -53.4480 O.2       21 UNK        -0.5000 
    119 N         -4.1029  -18.6910  -54.0191 N.am      22 UNK        -0.5000 
    120 CA        -4.1955  -18.5826  -55.4839 C.3       22 UNK         0.1400 
    121 C         -5.6632  -18.7080  -55.9977 C.2       22 UNK         0.5000 
    122 N         -6.4553  -19.6325  -55.4666 N.am      22 UNK        -0.7600 
    123 O         -6.0960  -17.9821  -56.8895 O.2       22 UNK        -0.5000 
    124 C124       -3.4266  -17.3564  -56.0673 C.3       23 UNK        -0.0398 
    125 S125       -1.6118  -17.5553  -56.0271 S.3       23 UNK        -0.2404 
    126 C126       -1.0606  -16.2893  -54.8269 C.3       23 UNK        -0.0205 
    127 H127        5.2762  -14.8932  -46.4878 H         1 UNK         0.0600 
    128 H128        5.6034  -13.1778  -46.7558 H         1 UNK         0.0600 
    129 H129        4.8482  -14.1430  -48.0289 H         1 UNK         0.0600 
    130 H130        2.6482  -13.7872  -48.1949 H         1 UNK         0.3000 
    131 H131        0.8462  -14.1032  -46.1050 H         1 UNK         0.0600 
    132 H132       -0.9031  -13.3945  -47.7119 H         1 UNK         0.0800 
    133 H133        0.2893  -12.6607  -48.7576 H         1 UNK         0.0800 
    134 H134       -1.4167  -14.1288  -50.3269 H         1 UNK         0.0800 
    135 H135       -2.0420  -15.3534  -49.2412 H         1 UNK         0.0800 
    136 H136       -1.2789  -14.7423  -52.6160 H         1 UNK         0.1150 
    137 H137       -0.7080  -18.8308  -53.7758 H         1 UNK         0.1150 
    138 H138       -0.9694  -17.7839  -49.6336 H         1 UNK         0.1150 
    139 H139       -1.5535  -20.2489  -50.7464 H         1 UNK         0.0800 
    140 H140       -0.6918  -20.5538  -52.2193 H         1 UNK         0.0800 
    141 H141       -0.3977  -19.4913  -48.5343 H         1 UNK         0.0800 
    142 H142        1.2290  -19.9337  -48.1374 H         1 UNK         0.0800 
    143 H143        0.5629  -22.3931  -48.4197 H         1 UNK         0.0600 
    144 H144        0.0489  -20.6852  -46.2121 H         1 UNK         0.3000 
    145 H145       -0.8892  -23.2487  -43.8859 H         1 UNK         0.0600 
    146 H146        0.9514  -22.1504  -42.6620 H         1 UNK         0.0600 
    147 H147        1.6122  -23.1134  -43.9745 H         1 UNK         0.0600 
    148 H148        1.5139  -21.3629  -44.1347 H         1 UNK         0.0600 
    149 H149       -0.7364  -20.4478  -43.5460 H         1 UNK         0.3000 
    150 H150       -4.1095  -19.6780  -44.5769 H         1 UNK         0.0600 
    151 H151       -4.1513  -20.4525  -42.2038 H         1 UNK         0.0600 
    152 H152       -4.0628  -18.7000  -42.3032 H         1 UNK         0.0600 
    153 H153       -2.6243  -19.6334  -41.8979 H         1 UNK         0.0600 
    154 H154       -2.1017  -17.9288  -43.6731 H         1 UNK         0.3000 
    155 H155       -0.6683  -17.1210  -46.8784 H         1 UNK         0.0600 
    156 H156       -2.4435  -15.7187  -44.8059 H         1 UNK         0.0600 
    157 H157       -2.6240  -15.6964  -46.5513 H         1 UNK         0.0600 
    158 H158       -1.2571  -14.8926  -45.7995 H         1 UNK         0.0600 
    159 H159        0.0694  -16.3210  -44.2505 H         1 UNK         0.3000 
    160 H160        2.4289  -18.9213  -43.5829 H         1 UNK         0.0600 
    161 H161        2.7449  -15.9359  -44.2062 H         1 UNK         0.0600 
    162 H162        3.6461  -17.2458  -44.9504 H         1 UNK         0.0600 
    163 H163        3.8524  -16.9071  -43.2389 H         1 UNK         0.0600 
    164 H164        1.4757  -16.6024  -42.1513 H         1 UNK         0.3000 
    165 H165       -1.1305  -18.2834  -40.3814 H         1 UNK         0.0600 
    166 H166        0.1837  -17.5236  -38.4193 H         1 UNK         0.0600 
    167 H167        0.9425  -18.9313  -39.1451 H         1 UNK         0.0600 
    168 H168        1.6237  -17.3325  -39.4203 H         1 UNK         0.0600 
    169 H169       -0.0511  -15.6557  -40.1618 H         1 UNK         0.3000 
    170 H170       -1.7460  -14.1011  -42.8249 H         1 UNK         0.0600 
    171 H171       -3.6290  -14.2634  -41.1931 H         1 UNK         0.0600 
    172 H172       -2.5212  -13.9660  -39.8588 H         1 UNK         0.0600 
    173 H173       -2.8161  -12.7120  -41.0644 H         1 UNK         0.0600 
    174 H174       -0.3074  -13.1137  -40.5435 H         1 UNK         0.3000 
    175 H175        1.7472  -12.4227  -40.6546 H         1 UNK         0.0600 
    176 H176        3.3706  -14.8635  -41.5791 H         1 UNK         0.0600 
    177 H177        3.8268  -13.7472  -40.2950 H         1 UNK         0.0600 
    178 H178        2.4230  -14.7824  -40.0969 H         1 UNK         0.0600 
    179 H179        2.7754  -12.6604  -43.3902 H         1 UNK         0.3000 
    180 H180        4.5506   -9.5494  -42.9769 H         1 UNK         0.0600 
    181 H181        5.4791  -12.2970  -43.9633 H         1 UNK         0.0600 
    182 H182        6.3160  -11.2572  -42.8222 H         1 UNK         0.0600 
    183 H183        6.1295  -10.7462  -44.4926 H         1 UNK         0.0600 
    184 H184        3.5019  -11.2664  -45.1249 H         1 UNK         0.3000 
    185 H185        0.6549   -9.3388  -45.7245 H         1 UNK         0.0600 
    186 H186        2.2166   -7.6186  -46.6194 H         1 UNK         0.0600 
    187 H187        3.2474   -8.8739  -47.2956 H         1 UNK         0.0600 
    188 H188        1.6111   -8.6408  -47.9125 H         1 UNK         0.0600 
    189 H189        2.3509  -11.1529  -47.2781 H         1 UNK         0.3000 
    190 H190       -2.4228  -20.6588  -47.3965 H         1 UNK         0.3000 
    191 H191       -3.9284  -21.4151  -49.6750 H         1 UNK         0.0600 
    192 H192       -4.8233  -20.3250  -46.9597 H         1 UNK         0.0600 
    193 H193       -5.8263  -20.3875  -48.4025 H         1 UNK         0.0600 
    194 H194       -4.3926  -19.3736  -48.3773 H         1 UNK         0.0600 
    195 H195       -3.8802  -22.7898  -46.3446 H         1 UNK         0.3000 
    196 H196       -6.0520  -24.6811  -47.1206 H         1 UNK         0.0600 
    197 H197       -6.4544  -24.8215  -44.7033 H         1 UNK         0.0600 
    198 H198       -6.4689  -23.1414  -45.2171 H         1 UNK         0.0600 
    199 H199       -5.0699  -23.7925  -44.3658 H         1 UNK         0.0600 
    200 H200       -2.7985  -24.6665  -45.5277 H         1 UNK         0.3000 
    201 H201       -2.9630  -27.5342  -45.0367 H         1 UNK         0.0600 
    202 H202       -1.8451  -25.9801  -43.4297 H         1 UNK         0.0600 
    203 H203       -0.5752  -25.6752  -44.6131 H         1 UNK         0.0600 
    204 H204       -0.8005  -27.2863  -43.9650 H         1 UNK         0.0600 
    205 H205       -0.9857  -25.4214  -47.1737 H         1 UNK         0.3000 
    206 H206        0.1528  -27.6845  -48.6372 H         1 UNK         0.0600 
    207 H207        0.2244  -24.6749  -49.2006 H         1 UNK         0.0600 
    208 H208        1.4350  -25.5679  -48.2844 H         1 UNK         0.0600 
    209 H209        1.2056  -25.8949  -49.9969 H         1 UNK         0.0600 
    210 H210       -0.3704  -28.3292  -50.7271 H         1 UNK         0.3000 
    211 H211       -3.0609  -27.6959  -51.7390 H         1 UNK         0.0600 
    212 H212       -0.9048  -29.6308  -52.7395 H         1 UNK         0.0600 
    213 H213       -2.5540  -29.5232  -53.3431 H         1 UNK         0.0600 
    214 H214       -2.2621  -30.0476  -51.6926 H         1 UNK         0.0600 
    215 H215        0.2714  -26.8267  -52.3938 H         1 UNK         0.3000 
    216 H216        0.0173  -26.0140  -55.1260 H         1 UNK         0.0600 
    217 H217        2.2474  -24.9631  -54.6950 H         1 UNK         0.0600 
    218 H218        2.1916  -26.6269  -54.1336 H         1 UNK         0.0600 
    219 H219        2.0829  -25.3007  -52.9762 H         1 UNK         0.0600 
    220 H220       -1.3256  -24.4551  -55.7332 H         1 UNK         0.3000 
    221 H221       -2.4792  -22.5855  -55.9590 H         1 UNK         0.0600 
    222 H222       -0.2080  -21.2249  -54.4215 H         1 UNK         0.0600 
    223 H223       -0.2527  -21.5185  -56.1571 H         1 UNK         0.0600 
    224 H224       -1.4102  -20.4245  -55.4247 H         1 UNK         0.0600 
    225 H225       -3.3932  -24.2493  -54.0283 H         1 UNK         0.3000 
    226 H226       -4.0135  -23.2676  -51.5249 H         1 UNK         0.0600 
    227 H227       -5.6574  -25.0915  -53.3654 H         1 UNK         0.0600 
    228 H228       -4.4073  -25.5979  -52.2266 H         1 UNK         0.0600 
    229 H229       -5.9113  -24.9251  -51.6308 H         1 UNK         0.0600 
    230 H230       -6.0021  -22.5507  -50.5959 H         1 UNK         0.3000 
    231 H231       -7.4898  -20.9776  -50.1705 H         1 UNK         0.0600 
    232 H232       -8.9137  -22.2396  -51.8137 H         1 UNK         0.0600 
    233 H233       -8.3988  -21.1367  -53.0898 H         1 UNK         0.0600 
    234 H234       -9.3267  -20.5359  -51.7252 H         1 UNK         0.0600 
    235 H235       -4.8141  -20.2603  -51.2093 H         1 UNK         0.3000 
    236 H236       -3.4854  -18.5393  -51.4809 H         1 UNK         0.0600 
    237 H237       -5.8527  -16.7284  -50.7747 H         1 UNK         0.0600 
    238 H238       -4.6813  -17.3991  -49.6415 H         1 UNK         0.0600 
    239 H239       -4.1689  -16.2367  -50.8511 H         1 UNK         0.0600 
    240 H240       -3.6950  -19.5580  -53.6755 H         1 UNK         0.3000 
    241 H241       -3.7076  -19.4758  -55.8752 H         1 UNK         0.0600 
    242 H242       -6.1230  -20.2875  -54.7633 H         1 UNK         0.3800 
    243 H243       -7.4017  -19.7123  -55.8010 H         1 UNK         0.3800 
    244 H244       -3.6759  -17.2181  -57.1203 H         1 UNK         0.0800 
    245 H245       -3.7205  -16.4288  -55.5770 H         1 UNK         0.0800 
    246 H246       -0.0480  -15.9890  -55.0983 H         1 UNK         0.0800 
    247 H247       -1.6805  -15.3982  -54.9363 H         1 UNK         0.0800 
@<TRIPOS>BOND
     1    1    2 1    
     2    1  127 1    
     3    1  128 1    
     4    1  129 1    
     5    2    3 2    
     6    2    4 am   BACKBONE|DICT|INTERRES
     7    4    5 1    
     8    4  130 1    
     9    5    6 1    
    10    5   65 1    
    11    5  131 1    
    12    6    7 1    
    13    6  132 1    
    14    6  133 1    
    15    7    8 1    
    16    8    9 1    
    17    8  134 1    
    18    8  135 1    
    19    9   10 ar   
    20    9   14 ar   
    21   10   11 ar   
    22   10  136 1    
    23   11   12 ar   
    24   11  126 1    
    25   12   13 ar   
    26   12  137 1    
    27   13   14 ar   
    28   13   15 1    
    29   14  138 1    
    30   15   16 1    
    31   15  139 1    
    32   15  140 1    
    33   16   17 1    
    34   17   18 1    
    35   17  141 1    
    36   17  142 1    
    37   18   19 1    
    38   18   67 1    
    39   18  143 1    
    40   19   20 am   BACKBONE|DICT|INTERRES
    41   19  144 1    
    42   20   21 2    
    43   20   22 1    
    44   22   23 1    
    45   22   24 1    
    46   22  145 1    
    47   23  146 1    
    48   23  147 1    
    49   23  148 1    
    50   24   25 am   BACKBONE|DICT|INTERRES
    51   24  149 1    
    52   25   26 2    
    53   25   27 1    
    54   27   28 1    
    55   27   29 1    
    56   27  150 1    
    57   28  151 1    
    58   28  152 1    
    59   28  153 1    
    60   29   30 am   BACKBONE|DICT|INTERRES
    61   29  154 1    
    62   30   31 2    
    63   30   32 1    
    64   32   33 1    
    65   32   34 1    
    66   32  155 1    
    67   33  156 1    
    68   33  157 1    
    69   33  158 1    
    70   34   35 am   BACKBONE|DICT|INTERRES
    71   34  159 1    
    72   35   36 2    
    73   35   37 1    
    74   37   38 1    
    75   37   39 1    
    76   37  160 1    
    77   38  161 1    
    78   38  162 1    
    79   38  163 1    
    80   39   40 am   BACKBONE|DICT|INTERRES
    81   39  164 1    
    82   40   41 2    
    83   40   42 1    
    84   42   43 1    
    85   42   44 1    
    86   42  165 1    
    87   43  166 1    
    88   43  167 1    
    89   43  168 1    
    90   44   45 am   BACKBONE|DICT|INTERRES
    91   44  169 1    
    92   45   46 2    
    93   45   47 1    
    94   47   48 1    
    95   47   49 1    
    96   47  170 1    
    97   48  171 1    
    98   48  172 1    
    99   48  173 1    
   100   49   50 am   BACKBONE|DICT|INTERRES
   101   49  174 1    
   102   50   51 2    
   103   50   52 1    
   104   52   53 1    
   105   52   54 1    
   106   52  175 1    
   107   53  176 1    
   108   53  177 1    
   109   53  178 1    
   110   54   55 am   BACKBONE|DICT|INTERRES
   111   54  179 1    
   112   55   56 2    
   113   55   57 1    
   114   57   58 1    
   115   57   59 1    
   116   57  180 1    
   117   58  181 1    
   118   58  182 1    
   119   58  183 1    
   120   59   60 am   BACKBONE|DICT|INTERRES
   121   59  184 1    
   122   60   61 2    
   123   60   62 1    
   124   62   63 1    
   125   62   64 1    
   126   62  185 1    
   127   63  186 1    
   128   63  187 1    
   129   63  188 1    
   130   64   65 am   BACKBONE|DICT|INTERRES
   131   64  189 1    
   132   65   66 2    
   133   67   68 2    
   134   67   69 am   BACKBONE|DICT|INTERRES
   135   69   70 1    
   136   69  190 1    
   137   70   71 1    
   138   70   72 1    
   139   70  191 1    
   140   71  192 1    
   141   71  193 1    
   142   71  194 1    
   143   72   73 2    
   144   72   74 am   BACKBONE|DICT|INTERRES
   145   74   75 1    
   146   74  195 1    
   147   75   76 1    
   148   75   77 1    
   149   75  196 1    
   150   76  197 1    
   151   76  198 1    
   152   76  199 1    
   153   77   78 2    
   154   77   79 am   BACKBONE|DICT|INTERRES
   155   79   80 1    
   156   79  200 1    
   157   80   81 1    
   158   80   82 1    
   159   80  201 1    
   160   81  202 1    
   161   81  203 1    
   162   81  204 1    
   163   82   83 2    
   164   82   84 am   BACKBONE|DICT|INTERRES
   165   84   85 1    
   166   84  205 1    
   167   85   86 1    
   168   85   87 1    
   169   85  206 1    
   170   86  207 1    
   171   86  208 1    
   172   86  209 1    
   173   87   88 2    
   174   87   89 am   BACKBONE|DICT|INTERRES
   175   89   90 1    
   176   89  210 1    
   177   90   91 1    
   178   90   92 1    
   179   90  211 1    
   180   91  212 1    
   181   91  213 1    
   182   91  214 1    
   183   92   93 2    
   184   92   94 am   BACKBONE|DICT|INTERRES
   185   94   95 1    
   186   94  215 1    
   187   95   96 1    
   188   95   97 1    
   189   95  216 1    
   190   96  217 1    
   191   96  218 1    
   192   96  219 1    
   193   97   98 2    
   194   97   99 am   BACKBONE|DICT|INTERRES
   195   99  100 1    
   196   99  220 1    
   197  100  101 1    
   198  100  102 1    
   199  100  221 1    
   200  101  222 1    
   201  101  223 1    
   202  101  224 1    
   203  102  103 2    
   204  102  104 am   BACKBONE|DICT|INTERRES
   205  104  105 1    
   206  104  225 1    
   207  105  106 1    
   208  105  107 1    
   209  105  226 1    
   210  106  227 1    
   211  106  228 1    
   212  106  229 1    
   213  107  108 2    
   214  107  109 am   BACKBONE|DICT|INTERRES
   215  109  110 1    
   216  109  230 1    
   217  110  111 1    
   218  110  112 1    
   219  110  231 1    
   220  111  232 1    
   221  111  233 1    
   222  111  234 1    
   223  112  113 2    
   224  112  114 am   BACKBONE|DICT|INTERRES
   225  114  115 1    
   226  114  235 1    
   227  115  116 1    
   228  115  117 1    
   229  115  236 1    
   230  116  237 1    
   231  116  238 1    
   232  116  239 1    
   233  117  118 2    
   234  117  119 am   BACKBONE|DICT|INTERRES
   235  119  120 1    
   236  119  240 1    
   237  120  121 1    
   238  120  124 1    
   239  120  241 1    
   240  121  122 am   BACKBONE|DICT|INTERRES
   241  121  123 2    
   242  122  242 1    
   243  122  243 1    
   244  124  125 1    
   245  124  244 1    
   246  124  245 1    
   247  125  126 1    
   248  126  246 1    
   249  126  247 1    
@<TRIPOS>SUBSTRUCTURE
     1 UNK         1 GROUP             0       ****    0 ROOT    
