@<TRIPOS>MOLECULE
3R540
247   249    1
SMALL
USER_CHARGES


@<TRIPOS>ATOM
      1 CA         -3.6225  -11.1891  -46.4153 C.3       0 UNK        -0.1800 
      2 C          -2.7166  -12.3563  -46.0546 C.2       0 UNK         0.5000 
      3 O          -2.0148  -12.2904  -45.0453 O.2       0 UNK        -0.5000 
      4 N          -2.7222  -13.4148  -46.8744 N.am      1 UNK        -0.5000 
      5 CA         -1.9420  -14.6488  -46.7183 C.3       1 UNK         0.1400 
      6 C6         -2.2264  -15.6098  -47.8984 C.3       23 UNK        -0.0398 
      7 S7         -1.1635  -17.0941  -47.9516 S.3       23 UNK        -0.2404 
      8 C8          0.1599  -16.5891  -49.0972 C.3       23 UNK        -0.0205 
      9 C9          0.6532  -17.7838  -49.8976 C.ar      23 UNK        -0.0193 
     10 C10         0.1561  -18.0223  -51.1815 C.ar      23 UNK        -0.1150 
     11 C11         0.5625  -19.1462  -51.9051 C.ar      23 UNK        -0.0193 
     12 C12         1.4827  -20.0331  -51.3370 C.ar      23 UNK        -0.1150 
     13 C13         1.9925  -19.8024  -50.0555 C.ar      23 UNK        -0.0193 
     14 C14         1.5818  -18.6696  -49.3458 C.ar      23 UNK        -0.1150 
     15 C15         2.9683  -20.7880  -49.4263 C.3       23 UNK        -0.0205 
     16 S16         2.1577  -22.3348  -48.8981 S.3       23 UNK        -0.2404 
     17 C17         0.9293  -21.7227  -47.6997 C.3       23 UNK        -0.0398 
     18 CA         -0.0184  -22.8413  -47.2073 C.3       11 UNK         0.1400 
     19 N           0.6576  -23.8328  -46.3642 N.am      11 UNK        -0.5000 
     20 C           0.1167  -24.9949  -45.9700 C.2       10 UNK         0.5000 
     21 O          -1.0114  -25.3674  -46.2874 O.2       10 UNK        -0.5000 
     22 CA          0.9599  -25.8662  -45.0222 C.3       10 UNK         0.1400 
     23 CB          2.0169  -26.6568  -45.8075 C.3       10 UNK        -0.1800 
     24 N           1.6161  -25.0795  -43.9785 N.am      10 UNK        -0.5000 
     25 C           0.9715  -24.4063  -43.0144 C.2       9 UNK         0.5000 
     26 O          -0.2499  -24.4214  -42.8666 O.2       9 UNK        -0.5000 
     27 CA          1.8375  -23.5155  -42.1032 C.3       9 UNK         0.1400 
     28 CB          2.3985  -24.3269  -40.9262 C.3       9 UNK        -0.1800 
     29 N           2.9400  -22.8629  -42.8183 N.am      9 UNK        -0.5000 
     30 C           2.7753  -22.0159  -43.8423 C.2       8 UNK         0.5000 
     31 O           1.6712  -21.7024  -44.2960 O.2       8 UNK        -0.5000 
     32 CA          4.0540  -21.4855  -44.5145 C.3       8 UNK         0.1400 
     33 CB          4.5771  -22.5058  -45.5381 C.3       8 UNK        -0.1800 
     34 N           3.7851  -20.2260  -45.2050 N.am      8 UNK        -0.5000 
     35 C           3.6059  -19.0562  -44.5840 C.2       7 UNK         0.5000 
     36 O           3.8190  -18.8708  -43.3819 O.2       7 UNK        -0.5000 
     37 CA          3.0636  -17.9116  -45.4462 C.3       7 UNK         0.1400 
     38 CB          1.5284  -17.9827  -45.5286 C.3       7 UNK        -0.1800 
     39 N           3.4603  -16.6499  -44.8385 N.am      7 UNK        -0.5000 
     40 C           3.5469  -15.4778  -45.4700 C.2       6 UNK         0.5000 
     41 O           3.3217  -15.3219  -46.6729 O.2       6 UNK        -0.5000 
     42 CA          3.9855  -14.2820  -44.6048 C.3       6 UNK         0.1400 
     43 CB          5.5054  -14.0773  -44.6985 C.3       6 UNK        -0.1800 
     44 N           3.3136  -13.0391  -44.9824 N.am      6 UNK        -0.5000 
     45 C           1.9954  -12.8263  -44.8975 C.2       5 UNK         0.5000 
     46 O           1.1822  -13.6650  -44.4971 O.2       5 UNK        -0.5000 
     47 CA          1.5018  -11.4430  -45.3473 C.3       5 UNK         0.1400 
     48 CB          0.9820  -11.4962  -46.7920 C.3       5 UNK        -0.1800 
     49 N           0.4289  -10.9954  -44.4644 N.am      5 UNK        -0.5000 
     50 C           0.6234  -10.3737  -43.2936 C.2       4 UNK         0.5000 
     51 O           1.7304  -10.0174  -42.8872 O.2       4 UNK        -0.5000 
     52 CA         -0.6135  -10.1225  -42.4181 C.3       4 UNK         0.1400 
     53 CB         -1.3542   -8.8484  -42.8584 C.3       4 UNK        -0.1800 
     54 N          -1.5249  -11.2638  -42.4507 N.am      4 UNK        -0.5000 
     55 C          -2.3052  -11.6616  -41.4395 C.2       3 UNK         0.5000 
     56 O          -2.3453  -11.1040  -40.3419 O.2       3 UNK        -0.5000 
     57 CA         -3.1867  -12.8954  -41.6943 C.3       3 UNK         0.1400 
     58 CB         -4.5028  -12.4831  -42.3716 C.3       3 UNK        -0.1800 
     59 N          -2.5015  -13.8740  -42.5385 N.am      3 UNK        -0.5000 
     60 C          -1.8479  -14.9529  -42.0894 C.2       2 UNK         0.5000 
     61 O          -1.7761  -15.2489  -40.8956 O.2       2 UNK        -0.5000 
     62 CA         -1.1313  -15.8503  -43.1223 C.3       2 UNK         0.1400 
     63 CB         -1.6166  -17.3131  -43.0432 C.3       2 UNK        -0.1800 
     64 N          -1.1693  -15.3428  -44.4991 N.am      2 UNK        -0.5000 
     65 C          -2.2070  -15.3106  -45.3479 C.2       1 UNK         0.5000 
     66 O          -3.3375  -15.7243  -45.0845 O.2       1 UNK        -0.5000 
     67 C          -1.2377  -22.2284  -46.4961 C.2       11 UNK         0.5000 
     68 O          -2.2899  -22.0802  -47.1203 O.2       11 UNK        -0.5000 
     69 N          -1.0775  -21.9134  -45.2037 N.am      12 UNK        -0.5000 
     70 CA         -2.1327  -21.4011  -44.3332 C.3       12 UNK         0.1400 
     71 CB         -1.5210  -20.9813  -42.9879 C.3       12 UNK        -0.1800 
     72 C          -3.2706  -22.4189  -44.1303 C.2       12 UNK         0.5000 
     73 O          -4.4395  -22.0442  -44.2228 O.2       12 UNK        -0.5000 
     74 N          -2.9099  -23.6882  -43.8903 N.am      13 UNK        -0.5000 
     75 CA         -3.8450  -24.8012  -43.7184 C.3       13 UNK         0.1400 
     76 CB         -3.0893  -26.0299  -43.1898 C.3       13 UNK        -0.1800 
     77 C          -4.6117  -25.1503  -45.0069 C.2       13 UNK         0.5000 
     78 O          -5.8176  -25.3935  -44.9472 O.2       13 UNK        -0.5000 
     79 N          -3.9065  -25.1611  -46.1464 N.am      14 UNK        -0.5000 
     80 CA         -4.4727  -25.4484  -47.4662 C.3       14 UNK         0.1400 
     81 CB         -3.3306  -25.7887  -48.4371 C.3       14 UNK        -0.1800 
     82 C          -5.3168  -24.2962  -48.0420 C.2       14 UNK         0.5000 
     83 O          -6.1161  -24.5414  -48.9461 O.2       14 UNK        -0.5000 
     84 N          -5.0961  -23.0710  -47.5397 N.am      15 UNK        -0.5000 
     85 CA         -5.5843  -21.7938  -48.0696 C.3       15 UNK         0.1400 
     86 CB         -7.1198  -21.6855  -47.9691 C.3       15 UNK        -0.1800 
     87 C          -5.0442  -21.5617  -49.4942 C.2       15 UNK         0.5000 
     88 O          -5.8098  -21.3234  -50.4305 O.2       15 UNK        -0.5000 
     89 N          -3.7155  -21.6788  -49.6288 N.am      16 UNK        -0.5000 
     90 CA         -2.9818  -21.7041  -50.8962 C.3       16 UNK         0.1400 
     91 CB         -1.4868  -21.8823  -50.6098 C.3       16 UNK        -0.1800 
     92 C          -3.2122  -20.4851  -51.8051 C.2       16 UNK         0.5000 
     93 O          -3.2007  -20.6422  -53.0257 O.2       16 UNK        -0.5000 
     94 N          -3.4414  -19.3090  -51.2056 N.am      17 UNK        -0.5000 
     95 CA         -3.7695  -18.0682  -51.9096 C.3       17 UNK         0.1400 
     96 CB         -3.6358  -16.8853  -50.9416 C.3       17 UNK        -0.1800 
     97 C          -5.1717  -18.0820  -52.5447 C.2       17 UNK         0.5000 
     98 O          -5.3512  -17.5075  -53.6183 O.2       17 UNK        -0.5000 
     99 N          -6.1328  -18.7440  -51.8855 N.am      18 UNK        -0.5000 
    100 CA        -7.4995  -18.9167  -52.3807 C.3       18 UNK         0.1400 
    101 CB        -8.4422  -19.2140  -51.2040 C.3       18 UNK        -0.1800 
    102 C         -7.5720  -20.0302  -53.4384 C.2       18 UNK         0.5000 
    103 O         -8.3021  -19.8937  -54.4205 O.2       18 UNK        -0.5000 
    104 N         -6.7867  -21.0965  -53.2318 N.am      19 UNK        -0.5000 
    105 CA        -6.6195  -22.2062  -54.1713 C.3       19 UNK         0.1400 
    106 CB        -5.9362  -23.3705  -53.4373 C.3       19 UNK        -0.1800 
    107 C         -5.8121  -21.8249  -55.4297 C.2       19 UNK         0.5000 
    108 O         -5.9405  -22.4994  -56.4518 O.2       19 UNK        -0.5000 
    109 N         -4.9826  -20.7753  -55.3177 N.am      20 UNK        -0.5000 
    110 CA        -3.9926  -20.2977  -56.2904 C.3       20 UNK         0.1400 
    111 CB        -4.6746  -19.7753  -57.5712 C.3       20 UNK        -0.1800 
    112 C         -2.8961  -21.3492  -56.5665 C.2       20 UNK         0.5000 
    113 O         -2.4140  -21.4724  -57.6943 O.2       20 UNK        -0.5000 
    114 N         -2.5211  -22.0934  -55.5160 N.am      21 UNK        -0.5000 
    115 CA        -1.6272  -23.2546  -55.5652 C.3       21 UNK         0.1400 
    116 CB        -1.6546  -23.9521  -54.1967 C.3       21 UNK        -0.1800 
    117 C         -0.1794  -22.9207  -55.9747 C.2       21 UNK         0.5000 
    118 O          0.5246  -23.7892  -56.4909 O.2       21 UNK        -0.5000 
    119 N          0.2259  -21.6691  -55.7428 N.am      22 UNK        -0.5000 
    120 CA         1.5195  -21.0921  -56.1308 C.3       22 UNK         0.1400 
    121 C          1.5293  -20.4661  -57.5584 C.2       22 UNK         0.5000 
    122 N          0.4327  -20.4839  -58.3097 N.am      22 UNK        -0.7600 
    123 O          2.5609  -19.9721  -58.0055 O.2       22 UNK        -0.5000 
    124 C124        2.0508  -20.1228  -55.0387 C.3       23 UNK        -0.0398 
    125 S125        0.9190  -18.7408  -54.6449 S.3       23 UNK        -0.2404 
    126 C126       -0.0519  -19.4282  -53.2671 C.3       23 UNK        -0.0205 
    127 H127       -4.1519  -11.3603  -47.3528 H         1 UNK         0.0600 
    128 H128       -3.0328  -10.2782  -46.5186 H         1 UNK         0.0600 
    129 H129       -4.3613  -11.0300  -45.6303 H         1 UNK         0.0600 
    130 H130       -3.3451  -13.3991  -47.6688 H         1 UNK         0.3000 
    131 H131       -0.8882  -14.3672  -46.7672 H         1 UNK         0.0600 
    132 H132       -2.1275  -15.0727  -48.8420 H         1 UNK         0.0800 
    133 H133       -3.2640  -15.9472  -47.8654 H         1 UNK         0.0800 
    134 H134        0.9818  -16.1496  -48.5294 H         1 UNK         0.0800 
    135 H135       -0.1930  -15.8134  -49.7776 H         1 UNK         0.0800 
    136 H136       -0.5658  -17.3438  -51.6123 H         1 UNK         0.1150 
    137 H137        1.7832  -20.9201  -51.8756 H         1 UNK         0.1150 
    138 H138        1.9623  -18.4876  -48.3520 H         1 UNK         0.1150 
    139 H139        3.4755  -20.3376  -48.5723 H         1 UNK         0.0800 
    140 H140        3.7487  -21.0297  -50.1491 H         1 UNK         0.0800 
    141 H141        0.3549  -20.9306  -48.1808 H         1 UNK         0.0800 
    142 H142        1.4496  -21.2537  -46.8653 H         1 UNK         0.0800 
    143 H143       -0.3998  -23.3745  -48.0793 H         1 UNK         0.0600 
    144 H144        1.5719  -23.5821  -46.0221 H         1 UNK         0.3000 
    145 H145        0.2887  -26.5788  -44.5380 H         1 UNK         0.0600 
    146 H146        1.5510  -27.2635  -46.5852 H         1 UNK         0.0600 
    147 H147        2.5675  -27.3344  -45.1548 H         1 UNK         0.0600 
    148 H148        2.7379  -25.9979  -46.2930 H         1 UNK         0.0600 
    149 H149        2.6217  -25.0103  -44.0220 H         1 UNK         0.3000 
    150 H150        1.1923  -22.7317  -41.7010 H         1 UNK         0.0600 
    151 H151        2.9396  -23.6874  -40.2286 H         1 UNK         0.0600 
    152 H152        1.5952  -24.8087  -40.3669 H         1 UNK         0.0600 
    153 H153        3.0794  -25.1095  -41.2630 H         1 UNK         0.0600 
    154 H154        3.8745  -23.0827  -42.5045 H         1 UNK         0.3000 
    155 H155        4.8176  -21.3220  -43.7510 H         1 UNK         0.0600 
    156 H156        3.8412  -22.7156  -46.3148 H         1 UNK         0.0600 
    157 H157        4.8261  -23.4530  -45.0580 H         1 UNK         0.0600 
    158 H158        5.4827  -22.1447  -46.0259 H         1 UNK         0.0600 
    159 H159        3.5695  -20.2970  -46.1867 H         1 UNK         0.3000 
    160 H160        3.4968  -17.9859  -46.4459 H         1 UNK         0.0600 
    161 H161        1.0785  -17.9450  -44.5367 H         1 UNK         0.0600 
    162 H162        1.1953  -18.9056  -46.0040 H         1 UNK         0.0600 
    163 H163        1.1251  -17.1518  -46.1056 H         1 UNK         0.0600 
    164 H164        3.7084  -16.7273  -43.8597 H         1 UNK         0.3000 
    165 H165        3.7282  -14.4919  -43.5643 H         1 UNK         0.0600 
    166 H166        6.0409  -14.9781  -44.3955 H         1 UNK         0.0600 
    167 H167        5.8166  -13.8378  -45.7162 H         1 UNK         0.0600 
    168 H168        5.8369  -13.2693  -44.0460 H         1 UNK         0.0600 
    169 H169        3.9034  -12.3103  -45.3562 H         1 UNK         0.3000 
    170 H170        2.3286  -10.7306  -45.3064 H         1 UNK         0.0600 
    171 H171        0.1754  -12.2192  -46.9061 H         1 UNK         0.0600 
    172 H172        1.7771  -11.7839  -47.4809 H         1 UNK         0.0600 
    173 H173        0.6080  -10.5239  -47.1129 H         1 UNK         0.0600 
    174 H174       -0.5005  -11.3220  -44.7107 H         1 UNK         0.3000 
    175 H175       -0.2541   -9.9794  -41.3967 H         1 UNK         0.0600 
    176 H176       -0.6845   -7.9876  -42.8617 H         1 UNK         0.0600 
    177 H177       -1.7657   -8.9514  -43.8633 H         1 UNK         0.0600 
    178 H178       -2.1773   -8.6173  -42.1820 H         1 UNK         0.0600 
    179 H179       -1.5723  -11.7778  -43.3254 H         1 UNK         0.3000 
    180 H180       -3.4325  -13.3390  -40.7272 H         1 UNK         0.0600 
    181 H181       -4.3298  -12.0092  -43.3378 H         1 UNK         0.0600 
    182 H182       -5.0542  -11.7741  -41.7527 H         1 UNK         0.0600 
    183 H183       -5.1491  -13.3460  -42.5332 H         1 UNK         0.0600 
    184 H184       -2.4775  -13.6790  -43.5318 H         1 UNK         0.3000 
    185 H185       -0.0758  -15.8418  -42.8461 H         1 UNK         0.0600 
    186 H186       -1.3490  -17.7594  -42.0849 H         1 UNK         0.0600 
    187 H187       -2.6997  -17.3884  -43.1419 H         1 UNK         0.0600 
    188 H188       -1.1693  -17.9254  -43.8252 H         1 UNK         0.0600 
    189 H189       -0.3118  -14.8684  -44.7733 H         1 UNK         0.3000 
    190 H190       -0.1563  -22.0223  -44.7876 H         1 UNK         0.3000 
    191 H191       -2.5540  -20.5128  -44.8086 H         1 UNK         0.0600 
    192 H192       -0.7116  -20.2647  -43.1283 H         1 UNK         0.0600 
    193 H193       -2.2694  -20.5101  -42.3498 H         1 UNK         0.0600 
    194 H194       -1.1154  -21.8346  -42.4442 H         1 UNK         0.0600 
    195 H195       -1.9240  -23.9057  -43.7787 H         1 UNK         0.3000 
    196 H196       -4.5795  -24.5077  -42.9656 H         1 UNK         0.0600 
    197 H197       -3.7645  -26.8747  -43.0483 H         1 UNK         0.0600 
    198 H198       -2.6240  -25.8210  -42.2264 H         1 UNK         0.0600 
    199 H199       -2.3046  -26.3465  -43.8779 H         1 UNK         0.0600 
    200 H200       -2.9012  -25.0139  -46.1085 H         1 UNK         0.3000 
    201 H201       -5.1208  -26.3232  -47.3821 H         1 UNK         0.0600 
    202 H202       -3.7163  -26.0393  -49.4261 H         1 UNK         0.0600 
    203 H203       -2.7565  -26.6464  -48.0863 H         1 UNK         0.0600 
    204 H204       -2.6430  -24.9499  -48.5560 H         1 UNK         0.0600 
    205 H205       -4.3840  -22.9916  -46.8251 H         1 UNK         0.3000 
    206 H206       -5.1547  -21.0136  -47.4395 H         1 UNK         0.0600 
    207 H207       -7.4610  -21.8709  -46.9507 H         1 UNK         0.0600 
    208 H208       -7.4554  -20.6862  -48.2483 H         1 UNK         0.0600 
    209 H209       -7.6259  -22.3923  -48.6271 H         1 UNK         0.0600 
    210 H210       -3.1726  -21.8606  -48.7880 H         1 UNK         0.3000 
    211 H211       -3.3235  -22.5827  -51.4454 H         1 UNK         0.0600 
    212 H212       -0.9043  -21.8961  -51.5303 H         1 UNK         0.0600 
    213 H213       -1.2969  -22.8254  -50.1004 H         1 UNK         0.0600 
    214 H214       -1.1013  -21.0715  -49.9919 H         1 UNK         0.0600 
    215 H215       -3.4192  -19.2729  -50.1972 H         1 UNK         0.3000 
    216 H216       -3.0478  -17.9280  -52.7160 H         1 UNK         0.0600 
    217 H217       -2.6163  -16.8009  -50.5713 H         1 UNK         0.0600 
    218 H218       -4.2999  -16.9885  -50.0827 H         1 UNK         0.0600 
    219 H219       -3.8784  -15.9436  -51.4355 H         1 UNK         0.0600 
    220 H220       -5.8886  -19.2627  -51.0517 H         1 UNK         0.3000 
    221 H221       -7.8272  -17.9851  -52.8473 H         1 UNK         0.0600 
    222 H222       -8.1933  -20.1531  -50.7095 H         1 UNK         0.0600 
    223 H223       -8.4034  -18.4210  -50.4571 H         1 UNK         0.0600 
    224 H224       -9.4754  -19.2895  -51.5450 H         1 UNK         0.0600 
    225 H225       -6.2759  -21.1541  -52.3559 H         1 UNK         0.3000 
    226 H226       -7.6088  -22.5353  -54.4956 H         1 UNK         0.0600 
    227 H227       -6.5035  -23.6720  -52.5563 H         1 UNK         0.0600 
    228 H228       -5.8492  -24.2440  -54.0846 H         1 UNK         0.0600 
    229 H229       -4.9311  -23.1029  -53.1123 H         1 UNK         0.0600 
    230 H230       -4.9186  -20.3432  -54.4053 H         1 UNK         0.3000 
    231 H231       -3.4891  -19.4532  -55.8177 H         1 UNK         0.0600 
    232 H232       -5.1416  -20.5789  -58.1409 H         1 UNK         0.0600 
    233 H233       -3.9513  -19.2892  -58.2268 H         1 UNK         0.0600 
    234 H234       -5.4435  -19.0398  -57.3348 H         1 UNK         0.0600 
    235 H235       -2.9170  -21.8568  -54.6122 H         1 UNK         0.3000 
    236 H236       -2.0244  -23.9464  -56.3107 H         1 UNK         0.0600 
    237 H237       -1.2835  -23.2986  -53.4076 H         1 UNK         0.0600 
    238 H238       -2.6655  -24.2610  -53.9300 H         1 UNK         0.0600 
    239 H239       -1.0321  -24.8478  -54.2010 H         1 UNK         0.0600 
    240 H240       -0.4406  -21.0207  -55.3523 H         1 UNK         0.3000 
    241 H241        2.2429  -21.9076  -56.1877 H         1 UNK         0.0600 
    242 H242        0.4645  -20.0812  -59.2329 H         1 UNK         0.3800 
    243 H243       -0.4290  -20.9031  -57.9808 H         1 UNK         0.3800 
    244 H244        2.2591  -20.6838  -54.1284 H         1 UNK         0.0800 
    245 H245        3.0117  -19.7014  -55.3380 H         1 UNK         0.0800 
    246 H246       -1.0474  -18.9889  -53.3156 H         1 UNK         0.0800 
    247 H247       -0.1967  -20.5007  -53.3893 H         1 UNK         0.0800 
@<TRIPOS>BOND
     1    1    2 1    
     2    1  127 1    
     3    1  128 1    
     4    1  129 1    
     5    2    3 2    
     6    2    4 am   BACKBONE|DICT|INTERRES
     7    4    5 1    
     8    4  130 1    
     9    5    6 1    
    10    5   65 1    
    11    5  131 1    
    12    6    7 1    
    13    6  132 1    
    14    6  133 1    
    15    7    8 1    
    16    8    9 1    
    17    8  134 1    
    18    8  135 1    
    19    9   10 ar   
    20    9   14 ar   
    21   10   11 ar   
    22   10  136 1    
    23   11   12 ar   
    24   11  126 1    
    25   12   13 ar   
    26   12  137 1    
    27   13   14 ar   
    28   13   15 1    
    29   14  138 1    
    30   15   16 1    
    31   15  139 1    
    32   15  140 1    
    33   16   17 1    
    34   17   18 1    
    35   17  141 1    
    36   17  142 1    
    37   18   19 1    
    38   18   67 1    
    39   18  143 1    
    40   19   20 am   BACKBONE|DICT|INTERRES
    41   19  144 1    
    42   20   21 2    
    43   20   22 1    
    44   22   23 1    
    45   22   24 1    
    46   22  145 1    
    47   23  146 1    
    48   23  147 1    
    49   23  148 1    
    50   24   25 am   BACKBONE|DICT|INTERRES
    51   24  149 1    
    52   25   26 2    
    53   25   27 1    
    54   27   28 1    
    55   27   29 1    
    56   27  150 1    
    57   28  151 1    
    58   28  152 1    
    59   28  153 1    
    60   29   30 am   BACKBONE|DICT|INTERRES
    61   29  154 1    
    62   30   31 2    
    63   30   32 1    
    64   32   33 1    
    65   32   34 1    
    66   32  155 1    
    67   33  156 1    
    68   33  157 1    
    69   33  158 1    
    70   34   35 am   BACKBONE|DICT|INTERRES
    71   34  159 1    
    72   35   36 2    
    73   35   37 1    
    74   37   38 1    
    75   37   39 1    
    76   37  160 1    
    77   38  161 1    
    78   38  162 1    
    79   38  163 1    
    80   39   40 am   BACKBONE|DICT|INTERRES
    81   39  164 1    
    82   40   41 2    
    83   40   42 1    
    84   42   43 1    
    85   42   44 1    
    86   42  165 1    
    87   43  166 1    
    88   43  167 1    
    89   43  168 1    
    90   44   45 am   BACKBONE|DICT|INTERRES
    91   44  169 1    
    92   45   46 2    
    93   45   47 1    
    94   47   48 1    
    95   47   49 1    
    96   47  170 1    
    97   48  171 1    
    98   48  172 1    
    99   48  173 1    
   100   49   50 am   BACKBONE|DICT|INTERRES
   101   49  174 1    
   102   50   51 2    
   103   50   52 1    
   104   52   53 1    
   105   52   54 1    
   106   52  175 1    
   107   53  176 1    
   108   53  177 1    
   109   53  178 1    
   110   54   55 am   BACKBONE|DICT|INTERRES
   111   54  179 1    
   112   55   56 2    
   113   55   57 1    
   114   57   58 1    
   115   57   59 1    
   116   57  180 1    
   117   58  181 1    
   118   58  182 1    
   119   58  183 1    
   120   59   60 am   BACKBONE|DICT|INTERRES
   121   59  184 1    
   122   60   61 2    
   123   60   62 1    
   124   62   63 1    
   125   62   64 1    
   126   62  185 1    
   127   63  186 1    
   128   63  187 1    
   129   63  188 1    
   130   64   65 am   BACKBONE|DICT|INTERRES
   131   64  189 1    
   132   65   66 2    
   133   67   68 2    
   134   67   69 am   BACKBONE|DICT|INTERRES
   135   69   70 1    
   136   69  190 1    
   137   70   71 1    
   138   70   72 1    
   139   70  191 1    
   140   71  192 1    
   141   71  193 1    
   142   71  194 1    
   143   72   73 2    
   144   72   74 am   BACKBONE|DICT|INTERRES
   145   74   75 1    
   146   74  195 1    
   147   75   76 1    
   148   75   77 1    
   149   75  196 1    
   150   76  197 1    
   151   76  198 1    
   152   76  199 1    
   153   77   78 2    
   154   77   79 am   BACKBONE|DICT|INTERRES
   155   79   80 1    
   156   79  200 1    
   157   80   81 1    
   158   80   82 1    
   159   80  201 1    
   160   81  202 1    
   161   81  203 1    
   162   81  204 1    
   163   82   83 2    
   164   82   84 am   BACKBONE|DICT|INTERRES
   165   84   85 1    
   166   84  205 1    
   167   85   86 1    
   168   85   87 1    
   169   85  206 1    
   170   86  207 1    
   171   86  208 1    
   172   86  209 1    
   173   87   88 2    
   174   87   89 am   BACKBONE|DICT|INTERRES
   175   89   90 1    
   176   89  210 1    
   177   90   91 1    
   178   90   92 1    
   179   90  211 1    
   180   91  212 1    
   181   91  213 1    
   182   91  214 1    
   183   92   93 2    
   184   92   94 am   BACKBONE|DICT|INTERRES
   185   94   95 1    
   186   94  215 1    
   187   95   96 1    
   188   95   97 1    
   189   95  216 1    
   190   96  217 1    
   191   96  218 1    
   192   96  219 1    
   193   97   98 2    
   194   97   99 am   BACKBONE|DICT|INTERRES
   195   99  100 1    
   196   99  220 1    
   197  100  101 1    
   198  100  102 1    
   199  100  221 1    
   200  101  222 1    
   201  101  223 1    
   202  101  224 1    
   203  102  103 2    
   204  102  104 am   BACKBONE|DICT|INTERRES
   205  104  105 1    
   206  104  225 1    
   207  105  106 1    
   208  105  107 1    
   209  105  226 1    
   210  106  227 1    
   211  106  228 1    
   212  106  229 1    
   213  107  108 2    
   214  107  109 am   BACKBONE|DICT|INTERRES
   215  109  110 1    
   216  109  230 1    
   217  110  111 1    
   218  110  112 1    
   219  110  231 1    
   220  111  232 1    
   221  111  233 1    
   222  111  234 1    
   223  112  113 2    
   224  112  114 am   BACKBONE|DICT|INTERRES
   225  114  115 1    
   226  114  235 1    
   227  115  116 1    
   228  115  117 1    
   229  115  236 1    
   230  116  237 1    
   231  116  238 1    
   232  116  239 1    
   233  117  118 2    
   234  117  119 am   BACKBONE|DICT|INTERRES
   235  119  120 1    
   236  119  240 1    
   237  120  121 1    
   238  120  124 1    
   239  120  241 1    
   240  121  122 am   BACKBONE|DICT|INTERRES
   241  121  123 2    
   242  122  242 1    
   243  122  243 1    
   244  124  125 1    
   245  124  244 1    
   246  124  245 1    
   247  125  126 1    
   248  126  246 1    
   249  126  247 1    
@<TRIPOS>SUBSTRUCTURE
     1 UNK         1 GROUP             0       ****    0 ROOT    
