@<TRIPOS>MOLECULE
3R540
247   249    1
SMALL
USER_CHARGES


@<TRIPOS>ATOM
      1 CA         -5.5714  -12.7723  -41.1928 C.3       0 UNK        -0.1800 
      2 C          -4.4416  -12.6417  -42.2038 C.2       0 UNK         0.5000 
      3 O          -3.3203  -12.2939  -41.8313 O.2       0 UNK        -0.5000 
      4 N          -4.7226  -12.9365  -43.4809 N.am      1 UNK        -0.5000 
      5 CA         -3.7663  -12.8493  -44.5937 C.3       1 UNK         0.1400 
      6 C6         -4.4791  -12.7837  -45.9687 C.3       23 UNK        -0.0398 
      7 S7         -5.3274  -14.3286  -46.4601 S.3       23 UNK        -0.2404 
      8 C8         -5.4190  -14.1446  -48.2784 C.3       23 UNK        -0.0205 
      9 C9         -4.1835  -14.5905  -49.0680 C.ar      23 UNK        -0.0193 
     10 C10        -4.3444  -14.9817  -50.4021 C.ar      23 UNK        -0.1150 
     11 C11        -3.2452  -15.3677  -51.1754 C.ar      23 UNK        -0.0193 
     12 C12        -1.9675  -15.3582  -50.6093 C.ar      23 UNK        -0.1150 
     13 C13        -1.7865  -14.9736  -49.2795 C.ar      23 UNK        -0.0193 
     14 C14        -2.8951  -14.5919  -48.5202 C.ar      23 UNK        -0.1150 
     15 C15        -0.3946  -14.9562  -48.6621 C.3       23 UNK        -0.0205 
     16 S16         0.1804  -16.6197  -48.1998 S.3       23 UNK        -0.2404 
     17 C17        -1.0603  -17.1155  -46.9605 C.3       23 UNK        -0.0398 
     18 CA         -2.0144  -18.1941  -47.5173 C.3       11 UNK         0.1400 
     19 N          -1.3126  -19.4597  -47.7632 N.am      11 UNK        -0.5000 
     20 C          -1.8468  -20.5135  -48.3905 C.2       10 UNK         0.5000 
     21 O          -2.9863  -20.5190  -48.8479 O.2       10 UNK        -0.5000 
     22 CA         -1.0118  -21.8031  -48.4374 C.3       10 UNK         0.1400 
     23 CB          0.0383  -21.7666  -49.5549 C.3       10 UNK        -0.1800 
     24 N          -0.3588  -22.0637  -47.1572 N.am      10 UNK        -0.5000 
     25 C          -1.0041  -22.4679  -46.0555 C.2       9 UNK         0.5000 
     26 O          -2.2109  -22.7035  -46.0190 O.2       9 UNK        -0.5000 
     27 CA         -0.1671  -22.5882  -44.7698 C.3       9 UNK         0.1400 
     28 CB          0.5629  -23.9386  -44.7246 C.3       9 UNK        -0.1800 
     29 N           0.8039  -21.5016  -44.6230 N.am      9 UNK        -0.5000 
     30 C           0.4722  -20.2165  -44.4357 C.2       8 UNK         0.5000 
     31 O          -0.6867  -19.8145  -44.3538 O.2       8 UNK        -0.5000 
     32 CA          1.6232  -19.2005  -44.3713 C.3       8 UNK         0.1400 
     33 CB          2.1905  -19.1113  -42.9474 C.3       8 UNK        -0.1800 
     34 N           2.7149  -19.4514  -45.3118 N.am      8 UNK        -0.5000 
     35 C           2.6032  -19.5449  -46.6429 C.2       7 UNK         0.5000 
     36 O           1.5225  -19.6212  -47.2282 O.2       7 UNK        -0.5000 
     37 CA          3.9239  -19.5203  -47.4439 C.3       7 UNK         0.1400 
     38 CB          3.6885  -19.4683  -48.9650 C.3       7 UNK        -0.1800 
     39 N           4.7658  -18.3819  -47.0628 N.am      7 UNK        -0.5000 
     40 C           5.5270  -18.2994  -45.9624 C.2       6 UNK         0.5000 
     41 O           5.6404  -19.2170  -45.1485 O.2       6 UNK        -0.5000 
     42 CA          6.2513  -16.9640  -45.7032 C.3       6 UNK         0.1400 
     43 CB          7.7019  -17.0353  -46.2041 C.3       6 UNK        -0.1800 
     44 N           5.5906  -15.8069  -46.3147 N.am      6 UNK        -0.5000 
     45 C           4.4103  -15.3041  -45.9283 C.2       5 UNK         0.5000 
     46 O           3.7326  -15.7645  -45.0065 O.2       5 UNK        -0.5000 
     47 CA          3.9090  -14.0897  -46.7215 C.3       5 UNK         0.1400 
     48 CB          3.4771  -14.4916  -48.1434 C.3       5 UNK        -0.1800 
     49 N           2.7902  -13.4670  -46.0188 N.am      5 UNK        -0.5000 
     50 C           2.4728  -12.1691  -46.0878 C.2       4 UNK         0.5000 
     51 O           3.0819  -11.3618  -46.7917 O.2       4 UNK        -0.5000 
     52 CA          1.2841  -11.6664  -45.2441 C.3       4 UNK         0.1400 
     53 CB          0.0898  -11.3215  -46.1484 C.3       4 UNK        -0.1800 
     54 N           0.8487  -12.5881  -44.1883 N.am      4 UNK        -0.5000 
     55 C           1.5043  -12.7635  -43.0298 C.2       3 UNK         0.5000 
     56 O           2.5958  -12.2433  -42.7942 O.2       3 UNK        -0.5000 
     57 CA          0.8387  -13.6154  -41.9271 C.3       3 UNK         0.1400 
     58 CB          0.4996  -12.7433  -40.7069 C.3       3 UNK        -0.1800 
     59 N          -0.3868  -14.2856  -42.3590 N.am      3 UNK        -0.5000 
     60 C          -0.4318  -15.4740  -42.9744 C.2       2 UNK         0.5000 
     61 O           0.5648  -16.1471  -43.2258 O.2       2 UNK        -0.5000 
     62 CA         -1.8228  -15.9902  -43.3990 C.3       2 UNK         0.1400 
     63 CB         -2.3924  -16.9355  -42.3325 C.3       2 UNK        -0.1800 
     64 N          -2.8013  -14.9322  -43.6664 N.am      2 UNK        -0.5000 
     65 C          -2.6552  -13.9256  -44.5415 C.2       1 UNK         0.5000 
     66 O          -1.6651  -13.8035  -45.2605 O.2       1 UNK        -0.5000 
     67 C          -3.2618  -18.3747  -46.6190 C.2       11 UNK         0.5000 
     68 O          -4.2813  -17.7311  -46.8613 O.2       11 UNK        -0.5000 
     69 N          -3.1879  -19.2881  -45.6400 N.am      12 UNK        -0.5000 
     70 CA         -4.3156  -19.7304  -44.8139 C.3       12 UNK         0.1400 
     71 CB         -3.7648  -20.4165  -43.5527 C.3       12 UNK        -0.1800 
     72 C          -5.2876  -20.6847  -45.5439 C.2       12 UNK         0.5000 
     73 O          -6.3680  -20.9519  -45.0163 O.2       12 UNK        -0.5000 
     74 N          -4.8838  -21.1990  -46.7152 N.am      13 UNK        -0.5000 
     75 CA         -5.5602  -22.1959  -47.5514 C.3       13 UNK         0.1400 
     76 CB         -6.8745  -21.6331  -48.1292 C.3       13 UNK        -0.1800 
     77 C          -5.7359  -23.5643  -46.8597 C.2       13 UNK         0.5000 
     78 O          -6.6970  -24.2824  -47.1459 O.2       13 UNK        -0.5000 
     79 N          -4.7935  -23.9174  -45.9749 N.am      14 UNK        -0.5000 
     80 CA         -4.7476  -25.1945  -45.2679 C.3       14 UNK         0.1400 
     81 CB         -3.6766  -25.1285  -44.1687 C.3       14 UNK        -0.1800 
     82 C          -4.4560  -26.3428  -46.2471 C.2       14 UNK         0.5000 
     83 O          -3.5655  -26.2100  -47.0889 O.2       14 UNK        -0.5000 
     84 N          -5.2360  -27.4286  -46.1456 N.am      15 UNK        -0.5000 
     85 CA         -5.1715  -28.6416  -46.9766 C.3       15 UNK         0.1400 
     86 CB         -3.8862  -29.4339  -46.6575 C.3       15 UNK        -0.1800 
     87 C          -5.3382  -28.3854  -48.4944 C.2       15 UNK         0.5000 
     88 O          -4.8941  -29.2020  -49.3030 O.2       15 UNK        -0.5000 
     89 N          -5.9587  -27.2483  -48.8497 N.am      16 UNK        -0.5000 
     90 CA         -6.1195  -26.7054  -50.2028 C.3       16 UNK         0.1400 
     91 CB         -7.0482  -27.6000  -51.0502 C.3       16 UNK        -0.1800 
     92 C          -4.7782  -26.3912  -50.9070 C.2       16 UNK         0.5000 
     93 O          -4.7100  -26.4195  -52.1365 O.2       16 UNK        -0.5000 
     94 N          -3.7357  -26.0651  -50.1264 N.am      17 UNK        -0.5000 
     95 CA         -2.3822  -25.7616  -50.6077 C.3       17 UNK         0.1400 
     96 CB         -1.3961  -25.9105  -49.4370 C.3       17 UNK        -0.1800 
     97 C          -2.2311  -24.3705  -51.2594 C.2       17 UNK         0.5000 
     98 O          -1.1256  -24.0260  -51.6775 O.2       17 UNK        -0.5000 
     99 N          -3.3218  -23.5914  -51.3229 N.am      18 UNK        -0.5000 
    100 CA        -3.3852  -22.1910  -51.7537 C.3       18 UNK         0.1400 
    101 CB        -4.8474  -21.7228  -51.7573 C.3       18 UNK        -0.1800 
    102 C         -2.7090  -21.8640  -53.0934 C.2       18 UNK         0.5000 
    103 O         -2.1449  -20.7794  -53.2255 O.2       18 UNK        -0.5000 
    104 N         -2.7115  -22.8162  -54.0351 N.am      19 UNK        -0.5000 
    105 CA        -2.0397  -22.7176  -55.3336 C.3       19 UNK         0.1400 
    106 CB        -2.3041  -24.0042  -56.1294 C.3       19 UNK        -0.1800 
    107 C         -0.5232  -22.4387  -55.2489 C.2       19 UNK         0.5000 
    108 O          0.0254  -21.8329  -56.1699 O.2       19 UNK        -0.5000 
    109 N          0.1218  -22.8440  -54.1443 N.am      20 UNK        -0.5000 
    110 CA         1.5383  -22.5888  -53.8772 C.3       20 UNK         0.1400 
    111 CB         2.0051  -23.4901  -52.7244 C.3       20 UNK        -0.1800 
    112 C          1.8528  -21.1105  -53.5676 C.2       20 UNK         0.5000 
    113 O          2.9907  -20.6897  -53.7804 O.2       20 UNK        -0.5000 
    114 N          0.8591  -20.3546  -53.0800 N.am      21 UNK        -0.5000 
    115 CA         0.9761  -18.9267  -52.7811 C.3       21 UNK         0.1400 
    116 CB         0.3915  -18.6412  -51.3878 C.3       21 UNK        -0.1800 
    117 C          0.2600  -18.0750  -53.8393 C.2       21 UNK         0.5000 
    118 O          0.8109  -17.0666  -54.2825 O.2       21 UNK        -0.5000 
    119 N         -0.9588  -18.4831  -54.2071 N.am      22 UNK        -0.5000 
    120 CA        -1.8853  -17.7167  -55.0519 C.3       22 UNK         0.1400 
    121 C         -1.7779  -18.0321  -56.5708 C.2       22 UNK         0.5000 
    122 N         -1.0002  -19.0183  -57.0007 N.am      22 UNK        -0.7600 
    123 O         -2.4061  -17.3573  -57.3819 O.2       22 UNK        -0.5000 
    124 C124       -3.3536  -17.8460  -54.5575 C.3       23 UNK        -0.0398 
    125 S125       -3.5583  -17.5978  -52.7570 S.3       23 UNK        -0.2404 
    126 C126       -3.4298  -15.7902  -52.6238 C.3       23 UNK        -0.0205 
    127 H127       -5.7526  -11.8132  -40.7076 H         1 UNK         0.0600 
    128 H128       -5.3056  -13.4991  -40.4252 H         1 UNK         0.0600 
    129 H129       -6.5003  -13.0969  -41.6625 H         1 UNK         0.0600 
    130 H130       -5.6550  -13.2360  -43.7313 H         1 UNK         0.3000 
    131 H131       -3.2453  -11.8962  -44.4770 H         1 UNK         0.0600 
    132 H132       -3.7665  -12.4909  -46.7404 H         1 UNK         0.0800 
    133 H133       -5.2215  -11.9846  -45.9552 H         1 UNK         0.0800 
    134 H134       -5.6419  -13.1060  -48.5261 H         1 UNK         0.0800 
    135 H135       -6.2782  -14.7276  -48.6135 H         1 UNK         0.0800 
    136 H136       -5.3312  -14.9845  -50.8438 H         1 UNK         0.1150 
    137 H137       -1.1147  -15.6568  -51.2024 H         1 UNK         0.1150 
    138 H138       -2.7389  -14.2998  -47.4967 H         1 UNK         0.1150 
    139 H139        0.3124  -14.5231  -49.3708 H         1 UNK         0.0800 
    140 H140       -0.3710  -14.3162  -47.7793 H         1 UNK         0.0800 
    141 H141       -1.6100  -16.2330  -46.6336 H         1 UNK         0.0800 
    142 H142       -0.5318  -17.4904  -46.0842 H         1 UNK         0.0800 
    143 H143       -2.3860  -17.8435  -48.4833 H         1 UNK         0.0600 
    144 H144       -0.3440  -19.5117  -47.4554 H         1 UNK         0.3000 
    145 H145       -1.6950  -22.6282  -48.6499 H         1 UNK         0.0600 
    146 H146        0.5274  -22.7350  -49.6559 H         1 UNK         0.0600 
    147 H147       -0.4153  -21.5295  -50.5175 H         1 UNK         0.0600 
    148 H148        0.8094  -21.0242  -49.3598 H         1 UNK         0.0600 
    149 H149        0.6144  -21.8034  -47.0840 H         1 UNK         0.3000 
    150 H150       -0.8550  -22.5445  -43.9227 H         1 UNK         0.0600 
    151 H151       -0.1405  -24.7665  -44.8233 H         1 UNK         0.0600 
    152 H152        1.0882  -24.0711  -43.7786 H         1 UNK         0.0600 
    153 H153        1.2923  -24.0308  -45.5302 H         1 UNK         0.0600 
    154 H154        1.7817  -21.7425  -44.6908 H         1 UNK         0.3000 
    155 H155        1.2077  -18.2270  -44.6323 H         1 UNK         0.0600 
    156 H156        2.6765  -20.0400  -42.6464 H         1 UNK         0.0600 
    157 H157        1.3999  -18.9007  -42.2257 H         1 UNK         0.0600 
    158 H158        2.9209  -18.3056  -42.8678 H         1 UNK         0.0600 
    159 H159        3.6551  -19.4053  -44.9341 H         1 UNK         0.3000 
    160 H160        4.4573  -20.4460  -47.2189 H         1 UNK         0.0600 
    161 H161        3.1232  -18.5811  -49.2542 H         1 UNK         0.0600 
    162 H162        3.1300  -20.3405  -49.3057 H         1 UNK         0.0600 
    163 H163        4.6317  -19.4582  -49.5112 H         1 UNK         0.0600 
    164 H164        4.7026  -17.5657  -47.6525 H         1 UNK         0.3000 
    165 H165        6.2712  -16.8088  -44.6224 H         1 UNK         0.0600 
    166 H166        8.2514  -16.1278  -45.9532 H         1 UNK         0.0600 
    167 H167        8.2327  -17.8712  -45.7463 H         1 UNK         0.0600 
    168 H168        7.7487  -17.1696  -47.2855 H         1 UNK         0.0600 
    169 H169        6.0830  -15.3653  -47.0781 H         1 UNK         0.3000 
    170 H170        4.7344  -13.3771  -46.7837 H         1 UNK         0.0600 
    171 H171        4.3191  -14.8778  -48.7185 H         1 UNK         0.0600 
    172 H172        2.7140  -15.2678  -48.1216 H         1 UNK         0.0600 
    173 H173        3.0744  -13.6415  -48.6942 H         1 UNK         0.0600 
    174 H174        2.2967  -14.0737  -45.3759 H         1 UNK         0.3000 
    175 H175        1.6063  -10.7396  -44.7645 H         1 UNK         0.0600 
    176 H176       -0.2354  -12.1818  -46.7324 H         1 UNK         0.0600 
    177 H177       -0.7611  -10.9666  -45.5668 H         1 UNK         0.0600 
    178 H178        0.3517  -10.5327  -46.8545 H         1 UNK         0.0600 
    179 H179       -0.0256  -13.0769  -44.3505 H         1 UNK         0.3000 
    180 H180        1.5681  -14.3654  -41.6136 H         1 UNK         0.0600 
    181 H181        0.0844  -13.3433  -39.8969 H         1 UNK         0.0600 
    182 H182       -0.2271  -11.9688  -40.9568 H         1 UNK         0.0600 
    183 H183        1.3891  -12.2468  -40.3169 H         1 UNK         0.0600 
    184 H184       -1.2538  -13.7900  -42.1987 H         1 UNK         0.3000 
    185 H185       -1.6976  -16.5632  -44.3152 H         1 UNK         0.0600 
    186 H186       -1.7155  -17.7726  -42.1544 H         1 UNK         0.0600 
    187 H187       -2.5440  -16.4247  -41.3808 H         1 UNK         0.0600 
    188 H188       -3.3491  -17.3527  -42.6467 H         1 UNK         0.0600 
    189 H189       -3.6450  -14.9488  -43.1129 H         1 UNK         0.3000 
    190 H190       -2.2904  -19.7194  -45.4372 H         1 UNK         0.3000 
    191 H191       -4.8849  -18.8514  -44.5052 H         1 UNK         0.0600 
    192 H192       -4.5718  -20.7088  -42.8799 H         1 UNK         0.0600 
    193 H193       -3.1029  -19.7556  -42.9949 H         1 UNK         0.0600 
    194 H194       -3.2025  -21.3174  -43.8003 H         1 UNK         0.0600 
    195 H195       -3.9879  -20.8932  -47.0753 H         1 UNK         0.3000 
    196 H196       -4.8897  -22.3822  -48.3906 H         1 UNK         0.0600 
    197 H197       -7.6259  -21.4803  -47.3542 H         1 UNK         0.0600 
    198 H198       -6.7064  -20.6785  -48.6282 H         1 UNK         0.0600 
    199 H199       -7.3005  -22.3127  -48.8681 H         1 UNK         0.0600 
    200 H200       -3.9711  -23.3255  -45.8821 H         1 UNK         0.3000 
    201 H201       -5.7191  -25.3562  -44.7963 H         1 UNK         0.0600 
    202 H202       -2.6783  -24.9985  -44.5878 H         1 UNK         0.0600 
    203 H203       -3.6668  -26.0458  -43.5789 H         1 UNK         0.0600 
    204 H204       -3.8626  -24.3007  -43.4841 H         1 UNK         0.0600 
    205 H205       -5.9598  -27.4312  -45.4399 H         1 UNK         0.3000 
    206 H206       -6.0215  -29.2588  -46.6827 H         1 UNK         0.0600 
    207 H207       -3.7904  -29.6160  -45.5871 H         1 UNK         0.0600 
    208 H208       -3.8903  -30.4069  -47.1500 H         1 UNK         0.0600 
    209 H209       -2.9927  -28.9035  -46.9887 H         1 UNK         0.0600 
    210 H210       -6.2801  -26.6448  -48.1040 H         1 UNK         0.3000 
    211 H211       -6.6197  -25.7439  -50.0785 H         1 UNK         0.0600 
    212 H212       -7.2988  -27.1190  -51.9964 H         1 UNK         0.0600 
    213 H213       -7.9861  -27.7980  -50.5314 H         1 UNK         0.0600 
    214 H214       -6.5855  -28.5588  -51.2854 H         1 UNK         0.0600 
    215 H215       -3.8502  -26.0851  -49.1174 H         1 UNK         0.3000 
    216 H216       -2.1164  -26.4993  -51.3673 H         1 UNK         0.0600 
    217 H217       -1.5856  -25.1731  -48.6558 H         1 UNK         0.0600 
    218 H218       -0.3654  -25.7776  -49.7684 H         1 UNK         0.0600 
    219 H219       -1.4652  -26.9006  -48.9859 H         1 UNK         0.0600 
    220 H220       -4.1824  -23.9868  -50.9777 H         1 UNK         0.3000 
    221 H221       -2.8422  -21.6139  -51.0117 H         1 UNK         0.0600 
    222 H222       -5.2902  -21.8021  -50.7651 H         1 UNK         0.0600 
    223 H223       -5.4556  -22.3084  -52.4476 H         1 UNK         0.0600 
    224 H224       -4.9212  -20.6764  -52.0577 H         1 UNK         0.0600 
    225 H225       -3.1733  -23.6896  -53.8274 H         1 UNK         0.3000 
    226 H226       -2.4914  -21.8817  -55.8719 H         1 UNK         0.0600 
    227 H227       -1.9033  -24.8809  -55.6189 H         1 UNK         0.0600 
    228 H228       -3.3719  -24.1622  -56.2821 H         1 UNK         0.0600 
    229 H229       -1.8398  -23.9569  -57.1154 H         1 UNK         0.0600 
    230 H230       -0.3993  -23.3119  -53.4082 H         1 UNK         0.3000 
    231 H231        2.1046  -22.8638  -54.7695 H         1 UNK         0.0600 
    232 H232        1.4882  -23.2519  -51.7953 H         1 UNK         0.0600 
    233 H233        3.0742  -23.3720  -52.5438 H         1 UNK         0.0600 
    234 H234        1.8261  -24.5421  -52.9468 H         1 UNK         0.0600 
    235 H235       -0.0629  -20.7633  -52.9874 H         1 UNK         0.3000 
    236 H236        2.0239  -18.6199  -52.7665 H         1 UNK         0.0600 
    237 H237        0.9839  -19.1177  -50.6089 H         1 UNK         0.0600 
    238 H238        0.3945  -17.5718  -51.1754 H         1 UNK         0.0600 
    239 H239       -0.6380  -18.9903  -51.2944 H         1 UNK         0.0600 
    240 H240       -1.3556  -19.3224  -53.7877 H         1 UNK         0.3000 
    241 H241       -1.6193  -16.6621  -54.9677 H         1 UNK         0.0600 
    242 H242       -0.9387  -19.2019  -57.9895 H         1 UNK         0.3800 
    243 H243       -0.4891  -19.6037  -56.3557 H         1 UNK         0.3800 
    244 H244       -3.7370  -18.8412  -54.7895 H         1 UNK         0.0800 
    245 H245       -4.0002  -17.1414  -55.0833 H         1 UNK         0.0800 
    246 H246       -4.3226  -15.3293  -53.0490 H         1 UNK         0.0800 
    247 H247       -2.5849  -15.4320  -53.2128 H         1 UNK         0.0800 
@<TRIPOS>BOND
     1    1    2 1    
     2    1  127 1    
     3    1  128 1    
     4    1  129 1    
     5    2    3 2    
     6    2    4 am   BACKBONE|DICT|INTERRES
     7    4    5 1    
     8    4  130 1    
     9    5    6 1    
    10    5   65 1    
    11    5  131 1    
    12    6    7 1    
    13    6  132 1    
    14    6  133 1    
    15    7    8 1    
    16    8    9 1    
    17    8  134 1    
    18    8  135 1    
    19    9   10 ar   
    20    9   14 ar   
    21   10   11 ar   
    22   10  136 1    
    23   11   12 ar   
    24   11  126 1    
    25   12   13 ar   
    26   12  137 1    
    27   13   14 ar   
    28   13   15 1    
    29   14  138 1    
    30   15   16 1    
    31   15  139 1    
    32   15  140 1    
    33   16   17 1    
    34   17   18 1    
    35   17  141 1    
    36   17  142 1    
    37   18   19 1    
    38   18   67 1    
    39   18  143 1    
    40   19   20 am   BACKBONE|DICT|INTERRES
    41   19  144 1    
    42   20   21 2    
    43   20   22 1    
    44   22   23 1    
    45   22   24 1    
    46   22  145 1    
    47   23  146 1    
    48   23  147 1    
    49   23  148 1    
    50   24   25 am   BACKBONE|DICT|INTERRES
    51   24  149 1    
    52   25   26 2    
    53   25   27 1    
    54   27   28 1    
    55   27   29 1    
    56   27  150 1    
    57   28  151 1    
    58   28  152 1    
    59   28  153 1    
    60   29   30 am   BACKBONE|DICT|INTERRES
    61   29  154 1    
    62   30   31 2    
    63   30   32 1    
    64   32   33 1    
    65   32   34 1    
    66   32  155 1    
    67   33  156 1    
    68   33  157 1    
    69   33  158 1    
    70   34   35 am   BACKBONE|DICT|INTERRES
    71   34  159 1    
    72   35   36 2    
    73   35   37 1    
    74   37   38 1    
    75   37   39 1    
    76   37  160 1    
    77   38  161 1    
    78   38  162 1    
    79   38  163 1    
    80   39   40 am   BACKBONE|DICT|INTERRES
    81   39  164 1    
    82   40   41 2    
    83   40   42 1    
    84   42   43 1    
    85   42   44 1    
    86   42  165 1    
    87   43  166 1    
    88   43  167 1    
    89   43  168 1    
    90   44   45 am   BACKBONE|DICT|INTERRES
    91   44  169 1    
    92   45   46 2    
    93   45   47 1    
    94   47   48 1    
    95   47   49 1    
    96   47  170 1    
    97   48  171 1    
    98   48  172 1    
    99   48  173 1    
   100   49   50 am   BACKBONE|DICT|INTERRES
   101   49  174 1    
   102   50   51 2    
   103   50   52 1    
   104   52   53 1    
   105   52   54 1    
   106   52  175 1    
   107   53  176 1    
   108   53  177 1    
   109   53  178 1    
   110   54   55 am   BACKBONE|DICT|INTERRES
   111   54  179 1    
   112   55   56 2    
   113   55   57 1    
   114   57   58 1    
   115   57   59 1    
   116   57  180 1    
   117   58  181 1    
   118   58  182 1    
   119   58  183 1    
   120   59   60 am   BACKBONE|DICT|INTERRES
   121   59  184 1    
   122   60   61 2    
   123   60   62 1    
   124   62   63 1    
   125   62   64 1    
   126   62  185 1    
   127   63  186 1    
   128   63  187 1    
   129   63  188 1    
   130   64   65 am   BACKBONE|DICT|INTERRES
   131   64  189 1    
   132   65   66 2    
   133   67   68 2    
   134   67   69 am   BACKBONE|DICT|INTERRES
   135   69   70 1    
   136   69  190 1    
   137   70   71 1    
   138   70   72 1    
   139   70  191 1    
   140   71  192 1    
   141   71  193 1    
   142   71  194 1    
   143   72   73 2    
   144   72   74 am   BACKBONE|DICT|INTERRES
   145   74   75 1    
   146   74  195 1    
   147   75   76 1    
   148   75   77 1    
   149   75  196 1    
   150   76  197 1    
   151   76  198 1    
   152   76  199 1    
   153   77   78 2    
   154   77   79 am   BACKBONE|DICT|INTERRES
   155   79   80 1    
   156   79  200 1    
   157   80   81 1    
   158   80   82 1    
   159   80  201 1    
   160   81  202 1    
   161   81  203 1    
   162   81  204 1    
   163   82   83 2    
   164   82   84 am   BACKBONE|DICT|INTERRES
   165   84   85 1    
   166   84  205 1    
   167   85   86 1    
   168   85   87 1    
   169   85  206 1    
   170   86  207 1    
   171   86  208 1    
   172   86  209 1    
   173   87   88 2    
   174   87   89 am   BACKBONE|DICT|INTERRES
   175   89   90 1    
   176   89  210 1    
   177   90   91 1    
   178   90   92 1    
   179   90  211 1    
   180   91  212 1    
   181   91  213 1    
   182   91  214 1    
   183   92   93 2    
   184   92   94 am   BACKBONE|DICT|INTERRES
   185   94   95 1    
   186   94  215 1    
   187   95   96 1    
   188   95   97 1    
   189   95  216 1    
   190   96  217 1    
   191   96  218 1    
   192   96  219 1    
   193   97   98 2    
   194   97   99 am   BACKBONE|DICT|INTERRES
   195   99  100 1    
   196   99  220 1    
   197  100  101 1    
   198  100  102 1    
   199  100  221 1    
   200  101  222 1    
   201  101  223 1    
   202  101  224 1    
   203  102  103 2    
   204  102  104 am   BACKBONE|DICT|INTERRES
   205  104  105 1    
   206  104  225 1    
   207  105  106 1    
   208  105  107 1    
   209  105  226 1    
   210  106  227 1    
   211  106  228 1    
   212  106  229 1    
   213  107  108 2    
   214  107  109 am   BACKBONE|DICT|INTERRES
   215  109  110 1    
   216  109  230 1    
   217  110  111 1    
   218  110  112 1    
   219  110  231 1    
   220  111  232 1    
   221  111  233 1    
   222  111  234 1    
   223  112  113 2    
   224  112  114 am   BACKBONE|DICT|INTERRES
   225  114  115 1    
   226  114  235 1    
   227  115  116 1    
   228  115  117 1    
   229  115  236 1    
   230  116  237 1    
   231  116  238 1    
   232  116  239 1    
   233  117  118 2    
   234  117  119 am   BACKBONE|DICT|INTERRES
   235  119  120 1    
   236  119  240 1    
   237  120  121 1    
   238  120  124 1    
   239  120  241 1    
   240  121  122 am   BACKBONE|DICT|INTERRES
   241  121  123 2    
   242  122  242 1    
   243  122  243 1    
   244  124  125 1    
   245  124  244 1    
   246  124  245 1    
   247  125  126 1    
   248  126  246 1    
   249  126  247 1    
@<TRIPOS>SUBSTRUCTURE
     1 UNK         1 GROUP             0       ****    0 ROOT    
