@<TRIPOS>MOLECULE
3R540
247   249    1
SMALL
USER_CHARGES


@<TRIPOS>ATOM
      1 CA          2.6182  -19.1256  -46.2845 C.3       0 UNK        -0.1800 
      2 C           3.6985  -19.0686  -47.3618 C.2       0 UNK         0.5000 
      3 O           4.2508  -20.1060  -47.7194 O.2       0 UNK        -0.5000 
      4 N           4.0337  -17.8920  -47.9105 N.am      1 UNK        -0.5000 
      5 CA          3.5439  -16.5659  -47.5108 C.3       1 UNK         0.1400 
      6 C6          3.7262  -15.5294  -48.6536 C.3       23 UNK        -0.0398 
      7 S7          2.4168  -14.2546  -48.6860 S.3       23 UNK        -0.2404 
      8 C8          1.9257  -14.2300  -50.4426 C.3       23 UNK        -0.0205 
      9 C9          0.8009  -15.2097  -50.7525 C.ar      23 UNK        -0.0193 
     10 C10        -0.5044  -14.7478  -50.9561 C.ar      23 UNK        -0.1150 
     11 C11        -1.5411  -15.6308  -51.2811 C.ar      23 UNK        -0.0193 
     12 C12        -1.2577  -17.0000  -51.3617 C.ar      23 UNK        -0.1150 
     13 C13         0.0407  -17.4750  -51.1653 C.ar      23 UNK        -0.0193 
     14 C14         1.0668  -16.5750  -50.8747 C.ar      23 UNK        -0.1150 
     15 C15         0.3403  -18.9617  -51.2723 C.3       23 UNK        -0.0205 
     16 S16         0.8320  -19.6688  -49.6707 S.3       23 UNK        -0.2404 
     17 C17        -0.6115  -19.3023  -48.6191 C.3       23 UNK        -0.0398 
     18 CA         -0.8955  -20.4544  -47.6194 C.3       11 UNK         0.1400 
     19 N          -0.9230  -19.9914  -46.2267 N.am      11 UNK        -0.5000 
     20 C          -0.9420  -20.7981  -45.1549 C.2       10 UNK         0.5000 
     21 O          -1.0039  -22.0264  -45.2269 O.2       10 UNK        -0.5000 
     22 CA         -0.9199  -20.1210  -43.7778 C.3       10 UNK         0.1400 
     23 CB          0.5087  -19.7073  -43.3980 C.3       10 UNK        -0.1800 
     24 N          -1.8100  -18.9607  -43.7519 N.am      10 UNK        -0.5000 
     25 C          -3.1228  -19.0411  -43.4908 C.2       9 UNK         0.5000 
     26 O          -3.6849  -20.0730  -43.1231 O.2       9 UNK        -0.5000 
     27 CA         -3.9627  -17.7681  -43.7101 C.3       9 UNK         0.1400 
     28 CB         -4.0490  -16.9379  -42.4216 C.3       9 UNK        -0.1800 
     29 N          -3.4665  -16.9295  -44.8032 N.am      9 UNK        -0.5000 
     30 C          -3.4827  -17.2935  -46.0943 C.2       8 UNK         0.5000 
     31 O          -3.9086  -18.3762  -46.4892 O.2       8 UNK        -0.5000 
     32 CA         -2.8962  -16.3083  -47.1210 C.3       8 UNK         0.1400 
     33 CB         -4.0044  -15.3901  -47.6551 C.3       8 UNK        -0.1800 
     34 N          -1.8071  -15.4801  -46.6053 N.am      8 UNK        -0.5000 
     35 C          -0.6723  -15.9196  -46.0468 C.2       7 UNK         0.5000 
     36 O          -0.4168  -17.1126  -45.8583 O.2       7 UNK        -0.5000 
     37 CA          0.3401  -14.8488  -45.5961 C.3       7 UNK         0.1400 
     38 CB         -0.0857  -13.3922  -45.8897 C.3       7 UNK        -0.1800 
     39 N           0.7009  -15.0019  -44.1869 N.am      7 UNK        -0.5000 
     40 C          -0.1370  -14.9791  -43.1397 C.2       6 UNK         0.5000 
     41 O          -1.3563  -14.8330  -43.2425 O.2       6 UNK        -0.5000 
     42 CA          0.4768  -15.1497  -41.7388 C.3       6 UNK         0.1400 
     43 CB          0.1276  -16.5255  -41.1561 C.3       6 UNK        -0.1800 
     44 N           1.9312  -14.9892  -41.7110 N.am      6 UNK        -0.5000 
     45 C           2.5651  -13.8082  -41.6543 C.2       5 UNK         0.5000 
     46 O           1.9817  -12.7263  -41.7416 O.2       5 UNK        -0.5000 
     47 CA          4.0990  -13.8407  -41.4448 C.3       5 UNK         0.1400 
     48 CB          4.6309  -12.5829  -40.7280 C.3       5 UNK        -0.1800 
     49 N           4.5719  -15.0558  -40.7704 N.am      5 UNK        -0.5000 
     50 C           4.1854  -15.5389  -39.5774 C.2       4 UNK         0.5000 
     51 O           3.4814  -14.9118  -38.7843 O.2       4 UNK        -0.5000 
     52 CA          4.6271  -16.9806  -39.2265 C.3       4 UNK         0.1400 
     53 CB          3.5260  -17.7530  -38.4702 C.3       4 UNK        -0.1800 
     54 N           5.0969  -17.7678  -40.3769 N.am      4 UNK        -0.5000 
     55 C           4.4198  -18.0703  -41.4956 C.2       3 UNK         0.5000 
     56 O           3.2552  -17.7323  -41.7173 O.2       3 UNK        -0.5000 
     57 CA          5.2258  -18.7933  -42.5913 C.3       3 UNK         0.1400 
     58 CB          4.4812  -20.0381  -43.0985 C.3       3 UNK        -0.1800 
     59 N           5.5281  -17.9140  -43.7251 N.am      3 UNK        -0.5000 
     60 C           6.1581  -16.7304  -43.6626 C.2       2 UNK         0.5000 
     61 O           6.5590  -16.2218  -42.6151 O.2       2 UNK        -0.5000 
     62 CA          6.3995  -15.9813  -44.9860 C.3       2 UNK         0.1400 
     63 CB          7.8649  -16.1305  -45.4227 C.3       2 UNK        -0.1800 
     64 N           5.5351  -16.4136  -46.0853 N.am      2 UNK        -0.5000 
     65 C           4.2411  -16.0880  -46.2150 C.2       1 UNK         0.5000 
     66 O           3.6096  -15.4646  -45.3618 O.2       1 UNK        -0.5000 
     67 C          -2.1370  -21.2838  -48.0138 C.2       11 UNK         0.5000 
     68 O          -2.0288  -22.1770  -48.8555 O.2       11 UNK        -0.5000 
     69 N          -3.2809  -21.0222  -47.3648 N.am      12 UNK        -0.5000 
     70 CA         -4.5180  -21.7984  -47.4664 C.3       12 UNK         0.1400 
     71 CB         -5.6031  -21.1471  -46.5968 C.3       12 UNK        -0.1800 
     72 C          -4.3573  -23.2846  -47.0967 C.2       12 UNK         0.5000 
     73 O          -5.0774  -24.1148  -47.6499 O.2       12 UNK        -0.5000 
     74 N          -3.4103  -23.5900  -46.2007 N.am      13 UNK        -0.5000 
     75 CA         -3.0317  -24.9488  -45.8270 C.3       13 UNK         0.1400 
     76 CB         -2.8218  -25.0146  -44.3057 C.3       13 UNK        -0.1800 
     77 C          -1.7589  -25.3875  -46.5692 C.2       13 UNK         0.5000 
     78 O          -1.7227  -26.4971  -47.1009 O.2       13 UNK        -0.5000 
     79 N          -0.7361  -24.5200  -46.5851 N.am      14 UNK        -0.5000 
     80 CA          0.6074  -24.8360  -47.0756 C.3       14 UNK         0.1400 
     81 CB          1.5925  -23.7604  -46.5906 C.3       14 UNK        -0.1800 
     82 C           0.7063  -25.0125  -48.6023 C.2       14 UNK         0.5000 
     83 O           1.5003  -25.8380  -49.0555 O.2       14 UNK        -0.5000 
     84 N          -0.0823  -24.2428  -49.3627 N.am      15 UNK        -0.5000 
     85 CA         -0.0798  -24.2358  -50.8291 C.3       15 UNK         0.1400 
     86 CB          0.4256  -22.8656  -51.3090 C.3       15 UNK        -0.1800 
     87 C          -1.4705  -24.5310  -51.4195 C.2       15 UNK         0.5000 
     88 O          -1.6182  -24.4957  -52.6417 O.2       15 UNK        -0.5000 
     89 N          -2.4645  -24.7902  -50.5551 N.am      16 UNK        -0.5000 
     90 CA         -3.8867  -24.9651  -50.8719 C.3       16 UNK         0.1400 
     91 CB         -4.1197  -26.2379  -51.7126 C.3       16 UNK        -0.1800 
     92 C          -4.5141  -23.7049  -51.5070 C.2       16 UNK         0.5000 
     93 O          -5.3920  -23.8167  -52.3657 O.2       16 UNK        -0.5000 
     94 N          -4.0615  -22.5169  -51.0727 N.am      17 UNK        -0.5000 
     95 CA         -4.4305  -21.2143  -51.6403 C.3       17 UNK         0.1400 
     96 CB         -3.6372  -20.1000  -50.9517 C.3       17 UNK        -0.1800 
     97 C          -5.9313  -20.8792  -51.6020 C.2       17 UNK         0.5000 
     98 O          -6.3763  -20.0744  -52.4175 O.2       17 UNK        -0.5000 
     99 N          -6.6834  -21.5087  -50.6901 N.am      18 UNK        -0.5000 
    100 CA        -8.1389  -21.3944  -50.5986 C.3       18 UNK         0.1400 
    101 CB        -8.6030  -21.9872  -49.2598 C.3       18 UNK        -0.1800 
    102 C         -8.8685  -22.0713  -51.7765 C.2       18 UNK         0.5000 
    103 O         -9.9448  -21.6136  -52.1614 O.2       18 UNK        -0.5000 
    104 N         -8.2687  -23.1331  -52.3324 N.am      19 UNK        -0.5000 
    105 CA        -8.7659  -23.8496  -53.5058 C.3       19 UNK         0.1400 
    106 CB        -8.4581  -25.3476  -53.3514 C.3       19 UNK        -0.1800 
    107 C         -8.1349  -23.2988  -54.7949 C.2       19 UNK         0.5000 
    108 O         -8.8308  -23.1536  -55.8000 O.2       19 UNK        -0.5000 
    109 N         -6.8313  -22.9912  -54.7398 N.am      20 UNK        -0.5000 
    110 CA        -6.0404  -22.4895  -55.8660 C.3       20 UNK         0.1400 
    111 CB        -4.5575  -22.7926  -55.5963 C.3       20 UNK        -0.1800 
    112 C         -6.2440  -20.9888  -56.1623 C.2       20 UNK         0.5000 
    113 O         -5.7111  -20.5036  -57.1612 O.2       20 UNK        -0.5000 
    114 N         -6.9648  -20.2719  -55.2861 N.am      21 UNK        -0.5000 
    115 CA        -7.2423  -18.8286  -55.3234 C.3       21 UNK         0.1400 
    116 CB        -8.2011  -18.4937  -56.4844 C.3       21 UNK        -0.1800 
    117 C         -5.9515  -17.9800  -55.3373 C.2       21 UNK         0.5000 
    118 O         -5.8429  -17.0199  -56.1022 O.2       21 UNK        -0.5000 
    119 N         -4.9799  -18.3980  -54.5150 N.am      22 UNK        -0.5000 
    120 CA        -3.5965  -17.8882  -54.4484 C.3       22 UNK         0.1400 
    121 C         -2.7371  -18.1451  -55.7279 C.2       22 UNK         0.5000 
    122 N         -3.1796  -18.9396  -56.6962 N.am      22 UNK        -0.7600 
    123 O         -1.6207  -17.6452  -55.8331 O.2       22 UNK        -0.5000 
    124 C124       -3.5088  -16.4113  -53.9634 C.3       23 UNK        -0.0398 
    125 S125       -4.1727  -16.1851  -52.2759 S.3       23 UNK        -0.2404 
    126 C126       -2.9374  -15.0533  -51.5376 C.3       23 UNK        -0.0205 
    127 H127        1.6650  -18.7828  -46.6834 H         1 UNK         0.0600 
    128 H128        2.8766  -18.5059  -45.4272 H         1 UNK         0.0600 
    129 H129        2.4805  -20.1482  -45.9325 H         1 UNK         0.0600 
    130 H130        4.7261  -17.8959  -48.6458 H         1 UNK         0.3000 
    131 H131        2.4763  -16.6601  -47.3067 H         1 UNK         0.0600 
    132 H132        4.6962  -15.0310  -48.6004 H         1 UNK         0.0800 
    133 H133        3.7323  -16.0362  -49.6173 H         1 UNK         0.0800 
    134 H134        1.6106  -13.2155  -50.6912 H         1 UNK         0.0800 
    135 H135        2.7868  -14.4352  -51.0801 H         1 UNK         0.0800 
    136 H136       -0.7127  -13.6897  -50.8788 H         1 UNK         0.1150 
    137 H137       -2.0388  -17.7062  -51.5898 H         1 UNK         0.1150 
    138 H138        2.0693  -16.9500  -50.7371 H         1 UNK         0.1150 
    139 H139       -0.5139  -19.5103  -51.6681 H         1 UNK         0.0800 
    140 H140        1.1520  -19.1113  -51.9853 H         1 UNK         0.0800 
    141 H141       -0.3812  -18.3726  -48.1009 H         1 UNK         0.0800 
    142 H142       -1.4792  -19.0704  -49.2374 H         1 UNK         0.0800 
    143 H143       -0.0638  -21.1581  -47.6614 H         1 UNK         0.0600 
    144 H144       -0.8488  -18.9891  -46.0789 H         1 UNK         0.3000 
    145 H145       -1.2522  -20.8606  -43.0461 H         1 UNK         0.0600 
    146 H146        1.2165  -20.5110  -43.6041 H         1 UNK         0.0600 
    147 H147        0.8396  -18.8236  -43.9445 H         1 UNK         0.0600 
    148 H148        0.5796  -19.4942  -42.3325 H         1 UNK         0.0600 
    149 H149       -1.4345  -18.0872  -44.0982 H         1 UNK         0.3000 
    150 H150       -4.9741  -18.0878  -43.9706 H         1 UNK         0.0600 
    151 H151       -4.4503  -17.5325  -41.5999 H         1 UNK         0.0600 
    152 H152       -4.7049  -16.0767  -42.5503 H         1 UNK         0.0600 
    153 H153       -3.0715  -16.5703  -42.1130 H         1 UNK         0.0600 
    154 H154       -3.0577  -16.0395  -44.5488 H         1 UNK         0.3000 
    155 H155       -2.4974  -16.8894  -47.9548 H         1 UNK         0.0600 
    156 H156       -3.6083  -14.6525  -48.3510 H         1 UNK         0.0600 
    157 H157       -4.5005  -14.8479  -46.8489 H         1 UNK         0.0600 
    158 H158       -4.7661  -15.9651  -48.1836 H         1 UNK         0.0600 
    159 H159       -1.9326  -14.4820  -46.6881 H         1 UNK         0.3000 
    160 H160        1.2417  -15.0411  -46.1691 H         1 UNK         0.0600 
    161 H161       -0.9961  -13.1109  -45.3592 H         1 UNK         0.0600 
    162 H162       -0.2533  -13.2361  -46.9563 H         1 UNK         0.0600 
    163 H163        0.6969  -12.6953  -45.5893 H         1 UNK         0.0600 
    164 H164        1.6837  -15.1641  -44.0091 H         1 UNK         0.3000 
    165 H165        0.0277  -14.3907  -41.0947 H         1 UNK         0.0600 
    166 H166        0.5477  -17.3241  -41.7635 H         1 UNK         0.0600 
    167 H167        0.5161  -16.6357  -40.1435 H         1 UNK         0.0600 
    168 H168       -0.9505  -16.6768  -41.1089 H         1 UNK         0.0600 
    169 H169        2.4753  -15.8450  -41.6543 H         1 UNK         0.3000 
    170 H170        4.5362  -13.8620  -42.4441 H         1 UNK         0.0600 
    171 H171        4.4096  -11.6816  -41.3007 H         1 UNK         0.0600 
    172 H172        4.1846  -12.4608  -39.7407 H         1 UNK         0.0600 
    173 H173        5.7128  -12.6284  -40.6040 H         1 UNK         0.0600 
    174 H174        5.1935  -15.6356  -41.3268 H         1 UNK         0.3000 
    175 H175        5.4817  -16.8782  -38.5565 H         1 UNK         0.0600 
    176 H176        2.6126  -17.8357  -39.0602 H         1 UNK         0.0600 
    177 H177        3.8541  -18.7612  -38.2177 H         1 UNK         0.0600 
    178 H178        3.2667  -17.2555  -37.5350 H         1 UNK         0.0600 
    179 H179        6.0688  -18.0418  -40.3311 H         1 UNK         0.3000 
    180 H180        6.1777  -19.1225  -42.1698 H         1 UNK         0.0600 
    181 H181        3.5181  -19.7793  -43.5355 H         1 UNK         0.0600 
    182 H182        4.2902  -20.7360  -42.2824 H         1 UNK         0.0600 
    183 H183        5.0614  -20.5700  -43.8527 H         1 UNK         0.0600 
    184 H184        5.2316  -18.2369  -44.6324 H         1 UNK         0.3000 
    185 H185        6.2092  -14.9226  -44.7962 H         1 UNK         0.0600 
    186 H186        8.0734  -15.5388  -46.3144 H         1 UNK         0.0600 
    187 H187        8.5438  -15.7860  -44.6414 H         1 UNK         0.0600 
    188 H188        8.1164  -17.1691  -45.6412 H         1 UNK         0.0600 
    189 H189        5.9745  -16.9544  -46.8162 H         1 UNK         0.3000 
    190 H190       -3.3201  -20.2059  -46.7612 H         1 UNK         0.3000 
    191 H191       -4.8497  -21.7587  -48.5028 H         1 UNK         0.0600 
    192 H192       -6.5159  -21.7439  -46.5891 H         1 UNK         0.0600 
    193 H193       -5.8681  -20.1594  -46.9739 H         1 UNK         0.0600 
    194 H194       -5.2747  -21.0353  -45.5625 H         1 UNK         0.0600 
    195 H195       -2.8407  -22.8440  -45.8193 H         1 UNK         0.3000 
    196 H196       -3.8287  -25.6501  -46.0835 H         1 UNK         0.0600 
    197 H197       -2.5333  -26.0194  -43.9944 H         1 UNK         0.0600 
    198 H198       -3.7380  -24.7598  -43.7728 H         1 UNK         0.0600 
    199 H199       -2.0412  -24.3299  -43.9718 H         1 UNK         0.0600 
    200 H200       -0.8412  -23.6290  -46.1056 H         1 UNK         0.3000 
    201 H201        0.9058  -25.7837  -46.6219 H         1 UNK         0.0600 
    202 H202        1.5669  -23.6599  -45.5053 H         1 UNK         0.0600 
    203 H203        1.3738  -22.7846  -47.0218 H         1 UNK         0.0600 
    204 H204        2.6158  -24.0158  -46.8689 H         1 UNK         0.0600 
    205 H205       -0.7071  -23.5736  -48.9229 H         1 UNK         0.3000 
    206 H206        0.5915  -25.0030  -51.2192 H         1 UNK         0.0600 
    207 H207        1.3965  -22.6257  -50.8753 H         1 UNK         0.0600 
    208 H208        0.5404  -22.8444  -52.3933 H         1 UNK         0.0600 
    209 H209       -0.2703  -22.0713  -51.0386 H         1 UNK         0.0600 
    210 H210       -2.2292  -24.8043  -49.5735 H         1 UNK         0.3000 
    211 H211       -4.3964  -25.1133  -49.9212 H         1 UNK         0.0600 
    212 H212       -3.7129  -26.1418  -52.7196 H         1 UNK         0.0600 
    213 H213       -5.1851  -26.4489  -51.8126 H         1 UNK         0.0600 
    214 H214       -3.6600  -27.1087  -51.2455 H         1 UNK         0.0600 
    215 H215       -3.3284  -22.5109  -50.3706 H         1 UNK         0.3000 
    216 H216       -4.1328  -21.2291  -52.6890 H         1 UNK         0.0600 
    217 H217       -3.8169  -19.1428  -51.4397 H         1 UNK         0.0600 
    218 H218       -2.5680  -20.2990  -50.9933 H         1 UNK         0.0600 
    219 H219       -3.9277  -19.9805  -49.9089 H         1 UNK         0.0600 
    220 H220       -6.2393  -22.1718  -50.0742 H         1 UNK         0.3000 
    221 H221       -8.4013  -20.3343  -50.6125 H         1 UNK         0.0600 
    222 H222       -8.3240  -23.0374  -49.1643 H         1 UNK         0.0600 
    223 H223       -8.1694  -21.4454  -48.4195 H         1 UNK         0.0600 
    224 H224       -9.6874  -21.9243  -49.1592 H         1 UNK         0.0600 
    225 H225       -7.3558  -23.4137  -51.9935 H         1 UNK         0.3000 
    226 H226       -9.8494  -23.7355  -53.5828 H         1 UNK         0.0600 
    227 H227       -8.9350  -25.7565  -52.4605 H         1 UNK         0.0600 
    228 H228       -8.8296  -25.9121  -54.2075 H         1 UNK         0.0600 
    229 H229       -7.3867  -25.5368  -53.2734 H         1 UNK         0.0600 
    230 H230       -6.3211  -23.1934  -53.8841 H         1 UNK         0.3000 
    231 H231       -6.3353  -23.0353  -56.7646 H         1 UNK         0.0600 
    232 H232       -3.9367  -22.5071  -56.4465 H         1 UNK         0.0600 
    233 H233       -4.3969  -23.8567  -55.4215 H         1 UNK         0.0600 
    234 H234       -4.1863  -22.2534  -54.7262 H         1 UNK         0.0600 
    235 H235       -7.2932  -20.7483  -54.4572 H         1 UNK         0.3000 
    236 H236       -7.7555  -18.5880  -54.3912 H         1 UNK         0.0600 
    237 H237       -9.1076  -19.0968  -56.4319 H         1 UNK         0.0600 
    238 H238       -8.5057  -17.4471  -56.4504 H         1 UNK         0.0600 
    239 H239       -7.7380  -18.6687  -57.4560 H         1 UNK         0.0600 
    240 H240       -5.2092  -19.1593  -53.8880 H         1 UNK         0.3000 
    241 H241       -3.1090  -18.5009  -53.6904 H         1 UNK         0.0600 
    242 H242       -4.1035  -19.3548  -56.6688 H         1 UNK         0.3800 
    243 H243       -2.5953  -19.0952  -57.5020 H         1 UNK         0.3800 
    244 H244       -2.4722  -16.0712  -53.9676 H         1 UNK         0.0800 
    245 H245       -4.0407  -15.7450  -54.6430 H         1 UNK         0.0800 
    246 H246       -3.3377  -14.6890  -50.5933 H         1 UNK         0.0800 
    247 H247       -2.8492  -14.1794  -52.1849 H         1 UNK         0.0800 
@<TRIPOS>BOND
     1    1    2 1    
     2    1  127 1    
     3    1  128 1    
     4    1  129 1    
     5    2    3 2    
     6    2    4 am   BACKBONE|DICT|INTERRES
     7    4    5 1    
     8    4  130 1    
     9    5    6 1    
    10    5   65 1    
    11    5  131 1    
    12    6    7 1    
    13    6  132 1    
    14    6  133 1    
    15    7    8 1    
    16    8    9 1    
    17    8  134 1    
    18    8  135 1    
    19    9   10 ar   
    20    9   14 ar   
    21   10   11 ar   
    22   10  136 1    
    23   11   12 ar   
    24   11  126 1    
    25   12   13 ar   
    26   12  137 1    
    27   13   14 ar   
    28   13   15 1    
    29   14  138 1    
    30   15   16 1    
    31   15  139 1    
    32   15  140 1    
    33   16   17 1    
    34   17   18 1    
    35   17  141 1    
    36   17  142 1    
    37   18   19 1    
    38   18   67 1    
    39   18  143 1    
    40   19   20 am   BACKBONE|DICT|INTERRES
    41   19  144 1    
    42   20   21 2    
    43   20   22 1    
    44   22   23 1    
    45   22   24 1    
    46   22  145 1    
    47   23  146 1    
    48   23  147 1    
    49   23  148 1    
    50   24   25 am   BACKBONE|DICT|INTERRES
    51   24  149 1    
    52   25   26 2    
    53   25   27 1    
    54   27   28 1    
    55   27   29 1    
    56   27  150 1    
    57   28  151 1    
    58   28  152 1    
    59   28  153 1    
    60   29   30 am   BACKBONE|DICT|INTERRES
    61   29  154 1    
    62   30   31 2    
    63   30   32 1    
    64   32   33 1    
    65   32   34 1    
    66   32  155 1    
    67   33  156 1    
    68   33  157 1    
    69   33  158 1    
    70   34   35 am   BACKBONE|DICT|INTERRES
    71   34  159 1    
    72   35   36 2    
    73   35   37 1    
    74   37   38 1    
    75   37   39 1    
    76   37  160 1    
    77   38  161 1    
    78   38  162 1    
    79   38  163 1    
    80   39   40 am   BACKBONE|DICT|INTERRES
    81   39  164 1    
    82   40   41 2    
    83   40   42 1    
    84   42   43 1    
    85   42   44 1    
    86   42  165 1    
    87   43  166 1    
    88   43  167 1    
    89   43  168 1    
    90   44   45 am   BACKBONE|DICT|INTERRES
    91   44  169 1    
    92   45   46 2    
    93   45   47 1    
    94   47   48 1    
    95   47   49 1    
    96   47  170 1    
    97   48  171 1    
    98   48  172 1    
    99   48  173 1    
   100   49   50 am   BACKBONE|DICT|INTERRES
   101   49  174 1    
   102   50   51 2    
   103   50   52 1    
   104   52   53 1    
   105   52   54 1    
   106   52  175 1    
   107   53  176 1    
   108   53  177 1    
   109   53  178 1    
   110   54   55 am   BACKBONE|DICT|INTERRES
   111   54  179 1    
   112   55   56 2    
   113   55   57 1    
   114   57   58 1    
   115   57   59 1    
   116   57  180 1    
   117   58  181 1    
   118   58  182 1    
   119   58  183 1    
   120   59   60 am   BACKBONE|DICT|INTERRES
   121   59  184 1    
   122   60   61 2    
   123   60   62 1    
   124   62   63 1    
   125   62   64 1    
   126   62  185 1    
   127   63  186 1    
   128   63  187 1    
   129   63  188 1    
   130   64   65 am   BACKBONE|DICT|INTERRES
   131   64  189 1    
   132   65   66 2    
   133   67   68 2    
   134   67   69 am   BACKBONE|DICT|INTERRES
   135   69   70 1    
   136   69  190 1    
   137   70   71 1    
   138   70   72 1    
   139   70  191 1    
   140   71  192 1    
   141   71  193 1    
   142   71  194 1    
   143   72   73 2    
   144   72   74 am   BACKBONE|DICT|INTERRES
   145   74   75 1    
   146   74  195 1    
   147   75   76 1    
   148   75   77 1    
   149   75  196 1    
   150   76  197 1    
   151   76  198 1    
   152   76  199 1    
   153   77   78 2    
   154   77   79 am   BACKBONE|DICT|INTERRES
   155   79   80 1    
   156   79  200 1    
   157   80   81 1    
   158   80   82 1    
   159   80  201 1    
   160   81  202 1    
   161   81  203 1    
   162   81  204 1    
   163   82   83 2    
   164   82   84 am   BACKBONE|DICT|INTERRES
   165   84   85 1    
   166   84  205 1    
   167   85   86 1    
   168   85   87 1    
   169   85  206 1    
   170   86  207 1    
   171   86  208 1    
   172   86  209 1    
   173   87   88 2    
   174   87   89 am   BACKBONE|DICT|INTERRES
   175   89   90 1    
   176   89  210 1    
   177   90   91 1    
   178   90   92 1    
   179   90  211 1    
   180   91  212 1    
   181   91  213 1    
   182   91  214 1    
   183   92   93 2    
   184   92   94 am   BACKBONE|DICT|INTERRES
   185   94   95 1    
   186   94  215 1    
   187   95   96 1    
   188   95   97 1    
   189   95  216 1    
   190   96  217 1    
   191   96  218 1    
   192   96  219 1    
   193   97   98 2    
   194   97   99 am   BACKBONE|DICT|INTERRES
   195   99  100 1    
   196   99  220 1    
   197  100  101 1    
   198  100  102 1    
   199  100  221 1    
   200  101  222 1    
   201  101  223 1    
   202  101  224 1    
   203  102  103 2    
   204  102  104 am   BACKBONE|DICT|INTERRES
   205  104  105 1    
   206  104  225 1    
   207  105  106 1    
   208  105  107 1    
   209  105  226 1    
   210  106  227 1    
   211  106  228 1    
   212  106  229 1    
   213  107  108 2    
   214  107  109 am   BACKBONE|DICT|INTERRES
   215  109  110 1    
   216  109  230 1    
   217  110  111 1    
   218  110  112 1    
   219  110  231 1    
   220  111  232 1    
   221  111  233 1    
   222  111  234 1    
   223  112  113 2    
   224  112  114 am   BACKBONE|DICT|INTERRES
   225  114  115 1    
   226  114  235 1    
   227  115  116 1    
   228  115  117 1    
   229  115  236 1    
   230  116  237 1    
   231  116  238 1    
   232  116  239 1    
   233  117  118 2    
   234  117  119 am   BACKBONE|DICT|INTERRES
   235  119  120 1    
   236  119  240 1    
   237  120  121 1    
   238  120  124 1    
   239  120  241 1    
   240  121  122 am   BACKBONE|DICT|INTERRES
   241  121  123 2    
   242  122  242 1    
   243  122  243 1    
   244  124  125 1    
   245  124  244 1    
   246  124  245 1    
   247  125  126 1    
   248  126  246 1    
   249  126  247 1    
@<TRIPOS>SUBSTRUCTURE
     1 UNK         1 GROUP             0       ****    0 ROOT    
