@<TRIPOS>MOLECULE
3R540
247   249    1
SMALL
USER_CHARGES


@<TRIPOS>ATOM
      1 CA         -2.5556  -10.8883  -44.4440 C.3       0 UNK        -0.1800 
      2 C          -1.2545  -10.4466  -45.0992 C.2       0 UNK         0.5000 
      3 O          -0.7097   -9.4041  -44.7358 O.2       0 UNK        -0.5000 
      4 N          -0.7601  -11.2316  -46.0631 N.am      1 UNK        -0.5000 
      5 CA          0.5093  -11.0143  -46.7635 C.3       1 UNK         0.1400 
      6 C6          0.5515  -11.7511  -48.1276 C.3       23 UNK        -0.0398 
      7 S7          0.1037  -13.5256  -48.0779 S.3       23 UNK        -0.2404 
      8 C8         -1.0046  -13.5778  -49.5210 C.3       23 UNK        -0.0205 
      9 C9         -1.4870  -14.9818  -49.8469 C.ar      23 UNK        -0.0193 
     10 C10        -0.6546  -15.8678  -50.5337 C.ar      23 UNK        -0.1150 
     11 C11        -1.1111  -17.1355  -50.9063 C.ar      23 UNK        -0.0193 
     12 C12        -2.4216  -17.5112  -50.5782 C.ar      23 UNK        -0.1150 
     13 C13        -3.2721  -16.6307  -49.8939 C.ar      23 UNK        -0.0193 
     14 C14        -2.7880  -15.3726  -49.5238 C.ar      23 UNK        -0.1150 
     15 C15        -4.7412  -16.9501  -49.6130 C.3       23 UNK        -0.0205 
     16 S16        -5.1752  -18.7203  -49.5557 S.3       23 UNK        -0.2404 
     17 C17        -4.8897  -19.1239  -47.8017 C.3       23 UNK        -0.0398 
     18 CA         -4.4495  -20.5961  -47.6430 C.3       11 UNK         0.1400 
     19 N          -3.1065  -20.8221  -48.1857 N.am      11 UNK        -0.5000 
     20 C          -2.5001  -22.0101  -48.2973 C.2       10 UNK         0.5000 
     21 O          -3.0315  -23.0799  -47.9984 O.2       10 UNK        -0.5000 
     22 CA         -1.0352  -22.0015  -48.7713 C.3       10 UNK         0.1400 
     23 CB         -0.9833  -22.2108  -50.2900 C.3       10 UNK        -0.1800 
     24 N          -0.2783  -20.7904  -48.4275 N.am      10 UNK        -0.5000 
     25 C          -0.1292  -20.2756  -47.1986 C.2       9 UNK         0.5000 
     26 O          -0.6941  -20.7189  -46.1954 O.2       9 UNK        -0.5000 
     27 CA          0.7531  -19.0221  -47.0851 C.3       9 UNK         0.1400 
     28 CB         -0.0759  -17.7701  -47.3992 C.3       9 UNK        -0.1800 
     29 N           1.3139  -18.8989  -45.7426 N.am      9 UNK        -0.5000 
     30 C           2.3178  -19.6463  -45.2632 C.2       8 UNK         0.5000 
     31 O           2.9551  -20.4460  -45.9496 O.2       8 UNK        -0.5000 
     32 CA          2.6772  -19.4793  -43.7738 C.3       8 UNK         0.1400 
     33 CB          4.0912  -18.8985  -43.6099 C.3       8 UNK        -0.1800 
     34 N           1.7191  -18.6208  -43.0729 N.am      8 UNK        -0.5000 
     35 C           0.6755  -19.0744  -42.3643 C.2       7 UNK         0.5000 
     36 O           0.4574  -20.2690  -42.1621 O.2       7 UNK        -0.5000 
     37 CA         -0.2964  -18.0276  -41.7867 C.3       7 UNK         0.1400 
     38 CB          0.0561  -17.7247  -40.3239 C.3       7 UNK        -0.1800 
     39 N          -0.3242  -16.7860  -42.5668 N.am      7 UNK        -0.5000 
     40 C          -0.9656  -16.6595  -43.7392 C.2       6 UNK         0.5000 
     41 O          -1.6217  -17.5749  -44.2346 O.2       6 UNK        -0.5000 
     42 CA         -0.8289  -15.3323  -44.5217 C.3       6 UNK         0.1400 
     43 CB         -2.1387  -14.9231  -45.2269 C.3       6 UNK        -0.1800 
     44 N          -0.2687  -14.2201  -43.7507 N.am      6 UNK        -0.5000 
     45 C          -0.7909  -13.5927  -42.6882 C.2       5 UNK         0.5000 
     46 O          -1.9101  -13.8212  -42.2281 O.2       5 UNK        -0.5000 
     47 CA          0.1409  -12.5584  -42.0185 C.3       5 UNK         0.1400 
     48 CB         -0.3497  -12.1033  -40.6279 C.3       5 UNK        -0.1800 
     49 N           1.5337  -13.0315  -41.9693 N.am      5 UNK        -0.5000 
     50 C           1.9777  -14.1225  -41.3264 C.2       4 UNK         0.5000 
     51 O           1.2587  -14.8305  -40.6235 O.2       4 UNK        -0.5000 
     52 CA          3.4553  -14.5087  -41.5477 C.3       4 UNK         0.1400 
     53 CB          3.8155  -15.8774  -40.9314 C.3       4 UNK        -0.1800 
     54 N           3.8550  -14.4719  -42.9581 N.am      4 UNK        -0.5000 
     55 C           3.3323  -15.1604  -43.9822 C.2       3 UNK         0.5000 
     56 O           2.3693  -15.9220  -43.8716 O.2       3 UNK        -0.5000 
     57 CA          3.9990  -14.9449  -45.3614 C.3       3 UNK         0.1400 
     58 CB          3.3604  -15.8087  -46.4632 C.3       3 UNK        -0.1800 
     59 N           3.9379  -13.5468  -45.7862 N.am      3 UNK        -0.5000 
     60 C           4.6266  -12.5239  -45.2639 C.2       2 UNK         0.5000 
     61 O           5.5217  -12.6688  -44.4296 O.2       2 UNK        -0.5000 
     62 CA          4.2290  -11.0976  -45.7008 C.3       2 UNK         0.1400 
     63 CB          5.3085  -10.5010  -46.6175 C.3       2 UNK        -0.1800 
     64 N           2.9252  -10.9685  -46.3661 N.am      2 UNK        -0.5000 
     65 C           1.7326  -11.3454  -45.8803 C.2       1 UNK         0.5000 
     66 O           1.5913  -11.9434  -44.8107 O.2       1 UNK        -0.5000 
     67 C          -4.6156  -21.0773  -46.1842 C.2       11 UNK         0.5000 
     68 O          -5.7276  -21.4439  -45.8028 O.2       11 UNK        -0.5000 
     69 N          -3.5206  -21.1041  -45.4145 N.am      12 UNK        -0.5000 
     70 CA         -3.4736  -21.6462  -44.0604 C.3       12 UNK         0.1400 
     71 CB         -2.8936  -20.5841  -43.1164 C.3       12 UNK        -0.1800 
     72 C          -2.6313  -22.9301  -44.0231 C.2       12 UNK         0.5000 
     73 O          -3.1009  -23.9491  -43.5168 O.2       12 UNK        -0.5000 
     74 N          -1.4105  -22.8685  -44.5724 N.am      13 UNK        -0.5000 
     75 CA         -0.3881  -23.9129  -44.4765 C.3       13 UNK         0.1400 
     76 CB          0.9553  -23.3401  -44.9523 C.3       13 UNK        -0.1800 
     77 C          -0.7213  -25.2071  -45.2400 C.2       13 UNK         0.5000 
     78 O          -0.2506  -26.2738  -44.8433 O.2       13 UNK        -0.5000 
     79 N          -1.5244  -25.0967  -46.3047 N.am      14 UNK        -0.5000 
     80 CA         -2.0025  -26.2170  -47.1166 C.3       14 UNK         0.1400 
     81 CB         -1.4444  -26.0742  -48.5444 C.3       14 UNK        -0.1800 
     82 C          -3.5406  -26.2872  -47.1122 C.2       14 UNK         0.5000 
     83 O          -4.1152  -26.9385  -47.9845 O.2       14 UNK        -0.5000 
     84 N          -4.1885  -25.5877  -46.1649 N.am      15 UNK        -0.5000 
     85 CA         -5.6427  -25.4779  -45.9806 C.3       15 UNK         0.1400 
     86 CB         -6.2040  -26.8021  -45.4237 C.3       15 UNK        -0.1800 
     87 C          -6.4007  -24.9960  -47.2403 C.2       15 UNK         0.5000 
     88 O          -7.5496  -25.3849  -47.4558 O.2       15 UNK        -0.5000 
     89 N          -5.7238  -24.1781  -48.0591 N.am      16 UNK        -0.5000 
     90 CA         -6.1515  -23.6393  -49.3509 C.3       16 UNK         0.1400 
     91 CB         -7.4313  -22.7871  -49.2196 C.3       16 UNK        -0.1800 
     92 C          -6.2419  -24.6765  -50.4885 C.2       16 UNK         0.5000 
     93 O          -6.7554  -24.3413  -51.5562 O.2       16 UNK        -0.5000 
     94 N          -5.7030  -25.8900  -50.2938 N.am      17 UNK        -0.5000 
     95 CA         -5.6509  -26.9269  -51.3298 C.3       17 UNK         0.1400 
     96 CB         -5.3323  -28.2856  -50.6885 C.3       17 UNK        -0.1800 
     97 C          -4.6303  -26.6000  -52.4368 C.2       17 UNK         0.5000 
     98 O          -4.8739  -26.9142  -53.6021 O.2       17 UNK        -0.5000 
     99 N          -3.5190  -25.9577  -52.0520 N.am      18 UNK        -0.5000 
    100 CA        -2.4343  -25.5458  -52.9470 C.3       18 UNK         0.1400 
    101 CB        -1.0903  -25.8332  -52.2573 C.3       18 UNK        -0.1800 
    102 C         -2.5308  -24.0636  -53.3602 C.2       18 UNK         0.5000 
    103 O         -1.6779  -23.5960  -54.1150 O.2       18 UNK        -0.5000 
    104 N         -3.5543  -23.3399  -52.8778 N.am      19 UNK        -0.5000 
    105 CA        -3.7354  -21.8965  -53.0839 C.3       19 UNK         0.1400 
    106 CB        -4.8462  -21.3708  -52.1652 C.3       19 UNK        -0.1800 
    107 C         -3.9711  -21.4670  -54.5455 C.2       19 UNK         0.5000 
    108 O         -3.8268  -20.2852  -54.8551 O.2       19 UNK        -0.5000 
    109 N         -4.2659  -22.4243  -55.4357 N.am      20 UNK        -0.5000 
    110 CA        -4.3054  -22.2316  -56.8875 C.3       20 UNK         0.1400 
    111 CB        -4.7811  -23.5329  -57.5506 C.3       20 UNK        -0.1800 
    112 C         -2.9519  -21.7842  -57.4828 C.2       20 UNK         0.5000 
    113 O         -2.9390  -21.1011  -58.5075 O.2       20 UNK        -0.5000 
    114 N         -1.8417  -22.1412  -56.8183 N.am      21 UNK        -0.5000 
    115 CA        -0.4855  -21.7244  -57.1786 C.3       21 UNK         0.1400 
    116 CB         0.5208  -22.6596  -56.4899 C.3       21 UNK        -0.1800 
    117 C         -0.1786  -20.2535  -56.8264 C.2       21 UNK         0.5000 
    118 O          0.7989  -19.7093  -57.3420 O.2       21 UNK        -0.5000 
    119 N         -0.9952  -19.6359  -55.9613 N.am      22 UNK        -0.5000 
    120 CA        -0.8418  -18.2419  -55.5093 C.3       22 UNK         0.1400 
    121 C         -1.3244  -17.1790  -56.5407 C.2       22 UNK         0.5000 
    122 N         -1.9759  -17.5544  -57.6356 N.am      22 UNK        -0.7600 
    123 O         -1.0935  -15.9883  -56.3490 O.2       22 UNK        -0.5000 
    124 C124       -1.5006  -18.0016  -54.1251 C.3       23 UNK        -0.0398 
    125 S125       -0.9365  -19.1824  -52.8499 S.3       23 UNK        -0.2404 
    126 C126       -0.1512  -18.0815  -51.6275 C.3       23 UNK        -0.0205 
    127 H127       -2.8696  -11.8741  -44.7874 H         1 UNK         0.0600 
    128 H128       -3.3504  -10.1784  -44.6728 H         1 UNK         0.0600 
    129 H129       -2.4370  -10.9302  -43.3613 H         1 UNK         0.0600 
    130 H130       -1.2325  -12.0914  -46.3006 H         1 UNK         0.3000 
    131 H131        0.5792   -9.9457  -46.9787 H         1 UNK         0.0600 
    132 H132        1.5279  -11.6580  -48.6055 H         1 UNK         0.0800 
    133 H133       -0.1347  -11.2368  -48.8018 H         1 UNK         0.0800 
    134 H134       -0.4823  -13.1728  -50.3893 H         1 UNK         0.0800 
    135 H135       -1.8559  -12.9189  -49.3420 H         1 UNK         0.0800 
    136 H136        0.3525  -15.5630  -50.7818 H         1 UNK         0.1150 
    137 H137       -2.7828  -18.4838  -50.8769 H         1 UNK         0.1150 
    138 H138       -3.4404  -14.6781  -49.0131 H         1 UNK         0.1150 
    139 H139       -5.0591  -16.4778  -48.6820 H         1 UNK         0.0800 
    140 H140       -5.3339  -16.4889  -50.4038 H         1 UNK         0.0800 
    141 H141       -5.8236  -18.9320  -47.2699 H         1 UNK         0.0800 
    142 H142       -4.1440  -18.4500  -47.3753 H         1 UNK         0.0800 
    143 H143       -5.1332  -21.2058  -48.2310 H         1 UNK         0.0600 
    144 H144       -2.5929  -19.9976  -48.4583 H         1 UNK         0.3000 
    145 H145       -0.5372  -22.8455  -48.2902 H         1 UNK         0.0600 
    146 H146        0.0384  -22.3639  -50.6377 H         1 UNK         0.0600 
    147 H147       -1.5621  -23.0859  -50.5844 H         1 UNK         0.0600 
    148 H148       -1.3960  -21.3544  -50.8226 H         1 UNK         0.0600 
    149 H149        0.2127  -20.3528  -49.1927 H         1 UNK         0.3000 
    150 H150        1.5709  -19.0946  -47.8051 H         1 UNK         0.0600 
    151 H151       -0.4877  -17.8278  -48.4031 H         1 UNK         0.0600 
    152 H152        0.5251  -16.8635  -47.3501 H         1 UNK         0.0600 
    153 H153       -0.9200  -17.6580  -46.7206 H         1 UNK         0.0600 
    154 H154        0.7995  -18.3267  -45.0907 H         1 UNK         0.3000 
    155 H155        2.6784  -20.4768  -43.3298 H         1 UNK         0.0600 
    156 H156        4.1985  -17.9395  -44.1136 H         1 UNK         0.0600 
    157 H157        4.8383  -19.5712  -44.0326 H         1 UNK         0.0600 
    158 H158        4.3411  -18.7565  -42.5585 H         1 UNK         0.0600 
    159 H159        1.8334  -17.6186  -43.2087 H         1 UNK         0.3000 
    160 H160       -1.2985  -18.4605  -41.7978 H         1 UNK         0.0600 
    161 H161        1.0907  -17.3986  -40.2173 H         1 UNK         0.0600 
    162 H162       -0.0672  -18.6141  -39.7047 H         1 UNK         0.0600 
    163 H163       -0.5885  -16.9482  -39.9115 H         1 UNK         0.0600 
    164 H164        0.2120  -16.0062  -42.2060 H         1 UNK         0.3000 
    165 H165       -0.0949  -15.5325  -45.3029 H         1 UNK         0.0600 
    166 H166       -2.9481  -14.7563  -44.5162 H         1 UNK         0.0600 
    167 H167       -2.0061  -14.0120  -45.8082 H         1 UNK         0.0600 
    168 H168       -2.4688  -15.6968  -45.9213 H         1 UNK         0.0600 
    169 H169        0.6610  -13.9329  -44.0304 H         1 UNK         0.3000 
    170 H170        0.1350  -11.6779  -42.6608 H         1 UNK         0.0600 
    171 H171       -1.3257  -11.6222  -40.6999 H         1 UNK         0.0600 
    172 H172       -0.4505  -12.9390  -39.9351 H         1 UNK         0.0600 
    173 H173        0.3358  -11.3806  -40.1855 H         1 UNK         0.0600 
    174 H174        2.1714  -12.5434  -42.5848 H         1 UNK         0.3000 
    175 H175        4.0488  -13.7494  -41.0368 H         1 UNK         0.0600 
    176 H176        3.2348  -16.6870  -41.3736 H         1 UNK         0.0600 
    177 H177        4.8711  -16.1082  -41.0737 H         1 UNK         0.0600 
    178 H178        3.6238  -15.8866  -39.8578 H         1 UNK         0.0600 
    179 H179        4.6171  -13.8385  -43.1842 H         1 UNK         0.3000 
    180 H180        5.0464  -15.2379  -45.2666 H         1 UNK         0.0600 
    181 H181        2.3129  -15.5479  -46.6149 H         1 UNK         0.0600 
    182 H182        3.4053  -16.8683  -46.2121 H         1 UNK         0.0600 
    183 H183        3.8771  -15.6812  -47.4145 H         1 UNK         0.0600 
    184 H184        3.2018  -13.3183  -46.4373 H         1 UNK         0.3000 
    185 H185        4.1843  -10.4948  -44.7917 H         1 UNK         0.0600 
    186 H186        5.3747  -11.0410  -47.5629 H         1 UNK         0.0600 
    187 H187        5.1037   -9.4538  -46.8410 H         1 UNK         0.0600 
    188 H188        6.2917  -10.5425  -46.1465 H         1 UNK         0.0600 
    189 H189        2.9478  -10.4903  -47.2551 H         1 UNK         0.3000 
    190 H190       -2.6327  -20.8114  -45.8101 H         1 UNK         0.3000 
    191 H191       -4.4738  -21.8995  -43.7030 H         1 UNK         0.0600 
    192 H192       -2.7753  -20.9730  -42.1044 H         1 UNK         0.0600 
    193 H193       -3.5438  -19.7110  -43.0600 H         1 UNK         0.0600 
    194 H194       -1.9162  -20.2448  -43.4588 H         1 UNK         0.0600 
    195 H195       -1.1148  -22.0019  -45.0180 H         1 UNK         0.3000 
    196 H196       -0.2865  -24.1766  -43.4217 H         1 UNK         0.0600 
    197 H197        0.9192  -23.0448  -46.0015 H         1 UNK         0.0600 
    198 H198        1.2370  -22.4643  -44.3675 H         1 UNK         0.0600 
    199 H199        1.7555  -24.0734  -44.8448 H         1 UNK         0.0600 
    200 H200       -1.8850  -24.1856  -46.5609 H         1 UNK         0.3000 
    201 H201       -1.6522  -27.1674  -46.7099 H         1 UNK         0.0600 
    202 H202       -1.8352  -25.1880  -49.0428 H         1 UNK         0.0600 
    203 H203       -1.7062  -26.9375  -49.1576 H         1 UNK         0.0600 
    204 H204       -0.3569  -26.0022  -48.5374 H         1 UNK         0.0600 
    205 H205       -3.6282  -25.0957  -45.4812 H         1 UNK         0.3000 
    206 H206       -5.7961  -24.7064  -45.2245 H         1 UNK         0.0600 
    207 H207       -5.6690  -27.1093  -44.5250 H         1 UNK         0.0600 
    208 H208       -7.2558  -26.7017  -45.1538 H         1 UNK         0.0600 
    209 H209       -6.1275  -27.6098  -46.1524 H         1 UNK         0.0600 
    210 H210       -4.7693  -23.9410  -47.8027 H         1 UNK         0.3000 
    211 H211       -5.3459  -22.9728  -49.6502 H         1 UNK         0.0600 
    212 H212       -7.6057  -22.2046  -50.1249 H         1 UNK         0.0600 
    213 H213       -7.3601  -22.0827  -48.3910 H         1 UNK         0.0600 
    214 H214       -8.3143  -23.4054  -49.0568 H         1 UNK         0.0600 
    215 H215       -5.2866  -26.1206  -49.3964 H         1 UNK         0.3000 
    216 H216       -6.6373  -26.9978  -51.7933 H         1 UNK         0.0600 
    217 H217       -4.3292  -28.3059  -50.2610 H         1 UNK         0.0600 
    218 H218       -5.3877  -29.0862  -51.4271 H         1 UNK         0.0600 
    219 H219       -6.0402  -28.5244  -49.8945 H         1 UNK         0.0600 
    220 H220       -3.4044  -25.7486  -51.0712 H         1 UNK         0.3000 
    221 H221       -2.4665  -26.1338  -53.8665 H         1 UNK         0.0600 
    222 H222       -1.0052  -26.8849  -51.9835 H         1 UNK         0.0600 
    223 H223       -0.9614  -25.2407  -51.3526 H         1 UNK         0.0600 
    224 H224       -0.2534  -25.6040  -52.9185 H         1 UNK         0.0600 
    225 H225       -4.2528  -23.8107  -52.3226 H         1 UNK         0.3000 
    226 H226       -2.8066  -21.4144  -52.7790 H         1 UNK         0.0600 
    227 H227       -5.7860  -21.9014  -52.3178 H         1 UNK         0.0600 
    228 H228       -4.5591  -21.4629  -51.1191 H         1 UNK         0.0600 
    229 H229       -5.0359  -20.3114  -52.3441 H         1 UNK         0.0600 
    230 H230       -4.3703  -23.3700  -55.0995 H         1 UNK         0.3000 
    231 H231       -5.0348  -21.4478  -57.1020 H         1 UNK         0.0600 
    232 H232       -4.0992  -24.3599  -57.3482 H         1 UNK         0.0600 
    233 H233       -4.8465  -23.4183  -58.6334 H         1 UNK         0.0600 
    234 H234       -5.7713  -23.8184  -57.1950 H         1 UNK         0.0600 
    235 H235       -1.9286  -22.6869  -55.9670 H         1 UNK         0.3000 
    236 H236       -0.3668  -21.8349  -58.2584 H         1 UNK         0.0600 
    237 H237        0.3297  -23.7027  -56.7424 H         1 UNK         0.0600 
    238 H238        1.5414  -22.4316  -56.7995 H         1 UNK         0.0600 
    239 H239        0.4794  -22.5637  -55.4042 H         1 UNK         0.0600 
    240 H240       -1.7986  -20.1297  -55.5939 H         1 UNK         0.3000 
    241 H241        0.2270  -18.0593  -55.3826 H         1 UNK         0.0600 
    242 H242       -2.2780  -16.8573  -58.2980 H         1 UNK         0.3800 
    243 H243       -2.1709  -18.5289  -57.8080 H         1 UNK         0.3800 
    244 H244       -2.5860  -18.0771  -54.1992 H         1 UNK         0.0800 
    245 H245       -1.2980  -16.9852  -53.7832 H         1 UNK         0.0800 
    246 H246        0.6336  -17.5157  -52.1322 H         1 UNK         0.0800 
    247 H247        0.3481  -18.6973  -50.8796 H         1 UNK         0.0800 
@<TRIPOS>BOND
     1    1    2 1    
     2    1  127 1    
     3    1  128 1    
     4    1  129 1    
     5    2    3 2    
     6    2    4 am   BACKBONE|DICT|INTERRES
     7    4    5 1    
     8    4  130 1    
     9    5    6 1    
    10    5   65 1    
    11    5  131 1    
    12    6    7 1    
    13    6  132 1    
    14    6  133 1    
    15    7    8 1    
    16    8    9 1    
    17    8  134 1    
    18    8  135 1    
    19    9   10 ar   
    20    9   14 ar   
    21   10   11 ar   
    22   10  136 1    
    23   11   12 ar   
    24   11  126 1    
    25   12   13 ar   
    26   12  137 1    
    27   13   14 ar   
    28   13   15 1    
    29   14  138 1    
    30   15   16 1    
    31   15  139 1    
    32   15  140 1    
    33   16   17 1    
    34   17   18 1    
    35   17  141 1    
    36   17  142 1    
    37   18   19 1    
    38   18   67 1    
    39   18  143 1    
    40   19   20 am   BACKBONE|DICT|INTERRES
    41   19  144 1    
    42   20   21 2    
    43   20   22 1    
    44   22   23 1    
    45   22   24 1    
    46   22  145 1    
    47   23  146 1    
    48   23  147 1    
    49   23  148 1    
    50   24   25 am   BACKBONE|DICT|INTERRES
    51   24  149 1    
    52   25   26 2    
    53   25   27 1    
    54   27   28 1    
    55   27   29 1    
    56   27  150 1    
    57   28  151 1    
    58   28  152 1    
    59   28  153 1    
    60   29   30 am   BACKBONE|DICT|INTERRES
    61   29  154 1    
    62   30   31 2    
    63   30   32 1    
    64   32   33 1    
    65   32   34 1    
    66   32  155 1    
    67   33  156 1    
    68   33  157 1    
    69   33  158 1    
    70   34   35 am   BACKBONE|DICT|INTERRES
    71   34  159 1    
    72   35   36 2    
    73   35   37 1    
    74   37   38 1    
    75   37   39 1    
    76   37  160 1    
    77   38  161 1    
    78   38  162 1    
    79   38  163 1    
    80   39   40 am   BACKBONE|DICT|INTERRES
    81   39  164 1    
    82   40   41 2    
    83   40   42 1    
    84   42   43 1    
    85   42   44 1    
    86   42  165 1    
    87   43  166 1    
    88   43  167 1    
    89   43  168 1    
    90   44   45 am   BACKBONE|DICT|INTERRES
    91   44  169 1    
    92   45   46 2    
    93   45   47 1    
    94   47   48 1    
    95   47   49 1    
    96   47  170 1    
    97   48  171 1    
    98   48  172 1    
    99   48  173 1    
   100   49   50 am   BACKBONE|DICT|INTERRES
   101   49  174 1    
   102   50   51 2    
   103   50   52 1    
   104   52   53 1    
   105   52   54 1    
   106   52  175 1    
   107   53  176 1    
   108   53  177 1    
   109   53  178 1    
   110   54   55 am   BACKBONE|DICT|INTERRES
   111   54  179 1    
   112   55   56 2    
   113   55   57 1    
   114   57   58 1    
   115   57   59 1    
   116   57  180 1    
   117   58  181 1    
   118   58  182 1    
   119   58  183 1    
   120   59   60 am   BACKBONE|DICT|INTERRES
   121   59  184 1    
   122   60   61 2    
   123   60   62 1    
   124   62   63 1    
   125   62   64 1    
   126   62  185 1    
   127   63  186 1    
   128   63  187 1    
   129   63  188 1    
   130   64   65 am   BACKBONE|DICT|INTERRES
   131   64  189 1    
   132   65   66 2    
   133   67   68 2    
   134   67   69 am   BACKBONE|DICT|INTERRES
   135   69   70 1    
   136   69  190 1    
   137   70   71 1    
   138   70   72 1    
   139   70  191 1    
   140   71  192 1    
   141   71  193 1    
   142   71  194 1    
   143   72   73 2    
   144   72   74 am   BACKBONE|DICT|INTERRES
   145   74   75 1    
   146   74  195 1    
   147   75   76 1    
   148   75   77 1    
   149   75  196 1    
   150   76  197 1    
   151   76  198 1    
   152   76  199 1    
   153   77   78 2    
   154   77   79 am   BACKBONE|DICT|INTERRES
   155   79   80 1    
   156   79  200 1    
   157   80   81 1    
   158   80   82 1    
   159   80  201 1    
   160   81  202 1    
   161   81  203 1    
   162   81  204 1    
   163   82   83 2    
   164   82   84 am   BACKBONE|DICT|INTERRES
   165   84   85 1    
   166   84  205 1    
   167   85   86 1    
   168   85   87 1    
   169   85  206 1    
   170   86  207 1    
   171   86  208 1    
   172   86  209 1    
   173   87   88 2    
   174   87   89 am   BACKBONE|DICT|INTERRES
   175   89   90 1    
   176   89  210 1    
   177   90   91 1    
   178   90   92 1    
   179   90  211 1    
   180   91  212 1    
   181   91  213 1    
   182   91  214 1    
   183   92   93 2    
   184   92   94 am   BACKBONE|DICT|INTERRES
   185   94   95 1    
   186   94  215 1    
   187   95   96 1    
   188   95   97 1    
   189   95  216 1    
   190   96  217 1    
   191   96  218 1    
   192   96  219 1    
   193   97   98 2    
   194   97   99 am   BACKBONE|DICT|INTERRES
   195   99  100 1    
   196   99  220 1    
   197  100  101 1    
   198  100  102 1    
   199  100  221 1    
   200  101  222 1    
   201  101  223 1    
   202  101  224 1    
   203  102  103 2    
   204  102  104 am   BACKBONE|DICT|INTERRES
   205  104  105 1    
   206  104  225 1    
   207  105  106 1    
   208  105  107 1    
   209  105  226 1    
   210  106  227 1    
   211  106  228 1    
   212  106  229 1    
   213  107  108 2    
   214  107  109 am   BACKBONE|DICT|INTERRES
   215  109  110 1    
   216  109  230 1    
   217  110  111 1    
   218  110  112 1    
   219  110  231 1    
   220  111  232 1    
   221  111  233 1    
   222  111  234 1    
   223  112  113 2    
   224  112  114 am   BACKBONE|DICT|INTERRES
   225  114  115 1    
   226  114  235 1    
   227  115  116 1    
   228  115  117 1    
   229  115  236 1    
   230  116  237 1    
   231  116  238 1    
   232  116  239 1    
   233  117  118 2    
   234  117  119 am   BACKBONE|DICT|INTERRES
   235  119  120 1    
   236  119  240 1    
   237  120  121 1    
   238  120  124 1    
   239  120  241 1    
   240  121  122 am   BACKBONE|DICT|INTERRES
   241  121  123 2    
   242  122  242 1    
   243  122  243 1    
   244  124  125 1    
   245  124  244 1    
   246  124  245 1    
   247  125  126 1    
   248  126  246 1    
   249  126  247 1    
@<TRIPOS>SUBSTRUCTURE
     1 UNK         1 GROUP             0       ****    0 ROOT    
