@<TRIPOS>MOLECULE
3R540
247   249    1
SMALL
USER_CHARGES


@<TRIPOS>ATOM
      1 CA          5.9124  -12.4673  -45.9688 C.3       0 UNK        -0.1800 
      2 C           4.4917  -12.4376  -46.5118 C.2       0 UNK         0.5000 
      3 O           3.9399  -11.3567  -46.7206 O.2       0 UNK        -0.5000 
      4 N           3.8920  -13.6182  -46.7218 N.am      1 UNK        -0.5000 
      5 CA          2.5195  -13.8258  -47.2025 C.3       1 UNK         0.1400 
      6 C6          2.3456  -13.5048  -48.7125 C.3       23 UNK        -0.0398 
      7 S7          3.0954  -14.7965  -49.7543 S.3       23 UNK        -0.2404 
      8 C8          1.6432  -15.8711  -49.9607 C.3       23 UNK        -0.0205 
      9 C9          1.9376  -17.0598  -50.8560 C.ar      23 UNK        -0.0193 
     10 C10         1.7318  -16.9630  -52.2345 C.ar      23 UNK        -0.1150 
     11 C11         1.9353  -18.0705  -53.0624 C.ar      23 UNK        -0.0193 
     12 C12         2.3803  -19.2707  -52.5028 C.ar      23 UNK        -0.1150 
     13 C13         2.6103  -19.3723  -51.1278 C.ar      23 UNK        -0.0193 
     14 C14         2.3820  -18.2652  -50.3060 C.ar      23 UNK        -0.1150 
     15 C15         3.0999  -20.6837  -50.5380 C.3       23 UNK        -0.0205 
     16 S16         1.7151  -21.8146  -50.2136 S.3       23 UNK        -0.2404 
     17 C17         1.0266  -21.1237  -48.6709 C.3       23 UNK        -0.0398 
     18 CA          0.3887  -22.2291  -47.7990 C.3       11 UNK         0.1400 
     19 N           0.3851  -21.8951  -46.3733 N.am      11 UNK        -0.5000 
     20 C           0.1353  -22.7892  -45.4054 C.2       10 UNK         0.5000 
     21 O          -0.0863  -23.9810  -45.6176 O.2       10 UNK        -0.5000 
     22 CA          0.0817  -22.2626  -43.9633 C.3       10 UNK         0.1400 
     23 CB          1.4994  -22.1066  -43.3938 C.3       10 UNK        -0.1800 
     24 N          -0.6439  -20.9975  -43.8540 N.am      10 UNK        -0.5000 
     25 C          -1.9465  -20.8423  -44.1308 C.2       9 UNK         0.5000 
     26 O          -2.6841  -21.7634  -44.4805 O.2       9 UNK        -0.5000 
     27 CA         -2.5113  -19.4122  -44.0494 C.3       9 UNK         0.1400 
     28 CB         -2.7792  -19.0113  -42.5916 C.3       9 UNK        -0.1800 
     29 N          -1.6433  -18.4177  -44.6821 N.am      9 UNK        -0.5000 
     30 C          -1.3097  -18.4177  -45.9813 C.2       8 UNK         0.5000 
     31 O          -1.7012  -19.2554  -46.7931 O.2       8 UNK        -0.5000 
     32 CA         -0.3256  -17.3304  -46.4409 C.3       8 UNK         0.1400 
     33 CB         -1.0370  -15.9844  -46.6456 C.3       8 UNK        -0.1800 
     34 N           0.7849  -17.1705  -45.5034 N.am      8 UNK        -0.5000 
     35 C           1.7250  -18.1037  -45.2944 C.2       7 UNK         0.5000 
     36 O           1.7804  -19.1717  -45.9056 O.2       7 UNK        -0.5000 
     37 CA          2.7491  -17.8040  -44.1861 C.3       7 UNK         0.1400 
     38 CB          3.8080  -16.8104  -44.6860 C.3       7 UNK        -0.1800 
     39 N           2.1231  -17.2791  -42.9706 N.am      7 UNK        -0.5000 
     40 C           1.2757  -17.9706  -42.1941 C.2       6 UNK         0.5000 
     41 O           0.9370  -19.1300  -42.4177 O.2       6 UNK        -0.5000 
     42 CA          0.6739  -17.2368  -40.9832 C.3       6 UNK         0.1400 
     43 CB          1.5903  -17.3774  -39.7593 C.3       6 UNK        -0.1800 
     44 N           0.4224  -15.8195  -41.2334 N.am      6 UNK        -0.5000 
     45 C          -0.3979  -15.3197  -42.1653 C.2       5 UNK         0.5000 
     46 O          -1.0513  -16.0139  -42.9463 O.2       5 UNK        -0.5000 
     47 CA         -0.4492  -13.7864  -42.2783 C.3       5 UNK         0.1400 
     48 CB         -1.2780  -13.1521  -41.1464 C.3       5 UNK        -0.1800 
     49 N           0.8820  -13.1808  -42.3956 N.am      5 UNK        -0.5000 
     50 C           1.8701  -13.0796  -41.4939 C.2       4 UNK         0.5000 
     51 O           1.7839  -13.4678  -40.3286 O.2       4 UNK        -0.5000 
     52 CA          3.1952  -12.4798  -41.9976 C.3       4 UNK         0.1400 
     53 CB          4.0997  -13.5844  -42.5651 C.3       4 UNK        -0.1800 
     54 N           2.9750  -11.4715  -43.0333 N.am      4 UNK        -0.5000 
     55 C           2.6953  -10.1840  -42.7905 C.2       3 UNK         0.5000 
     56 O           2.6837   -9.6829  -41.6657 O.2       3 UNK        -0.5000 
     57 CA          2.3505   -9.3154  -44.0143 C.3       3 UNK         0.1400 
     58 CB          3.6203   -8.6899  -44.6113 C.3       3 UNK        -0.1800 
     59 N           1.6410  -10.0772  -45.0458 N.am      3 UNK        -0.5000 
     60 C           0.3579  -10.4569  -44.9376 C.2       2 UNK         0.5000 
     61 O          -0.3637  -10.1493  -43.9889 O.2       2 UNK        -0.5000 
     62 CA         -0.2241  -11.3418  -46.0570 C.3       2 UNK         0.1400 
     63 CB         -1.0270  -10.4914  -47.0528 C.3       2 UNK        -0.1800 
     64 N           0.7819  -12.1090  -46.7924 N.am      2 UNK        -0.5000 
     65 C           1.5067  -13.1133  -46.2811 C.2       1 UNK         0.5000 
     66 O           1.4180  -13.4840  -45.1109 O.2       1 UNK        -0.5000 
     67 C          -1.0164  -22.6256  -48.2983 C.2       11 UNK         0.5000 
     68 O          -1.1429  -23.6185  -49.0133 O.2       11 UNK        -0.5000 
     69 N          -2.0529  -21.8918  -47.8671 N.am      12 UNK        -0.5000 
     70 CA         -3.4539  -22.1988  -48.1567 C.3       12 UNK         0.1400 
     71 CB         -4.3499  -21.0565  -47.6590 C.3       12 UNK        -0.1800 
     72 C          -3.9078  -23.5509  -47.5766 C.2       12 UNK         0.5000 
     73 O          -4.6223  -24.2902  -48.2553 O.2       12 UNK        -0.5000 
     74 N          -3.4553  -23.8672  -46.3554 N.am      13 UNK        -0.5000 
     75 CA         -3.6712  -25.1567  -45.7009 C.3       13 UNK         0.1400 
     76 CB         -3.2404  -25.0730  -44.2290 C.3       13 UNK        -0.1800 
     77 C          -2.9509  -26.3094  -46.4239 C.2       13 UNK         0.5000 
     78 O          -3.5612  -27.3561  -46.6404 O.2       13 UNK        -0.5000 
     79 N          -1.6891  -26.0879  -46.8214 N.am      14 UNK        -0.5000 
     80 CA         -0.8727  -27.0387  -47.5828 C.3       14 UNK         0.1400 
     81 CB          0.5742  -26.5289  -47.6621 C.3       14 UNK        -0.1800 
     82 C          -1.4295  -27.3204  -48.9916 C.2       14 UNK         0.5000 
     83 O          -1.3994  -28.4671  -49.4395 O.2       14 UNK        -0.5000 
     84 N          -1.9609  -26.2793  -49.6467 N.am      15 UNK        -0.5000 
     85 CA         -2.6612  -26.3582  -50.9308 C.3       15 UNK         0.1400 
     86 CB         -2.8055  -24.9391  -51.5054 C.3       15 UNK        -0.1800 
     87 C          -4.0454  -27.0324  -50.8362 C.2       15 UNK         0.5000 
     88 O          -4.5829  -27.4370  -51.8678 O.2       15 UNK        -0.5000 
     89 N          -4.5920  -27.1289  -49.6137 N.am      16 UNK        -0.5000 
     90 CA         -5.9382  -27.5905  -49.2660 C.3       16 UNK         0.1400 
     91 CB         -6.1146  -29.0891  -49.5877 C.3       16 UNK        -0.1800 
     92 C          -7.0170  -26.6896  -49.8988 C.2       16 UNK         0.5000 
     93 O          -7.9441  -27.1833  -50.5442 O.2       16 UNK        -0.5000 
     94 N          -6.8424  -25.3728  -49.7124 N.am      17 UNK        -0.5000 
     95 CA         -7.5902  -24.2823  -50.3366 C.3       17 UNK         0.1400 
     96 CB         -9.0714  -24.2821  -49.8947 C.3       17 UNK        -0.1800 
     97 C          -7.3640  -24.2718  -51.8621 C.2       17 UNK         0.5000 
     98 O          -6.2087  -24.1903  -52.2847 O.2       17 UNK        -0.5000 
     99 N          -8.4454  -24.3271  -52.6544 N.am      18 UNK        -0.5000 
    100 CA        -8.4725  -24.2258  -54.1174 C.3       18 UNK         0.1400 
    101 CB        -7.7834  -25.4454  -54.7720 C.3       18 UNK        -0.1800 
    102 C         -7.9203  -22.8603  -54.5740 C.2       18 UNK         0.5000 
    103 O         -8.5859  -21.8468  -54.3548 O.2       18 UNK        -0.5000 
    104 N         -6.7145  -22.8433  -55.1586 N.am      19 UNK        -0.5000 
    105 CA        -5.9740  -21.6240  -55.4943 C.3       19 UNK         0.1400 
    106 CB        -4.7972  -21.9858  -56.4133 C.3       19 UNK        -0.1800 
    107 C         -5.4705  -20.8641  -54.2496 C.2       19 UNK         0.5000 
    108 O         -5.3196  -19.6439  -54.3119 O.2       19 UNK        -0.5000 
    109 N         -5.2431  -21.5967  -53.1478 N.am      20 UNK        -0.5000 
    110 CA        -4.7999  -21.1264  -51.8355 C.3       20 UNK         0.1400 
    111 CB        -5.9613  -20.3931  -51.1262 C.3       20 UNK        -0.1800 
    112 C         -3.4832  -20.3217  -51.9143 C.2       20 UNK         0.5000 
    113 O         -2.5231  -20.7962  -52.5229 O.2       20 UNK        -0.5000 
    114 N         -3.4678  -19.1277  -51.3152 N.am      21 UNK        -0.5000 
    115 CA        -2.4066  -18.1349  -51.4152 C.3       21 UNK         0.1400 
    116 CB        -1.7945  -17.9229  -50.0187 C.3       21 UNK        -0.1800 
    117 C         -3.0709  -16.8560  -51.9636 C.2       21 UNK         0.5000 
    118 O         -3.6295  -16.0932  -51.1758 O.2       21 UNK        -0.5000 
    119 N         -3.1012  -16.6256  -53.2817 N.am      22 UNK        -0.5000 
    120 CA        -2.5048  -17.4197  -54.3641 C.3       22 UNK         0.1400 
    121 C         -3.2904  -17.2321  -55.6917 C.2       22 UNK         0.5000 
    122 N         -3.0111  -18.0425  -56.7032 N.am      22 UNK        -0.7600 
    123 O         -4.1312  -16.3442  -55.8262 O.2       22 UNK        -0.5000 
    124 C124       -0.9940  -17.0947  -54.5285 C.3       23 UNK        -0.0398 
    125 S125        0.0042  -18.5450  -55.0003 S.3       23 UNK        -0.2404 
    126 C126        1.6790  -17.9773  -54.5595 C.3       23 UNK        -0.0205 
    127 H127        5.9679  -11.9036  -45.0375 H         1 UNK         0.0600 
    128 H128        6.5966  -12.0129  -46.6852 H         1 UNK         0.0600 
    129 H129        6.2501  -13.4848  -45.7706 H         1 UNK         0.0600 
    130 H130        4.4094  -14.4635  -46.5296 H         1 UNK         0.3000 
    131 H131        2.3099  -14.8875  -47.0629 H         1 UNK         0.0600 
    132 H132        2.7971  -12.5443  -48.9654 H         1 UNK         0.0800 
    133 H133        1.2938  -13.4282  -48.9925 H         1 UNK         0.0800 
    134 H134        0.8176  -15.2947  -50.3814 H         1 UNK         0.0800 
    135 H135        1.3088  -16.2188  -48.9828 H         1 UNK         0.0800 
    136 H136        1.3994  -16.0263  -52.6590 H         1 UNK         0.1150 
    137 H137        2.5406  -20.1308  -53.1378 H         1 UNK         0.1150 
    138 H138        2.5445  -18.3425  -49.2399 H         1 UNK         0.1150 
    139 H139        3.7865  -21.1629  -51.2375 H         1 UNK         0.0800 
    140 H140        3.6717  -20.5115  -49.6249 H         1 UNK         0.0800 
    141 H141        0.3206  -20.3249  -48.9003 H         1 UNK         0.0800 
    142 H142        1.8439  -20.6544  -48.1227 H         1 UNK         0.0800 
    143 H143        1.0167  -23.1186  -47.8884 H         1 UNK         0.0600 
    144 H144        0.5799  -20.9322  -46.1230 H         1 UNK         0.3000 
    145 H145       -0.4466  -23.0032  -43.3594 H         1 UNK         0.0600 
    146 H146        1.4712  -21.8403  -42.3371 H         1 UNK         0.0600 
    147 H147        2.0607  -23.0381  -43.4783 H         1 UNK         0.0600 
    148 H148        2.0616  -21.3335  -43.9192 H         1 UNK         0.0600 
    149 H149       -0.1087  -20.1997  -43.5192 H         1 UNK         0.3000 
    150 H150       -3.4638  -19.4024  -44.5832 H         1 UNK         0.0600 
    151 H151       -3.4708  -19.7083  -42.1167 H         1 UNK         0.0600 
    152 H152       -3.2235  -18.0177  -42.5300 H         1 UNK         0.0600 
    153 H153       -1.8632  -19.0056  -42.0016 H         1 UNK         0.0600 
    154 H154       -1.2923  -17.6743  -44.0866 H         1 UNK         0.3000 
    155 H155        0.0821  -17.6472  -47.4032 H         1 UNK         0.0600 
    156 H156       -1.3857  -15.5619  -45.7025 H         1 UNK         0.0600 
    157 H157       -1.9051  -16.0959  -47.2965 H         1 UNK         0.0600 
    158 H158       -0.3762  -15.2578  -47.1158 H         1 UNK         0.0600 
    159 H159        0.7788  -16.3445  -44.9224 H         1 UNK         0.3000 
    160 H160        3.2496  -18.7407  -43.9317 H         1 UNK         0.0600 
    161 H161        3.3636  -15.8488  -44.9403 H         1 UNK         0.0600 
    162 H162        4.3078  -17.1887  -45.5788 H         1 UNK         0.0600 
    163 H163        4.5761  -16.6379  -43.9319 H         1 UNK         0.0600 
    164 H164        2.3385  -16.3277  -42.7151 H         1 UNK         0.3000 
    165 H165       -0.2828  -17.7070  -40.7500 H         1 UNK         0.0600 
    166 H166        1.1347  -16.9350  -38.8732 H         1 UNK         0.0600 
    167 H167        1.7845  -18.4271  -39.5345 H         1 UNK         0.0600 
    168 H168        2.5534  -16.8907  -39.9192 H         1 UNK         0.0600 
    169 H169        0.9318  -15.1518  -40.6612 H         1 UNK         0.3000 
    170 H170       -0.9554  -13.5595  -43.2181 H         1 UNK         0.0600 
    171 H171       -2.2976  -13.5392  -41.1508 H         1 UNK         0.0600 
    172 H172       -0.8580  -13.3573  -40.1616 H         1 UNK         0.0600 
    173 H173       -1.3398  -12.0703  -41.2662 H         1 UNK         0.0600 
    174 H174        1.1243  -12.9460  -43.3538 H         1 UNK         0.3000 
    175 H175        3.7049  -12.0253  -41.1453 H         1 UNK         0.0600 
    176 H176        3.6608  -14.0454  -43.4493 H         1 UNK         0.0600 
    177 H177        5.0754  -13.1875  -42.8457 H         1 UNK         0.0600 
    178 H178        4.2688  -14.3720  -41.8296 H         1 UNK         0.0600 
    179 H179        2.9387  -11.7970  -43.9881 H         1 UNK         0.3000 
    180 H180        1.7029   -8.5031  -43.6771 H         1 UNK         0.0600 
    181 H181        4.3412   -9.4478  -44.9180 H         1 UNK         0.0600 
    182 H182        4.1151   -8.0475  -43.8819 H         1 UNK         0.0600 
    183 H183        3.3876   -8.0752  -45.4810 H         1 UNK         0.0600 
    184 H184        2.1867  -10.3852  -45.8427 H         1 UNK         0.3000 
    185 H185       -0.9083  -12.0515  -45.5867 H         1 UNK         0.0600 
    186 H186       -1.8095   -9.9272  -46.5434 H         1 UNK         0.0600 
    187 H187       -0.3913   -9.7740  -47.5734 H         1 UNK         0.0600 
    188 H188       -1.5147  -11.1155  -47.8019 H         1 UNK         0.0600 
    189 H189        0.9421  -11.8245  -47.7473 H         1 UNK         0.3000 
    190 H190       -1.8764  -21.0606  -47.3076 H         1 UNK         0.3000 
    191 H191       -3.5529  -22.2616  -49.2400 H         1 UNK         0.0600 
    192 H192       -4.2627  -20.9176  -46.5813 H         1 UNK         0.0600 
    193 H193       -5.3989  -21.2565  -47.8803 H         1 UNK         0.0600 
    194 H194       -4.0864  -20.1131  -48.1379 H         1 UNK         0.0600 
    195 H195       -2.9287  -23.1729  -45.8333 H         1 UNK         0.3000 
    196 H196       -4.7424  -25.3677  -45.7258 H         1 UNK         0.0600 
    197 H197       -3.4152  -26.0198  -43.7165 H         1 UNK         0.0600 
    198 H198       -3.8043  -24.3062  -43.6975 H         1 UNK         0.0600 
    199 H199       -2.1812  -24.8362  -44.1294 H         1 UNK         0.0600 
    200 H200       -1.2400  -25.2142  -46.5603 H         1 UNK         0.3000 
    201 H201       -0.8684  -27.9833  -47.0351 H         1 UNK         0.0600 
    202 H202        1.0008  -26.3967  -46.6677 H         1 UNK         0.0600 
    203 H203        0.6363  -25.5731  -48.1827 H         1 UNK         0.0600 
    204 H204        1.2089  -27.2362  -48.1973 H         1 UNK         0.0600 
    205 H205       -1.8610  -25.3500  -49.2447 H         1 UNK         0.3000 
    206 H206       -2.0521  -26.9480  -51.6187 H         1 UNK         0.0600 
    207 H207       -1.8337  -24.4641  -51.6409 H         1 UNK         0.0600 
    208 H208       -3.2982  -24.9564  -52.4785 H         1 UNK         0.0600 
    209 H209       -3.4016  -24.3025  -50.8509 H         1 UNK         0.0600 
    210 H210       -4.0539  -26.7632  -48.8393 H         1 UNK         0.3000 
    211 H211       -6.0330  -27.4729  -48.1856 H         1 UNK         0.0600 
    212 H212       -6.0832  -29.2845  -50.6598 H         1 UNK         0.0600 
    213 H213       -7.0733  -29.4548  -49.2183 H         1 UNK         0.0600 
    214 H214       -5.3350  -29.6863  -49.1147 H         1 UNK         0.0600 
    215 H215       -6.0172  -25.0762  -49.1941 H         1 UNK         0.3000 
    216 H216       -7.1404  -23.3616  -49.9622 H         1 UNK         0.0600 
    217 H217       -9.5904  -23.3969  -50.2642 H         1 UNK         0.0600 
    218 H218       -9.1504  -24.2656  -48.8077 H         1 UNK         0.0600 
    219 H219       -9.6140  -25.1585  -50.2497 H         1 UNK         0.0600 
    220 H220       -9.3502  -24.3774  -52.2084 H         1 UNK         0.3000 
    221 H221       -9.5225  -24.2464  -54.4128 H         1 UNK         0.0600 
    222 H222       -6.7315  -25.5330  -54.4992 H         1 UNK         0.0600 
    223 H223       -8.2741  -26.3715  -54.4724 H         1 UNK         0.0600 
    224 H224       -7.8410  -25.3900  -55.8598 H         1 UNK         0.0600 
    225 H225       -6.2294  -23.7200  -55.2833 H         1 UNK         0.3000 
    226 H226       -6.6424  -20.9562  -56.0419 H         1 UNK         0.0600 
    227 H227       -5.1438  -22.4635  -57.3298 H         1 UNK         0.0600 
    228 H228       -4.2411  -21.0930  -56.7029 H         1 UNK         0.0600 
    229 H229       -4.0972  -22.6635  -55.9230 H         1 UNK         0.0600 
    230 H230       -5.4245  -22.5944  -53.1941 H         1 UNK         0.3000 
    231 H231       -4.5758  -22.0255  -51.2622 H         1 UNK         0.0600 
    232 H232       -5.7034  -20.1275  -50.1014 H         1 UNK         0.0600 
    233 H233       -6.8465  -21.0272  -51.0758 H         1 UNK         0.0600 
    234 H234       -6.2458  -19.4786  -51.6483 H         1 UNK         0.0600 
    235 H235       -4.3179  -18.8000  -50.8782 H         1 UNK         0.3000 
    236 H236       -1.6040  -18.4622  -52.0775 H         1 UNK         0.0600 
    237 H237       -2.5451  -17.6412  -49.2793 H         1 UNK         0.0600 
    238 H238       -1.3121  -18.8329  -49.6647 H         1 UNK         0.0600 
    239 H239       -1.0386  -17.1383  -50.0389 H         1 UNK         0.0600 
    240 H240       -3.6297  -15.8341  -53.6233 H         1 UNK         0.3000 
    241 H241       -2.6347  -18.4715  -54.1075 H         1 UNK         0.0600 
    242 H242       -3.5043  -17.9287  -57.5748 H         1 UNK         0.3800 
    243 H243       -2.3020  -18.7550  -56.6210 H         1 UNK         0.3800 
    244 H244       -0.8297  -16.2933  -55.2513 H         1 UNK         0.0800 
    245 H245       -0.5969  -16.7160  -53.5892 H         1 UNK         0.0800 
    246 H246        1.8287  -16.9558  -54.9129 H         1 UNK         0.0800 
    247 H247        2.4077  -18.5905  -55.0919 H         1 UNK         0.0800 
@<TRIPOS>BOND
     1    1    2 1    
     2    1  127 1    
     3    1  128 1    
     4    1  129 1    
     5    2    3 2    
     6    2    4 am   BACKBONE|DICT|INTERRES
     7    4    5 1    
     8    4  130 1    
     9    5    6 1    
    10    5   65 1    
    11    5  131 1    
    12    6    7 1    
    13    6  132 1    
    14    6  133 1    
    15    7    8 1    
    16    8    9 1    
    17    8  134 1    
    18    8  135 1    
    19    9   10 ar   
    20    9   14 ar   
    21   10   11 ar   
    22   10  136 1    
    23   11   12 ar   
    24   11  126 1    
    25   12   13 ar   
    26   12  137 1    
    27   13   14 ar   
    28   13   15 1    
    29   14  138 1    
    30   15   16 1    
    31   15  139 1    
    32   15  140 1    
    33   16   17 1    
    34   17   18 1    
    35   17  141 1    
    36   17  142 1    
    37   18   19 1    
    38   18   67 1    
    39   18  143 1    
    40   19   20 am   BACKBONE|DICT|INTERRES
    41   19  144 1    
    42   20   21 2    
    43   20   22 1    
    44   22   23 1    
    45   22   24 1    
    46   22  145 1    
    47   23  146 1    
    48   23  147 1    
    49   23  148 1    
    50   24   25 am   BACKBONE|DICT|INTERRES
    51   24  149 1    
    52   25   26 2    
    53   25   27 1    
    54   27   28 1    
    55   27   29 1    
    56   27  150 1    
    57   28  151 1    
    58   28  152 1    
    59   28  153 1    
    60   29   30 am   BACKBONE|DICT|INTERRES
    61   29  154 1    
    62   30   31 2    
    63   30   32 1    
    64   32   33 1    
    65   32   34 1    
    66   32  155 1    
    67   33  156 1    
    68   33  157 1    
    69   33  158 1    
    70   34   35 am   BACKBONE|DICT|INTERRES
    71   34  159 1    
    72   35   36 2    
    73   35   37 1    
    74   37   38 1    
    75   37   39 1    
    76   37  160 1    
    77   38  161 1    
    78   38  162 1    
    79   38  163 1    
    80   39   40 am   BACKBONE|DICT|INTERRES
    81   39  164 1    
    82   40   41 2    
    83   40   42 1    
    84   42   43 1    
    85   42   44 1    
    86   42  165 1    
    87   43  166 1    
    88   43  167 1    
    89   43  168 1    
    90   44   45 am   BACKBONE|DICT|INTERRES
    91   44  169 1    
    92   45   46 2    
    93   45   47 1    
    94   47   48 1    
    95   47   49 1    
    96   47  170 1    
    97   48  171 1    
    98   48  172 1    
    99   48  173 1    
   100   49   50 am   BACKBONE|DICT|INTERRES
   101   49  174 1    
   102   50   51 2    
   103   50   52 1    
   104   52   53 1    
   105   52   54 1    
   106   52  175 1    
   107   53  176 1    
   108   53  177 1    
   109   53  178 1    
   110   54   55 am   BACKBONE|DICT|INTERRES
   111   54  179 1    
   112   55   56 2    
   113   55   57 1    
   114   57   58 1    
   115   57   59 1    
   116   57  180 1    
   117   58  181 1    
   118   58  182 1    
   119   58  183 1    
   120   59   60 am   BACKBONE|DICT|INTERRES
   121   59  184 1    
   122   60   61 2    
   123   60   62 1    
   124   62   63 1    
   125   62   64 1    
   126   62  185 1    
   127   63  186 1    
   128   63  187 1    
   129   63  188 1    
   130   64   65 am   BACKBONE|DICT|INTERRES
   131   64  189 1    
   132   65   66 2    
   133   67   68 2    
   134   67   69 am   BACKBONE|DICT|INTERRES
   135   69   70 1    
   136   69  190 1    
   137   70   71 1    
   138   70   72 1    
   139   70  191 1    
   140   71  192 1    
   141   71  193 1    
   142   71  194 1    
   143   72   73 2    
   144   72   74 am   BACKBONE|DICT|INTERRES
   145   74   75 1    
   146   74  195 1    
   147   75   76 1    
   148   75   77 1    
   149   75  196 1    
   150   76  197 1    
   151   76  198 1    
   152   76  199 1    
   153   77   78 2    
   154   77   79 am   BACKBONE|DICT|INTERRES
   155   79   80 1    
   156   79  200 1    
   157   80   81 1    
   158   80   82 1    
   159   80  201 1    
   160   81  202 1    
   161   81  203 1    
   162   81  204 1    
   163   82   83 2    
   164   82   84 am   BACKBONE|DICT|INTERRES
   165   84   85 1    
   166   84  205 1    
   167   85   86 1    
   168   85   87 1    
   169   85  206 1    
   170   86  207 1    
   171   86  208 1    
   172   86  209 1    
   173   87   88 2    
   174   87   89 am   BACKBONE|DICT|INTERRES
   175   89   90 1    
   176   89  210 1    
   177   90   91 1    
   178   90   92 1    
   179   90  211 1    
   180   91  212 1    
   181   91  213 1    
   182   91  214 1    
   183   92   93 2    
   184   92   94 am   BACKBONE|DICT|INTERRES
   185   94   95 1    
   186   94  215 1    
   187   95   96 1    
   188   95   97 1    
   189   95  216 1    
   190   96  217 1    
   191   96  218 1    
   192   96  219 1    
   193   97   98 2    
   194   97   99 am   BACKBONE|DICT|INTERRES
   195   99  100 1    
   196   99  220 1    
   197  100  101 1    
   198  100  102 1    
   199  100  221 1    
   200  101  222 1    
   201  101  223 1    
   202  101  224 1    
   203  102  103 2    
   204  102  104 am   BACKBONE|DICT|INTERRES
   205  104  105 1    
   206  104  225 1    
   207  105  106 1    
   208  105  107 1    
   209  105  226 1    
   210  106  227 1    
   211  106  228 1    
   212  106  229 1    
   213  107  108 2    
   214  107  109 am   BACKBONE|DICT|INTERRES
   215  109  110 1    
   216  109  230 1    
   217  110  111 1    
   218  110  112 1    
   219  110  231 1    
   220  111  232 1    
   221  111  233 1    
   222  111  234 1    
   223  112  113 2    
   224  112  114 am   BACKBONE|DICT|INTERRES
   225  114  115 1    
   226  114  235 1    
   227  115  116 1    
   228  115  117 1    
   229  115  236 1    
   230  116  237 1    
   231  116  238 1    
   232  116  239 1    
   233  117  118 2    
   234  117  119 am   BACKBONE|DICT|INTERRES
   235  119  120 1    
   236  119  240 1    
   237  120  121 1    
   238  120  124 1    
   239  120  241 1    
   240  121  122 am   BACKBONE|DICT|INTERRES
   241  121  123 2    
   242  122  242 1    
   243  122  243 1    
   244  124  125 1    
   245  124  244 1    
   246  124  245 1    
   247  125  126 1    
   248  126  246 1    
   249  126  247 1    
@<TRIPOS>SUBSTRUCTURE
     1 UNK         1 GROUP             0       ****    0 ROOT    
