@<TRIPOS>MOLECULE
3R540
247   249    1
SMALL
USER_CHARGES


@<TRIPOS>ATOM
      1 CA          8.0280  -11.4999  -45.0983 C.3       0 UNK        -0.1800 
      2 C           6.5648  -11.8379  -45.3385 C.2       0 UNK         0.5000 
      3 O           5.6904  -11.0222  -45.0472 O.2       0 UNK        -0.5000 
      4 N           6.2888  -13.0262  -45.8905 N.am      1 UNK        -0.5000 
      5 CA          4.9435  -13.5527  -46.1672 C.3       1 UNK         0.1400 
      6 C6          4.9665  -15.0626  -46.4970 C.3       23 UNK        -0.0398 
      7 S7          6.0992  -15.5414  -47.8550 S.3       23 UNK        -0.2404 
      8 C8          5.0217  -15.5444  -49.3304 C.3       23 UNK        -0.0205 
      9 C9          3.7238  -16.3133  -49.1244 C.ar      23 UNK        -0.0193 
     10 C10         2.4966  -15.6580  -49.2594 C.ar      23 UNK        -0.1150 
     11 C11         1.3006  -16.3391  -49.0255 C.ar      23 UNK        -0.0193 
     12 C12         1.3393  -17.6824  -48.6448 C.ar      23 UNK        -0.1150 
     13 C13         2.5570  -18.3549  -48.5136 C.ar      23 UNK        -0.0193 
     14 C14         3.7465  -17.6659  -48.7688 C.ar      23 UNK        -0.1150 
     15 C15         2.5980  -19.8077  -48.0573 C.3       23 UNK        -0.0205 
     16 S16         2.0647  -20.9642  -49.3555 S.3       23 UNK        -0.2404 
     17 C17         0.2853  -21.1826  -49.0029 C.3       23 UNK        -0.0398 
     18 CA          0.0182  -22.4502  -48.1495 C.3       11 UNK         0.1400 
     19 N          -0.0734  -22.1603  -46.7141 N.am      11 UNK        -0.5000 
     20 C          -0.0904  -23.1017  -45.7588 C.2       10 UNK         0.5000 
     21 O           0.0034  -24.3083  -45.9839 O.2       10 UNK        -0.5000 
     22 CA         -0.2947  -22.6189  -44.3146 C.3       10 UNK         0.1400 
     23 CB          1.0133  -22.0697  -43.7244 C.3       10 UNK        -0.1800 
     24 N          -1.3448  -21.6057  -44.2250 N.am      10 UNK        -0.5000 
     25 C          -2.6529  -21.8604  -44.3687 C.2       9 UNK         0.5000 
     26 O          -3.1117  -22.9823  -44.5839 O.2       9 UNK        -0.5000 
     27 CA         -3.6057  -20.6519  -44.2953 C.3       9 UNK         0.1400 
     28 CB         -3.9265  -20.3007  -42.8351 C.3       9 UNK        -0.1800 
     29 N          -3.0788  -19.4666  -44.9724 N.am      9 UNK        -0.5000 
     30 C          -2.8373  -19.4016  -46.2892 C.2       8 UNK         0.5000 
     31 O          -3.0417  -20.3307  -47.0661 O.2       8 UNK        -0.5000 
     32 CA         -2.2059  -18.1063  -46.8270 C.3       8 UNK         0.1400 
     33 CB         -3.3044  -17.0743  -47.1175 C.3       8 UNK        -0.1800 
     34 N          -1.2017  -17.5166  -45.9389 N.am      8 UNK        -0.5000 
     35 C          -0.1595  -18.1627  -45.3892 C.2       7 UNK         0.5000 
     36 O           0.1099  -19.3386  -45.6357 O.2       7 UNK        -0.5000 
     37 CA          0.7059  -17.3977  -44.3643 C.3       7 UNK         0.1400 
     38 CB          2.0153  -16.9396  -45.0229 C.3       7 UNK        -0.1800 
     39 N           0.0483  -16.2310  -43.7706 N.am      7 UNK        -0.5000 
     40 C          -1.1244  -16.2271  -43.1160 C.2       6 UNK         0.5000 
     41 O          -1.7343  -17.2512  -42.8041 O.2       6 UNK        -0.5000 
     42 CA         -1.7620  -14.8493  -42.8289 C.3       6 UNK         0.1400 
     43 CB         -1.5588  -14.4614  -41.3568 C.3       6 UNK        -0.1800 
     44 N          -1.2564  -13.7639  -43.6779 N.am      6 UNK        -0.5000 
     45 C          -1.2639  -13.7325  -45.0198 C.2       5 UNK         0.5000 
     46 O          -1.8062  -14.5921  -45.7134 O.2       5 UNK        -0.5000 
     47 CA         -0.4849  -12.5938  -45.7093 C.3       5 UNK         0.1400 
     48 CB         -1.4509  -11.5955  -46.3638 C.3       5 UNK        -0.1800 
     49 N           0.4388  -11.8581  -44.8396 N.am      5 UNK        -0.5000 
     50 C           1.4991  -12.3626  -44.1942 C.2       4 UNK         0.5000 
     51 O           1.7931  -13.5601  -44.1908 O.2       4 UNK        -0.5000 
     52 CA          2.3624  -11.3383  -43.4313 C.3       4 UNK         0.1400 
     53 CB          3.4336  -11.9976  -42.5444 C.3       4 UNK        -0.1800 
     54 N           3.0118  -10.4098  -44.3559 N.am      4 UNK        -0.5000 
     55 C           2.4309   -9.3484  -44.9329 C.2       3 UNK         0.5000 
     56 O           1.2646   -9.0127  -44.7210 O.2       3 UNK        -0.5000 
     57 CA          3.2815   -8.5592  -45.9404 C.3       3 UNK         0.1400 
     58 CB          4.3502   -7.7213  -45.2205 C.3       3 UNK        -0.1800 
     59 N           3.9286   -9.4737  -46.8790 N.am      3 UNK        -0.5000 
     60 C           3.4483   -9.7936  -48.0894 C.2       2 UNK         0.5000 
     61 O           2.4556   -9.2680  -48.5938 O.2       2 UNK        -0.5000 
     62 CA          4.1926  -10.9001  -48.8668 C.3       2 UNK         0.1400 
     63 CB          5.2687  -10.2919  -49.7785 C.3       2 UNK        -0.1800 
     64 N           4.8161  -11.8870  -47.9847 N.am      2 UNK        -0.5000 
     65 C           4.1373  -12.7442  -47.2093 C.2       1 UNK         0.5000 
     66 O           2.9164  -12.8843  -47.2708 O.2       1 UNK        -0.5000 
     67 C          -1.2121  -23.2317  -48.6529 C.2       11 UNK         0.5000 
     68 O          -1.0390  -24.2005  -49.3913 O.2       11 UNK        -0.5000 
     69 N          -2.4189  -22.8427  -48.2155 N.am      12 UNK        -0.5000 
     70 CA         -3.6679  -23.5318  -48.5413 C.3       12 UNK         0.1400 
     71 CB         -4.8676  -22.7172  -48.0382 C.3       12 UNK        -0.1800 
     72 C          -3.7167  -24.9638  -47.9863 C.2       12 UNK         0.5000 
     73 O          -4.1370  -25.8702  -48.7033 O.2       12 UNK        -0.5000 
     74 N          -3.2522  -25.1527  -46.7427 N.am      13 UNK        -0.5000 
     75 CA         -3.1380  -26.4630  -46.1004 C.3       13 UNK         0.1400 
     76 CB         -2.7829  -26.2831  -44.6169 C.3       13 UNK        -0.1800 
     77 C          -2.1201  -27.3848  -46.7979 C.2       13 UNK         0.5000 
     78 O          -2.3886  -28.5773  -46.9469 O.2       13 UNK        -0.5000 
     79 N          -0.9832  -26.8167  -47.2231 N.am      14 UNK        -0.5000 
     80 CA          0.0720  -27.5210  -47.9500 C.3       14 UNK         0.1400 
     81 CB          1.3428  -26.6573  -47.9726 C.3       14 UNK        -0.1800 
     82 C          -0.3478  -27.9136  -49.3783 C.2       14 UNK         0.5000 
     83 O          -0.1149  -29.0521  -49.7871 O.2       14 UNK        -0.5000 
     84 N          -0.9487  -26.9675  -50.1123 N.am      15 UNK        -0.5000 
     85 CA         -1.3789  -27.1490  -51.4990 C.3       15 UNK         0.1400 
     86 CB         -1.6023  -25.7720  -52.1383 C.3       15 UNK        -0.1800 
     87 C          -2.6513  -28.0014  -51.6369 C.2       15 UNK         0.5000 
     88 O          -2.7969  -28.7056  -52.6371 O.2       15 UNK        -0.5000 
     89 N          -3.5604  -27.8926  -50.6577 N.am      16 UNK        -0.5000 
     90 CA         -4.8833  -28.5183  -50.5413 C.3       16 UNK         0.1400 
     91 CB         -4.7891  -30.0559  -50.5405 C.3       16 UNK        -0.1800 
     92 C          -5.9114  -28.0131  -51.5732 C.2       16 UNK         0.5000 
     93 O          -7.0222  -27.6445  -51.1904 O.2       16 UNK        -0.5000 
     94 N          -5.5316  -28.0002  -52.8564 N.am      17 UNK        -0.5000 
     95 CA         -6.3623  -27.5614  -53.9779 C.3       17 UNK         0.1400 
     96 CB         -5.7592  -28.0966  -55.2853 C.3       17 UNK        -0.1800 
     97 C          -6.5235  -26.0319  -54.0465 C.2       17 UNK         0.5000 
     98 O          -7.5800  -25.5507  -54.4593 O.2       17 UNK        -0.5000 
     99 N          -5.4846  -25.2909  -53.6368 N.am      18 UNK        -0.5000 
    100 CA        -5.4570  -23.8280  -53.6139 C.3       18 UNK         0.1400 
    101 CB        -4.0036  -23.3426  -53.7602 C.3       18 UNK        -0.1800 
    102 C         -6.1326  -23.2942  -52.3378 C.2       18 UNK         0.5000 
    103 O         -5.4595  -22.7554  -51.4574 O.2       18 UNK        -0.5000 
    104 N         -7.4556  -23.4822  -52.2505 N.am      19 UNK        -0.5000 
    105 CA        -8.3086  -23.0554  -51.1413 C.3       19 UNK         0.1400 
    106 CB        -9.7635  -23.4455  -51.4437 C.3       19 UNK        -0.1800 
    107 C         -8.1840  -21.5444  -50.8652 C.2       19 UNK         0.5000 
    108 O         -8.4470  -20.7376  -51.7589 O.2       19 UNK        -0.5000 
    109 N         -7.7401  -21.2124  -49.6455 N.am      20 UNK        -0.5000 
    110 CA        -7.4292  -19.8728  -49.1298 C.3       20 UNK         0.1400 
    111 CB        -8.6780  -18.9666  -49.1407 C.3       20 UNK        -0.1800 
    112 C         -6.2064  -19.1848  -49.7801 C.2       20 UNK         0.5000 
    113 O         -5.9514  -18.0246  -49.4561 O.2       20 UNK        -0.5000 
    114 N         -5.4623  -19.9015  -50.6398 N.am      21 UNK        -0.5000 
    115 CA        -4.2156  -19.5243  -51.3169 C.3       21 UNK         0.1400 
    116 CB        -3.0181  -19.8196  -50.3933 C.3       21 UNK        -0.1800 
    117 C         -4.2108  -18.0876  -51.8836 C.2       21 UNK         0.5000 
    118 O         -4.7900  -17.8549  -52.9457 O.2       21 UNK        -0.5000 
    119 N         -3.5586  -17.1623  -51.1672 N.am      22 UNK        -0.5000 
    120 CA        -3.4592  -15.7315  -51.4968 C.3       22 UNK         0.1400 
    121 C         -4.7902  -14.9336  -51.3573 C.2       22 UNK         0.5000 
    122 N         -5.8218  -15.4550  -50.7044 N.am      22 UNK        -0.7600 
    123 O         -4.8875  -13.8156  -51.8560 O.2       22 UNK        -0.5000 
    124 C124       -2.3292  -15.0277  -50.6971 C.3       23 UNK        -0.0398 
    125 S125       -0.7095  -15.8581  -50.8472 S.3       23 UNK        -0.2404 
    126 C126       -0.0321  -15.6250  -49.1745 C.3       23 UNK        -0.0205 
    127 H127        8.6883  -12.3059  -45.4192 H         1 UNK         0.0600 
    128 H128        8.2001  -11.3200  -44.0372 H         1 UNK         0.0600 
    129 H129        8.2988  -10.5978  -45.6466 H         1 UNK         0.0600 
    130 H130        7.0485  -13.6465  -46.1351 H         1 UNK         0.3000 
    131 H131        4.3800  -13.4531  -45.2390 H         1 UNK         0.0600 
    132 H132        5.2947  -15.6060  -45.6101 H         1 UNK         0.0800 
    133 H133        3.9574  -15.4286  -46.6826 H         1 UNK         0.0800 
    134 H134        5.5673  -15.9891  -50.1636 H         1 UNK         0.0800 
    135 H135        4.8181  -14.5118  -49.6175 H         1 UNK         0.0800 
    136 H136        2.4695  -14.6128  -49.5346 H         1 UNK         0.1150 
    137 H137        0.4168  -18.2009  -48.4487 H         1 UNK         0.1150 
    138 H138        4.6961  -18.1708  -48.6597 H         1 UNK         0.1150 
    139 H139        3.6141  -20.0757  -47.7644 H         1 UNK         0.0800 
    140 H140        1.9929  -19.9429  -47.1635 H         1 UNK         0.0800 
    141 H141       -0.2025  -21.2449  -49.9778 H         1 UNK         0.0800 
    142 H142       -0.1357  -20.2992  -48.5260 H         1 UNK         0.0800 
    143 H143        0.8611  -23.1337  -48.2754 H         1 UNK         0.0600 
    144 H144       -0.1424  -21.1868  -46.4355 H         1 UNK         0.3000 
    145 H145       -0.5987  -23.4794  -43.7146 H         1 UNK         0.0600 
    146 H146        1.3876  -21.2129  -44.2849 H         1 UNK         0.0600 
    147 H147        0.8784  -21.7594  -42.6882 H         1 UNK         0.0600 
    148 H148        1.7932  -22.8321  -43.7363 H         1 UNK         0.0600 
    149 H149       -1.0423  -20.6451  -44.1426 H         1 UNK         0.3000 
    150 H150       -4.5366  -20.9351  -44.7910 H         1 UNK         0.0600 
    151 H151       -4.3317  -21.1638  -42.3052 H         1 UNK         0.0600 
    152 H152       -4.6690  -19.5048  -42.7756 H         1 UNK         0.0600 
    153 H153       -3.0378  -19.9698  -42.2959 H         1 UNK         0.0600 
    154 H154       -2.8408  -18.6729  -44.3916 H         1 UNK         0.3000 
    155 H155       -1.7107  -18.3516  -47.7658 H         1 UNK         0.0600 
    156 H156       -3.7976  -16.7455  -46.2020 H         1 UNK         0.0600 
    157 H157       -2.9068  -16.1910  -47.6133 H         1 UNK         0.0600 
    158 H158       -4.0704  -17.4917  -47.7694 H         1 UNK         0.0600 
    159 H159       -1.3447  -16.5401  -45.7003 H         1 UNK         0.3000 
    160 H160        0.9450  -18.0917  -43.5565 H         1 UNK         0.0600 
    161 H161        2.5579  -17.7832  -45.4515 H         1 UNK         0.0600 
    162 H162        2.6765  -16.4602  -44.3008 H         1 UNK         0.0600 
    163 H163        1.8262  -16.2273  -45.8275 H         1 UNK         0.0600 
    164 H164        0.4863  -15.3366  -43.9596 H         1 UNK         0.3000 
    165 H165       -2.8330  -14.9430  -43.0184 H         1 UNK         0.0600 
    166 H166       -2.0803  -13.5348  -41.1164 H         1 UNK         0.0600 
    167 H167       -1.9481  -15.2332  -40.6914 H         1 UNK         0.0600 
    168 H168       -0.5027  -14.3253  -41.1198 H         1 UNK         0.0600 
    169 H169       -0.7791  -13.0130  -43.2023 H         1 UNK         0.3000 
    170 H170        0.1135  -13.0551  -46.4978 H         1 UNK         0.0600 
    171 H171       -2.1314  -12.1005  -47.0508 H         1 UNK         0.0600 
    172 H172       -2.0577  -11.0780  -45.6198 H         1 UNK         0.0600 
    173 H173       -0.9099  -10.8438  -46.9391 H         1 UNK         0.0600 
    174 H174        0.3148  -10.8521  -44.8026 H         1 UNK         0.3000 
    175 H175        1.6960  -10.7763  -42.7735 H         1 UNK         0.0600 
    176 H176        4.1614  -12.5588  -43.1292 H         1 UNK         0.0600 
    177 H177        3.9786  -11.2501  -41.9679 H         1 UNK         0.0600 
    178 H178        2.9804  -12.6889  -41.8329 H         1 UNK         0.0600 
    179 H179        3.9783  -10.6227  -44.5936 H         1 UNK         0.3000 
    180 H180        2.6223   -7.8723  -46.4755 H         1 UNK         0.0600 
    181 H181        5.0517   -8.3442  -44.6643 H         1 UNK         0.0600 
    182 H182        3.8914   -7.0304  -44.5122 H         1 UNK         0.0600 
    183 H183        4.9244   -7.1256  -45.9302 H         1 UNK         0.0600 
    184 H184        4.7232   -9.9893  -46.5185 H         1 UNK         0.3000 
    185 H185        3.4623  -11.4156  -49.4943 H         1 UNK         0.0600 
    186 H186        5.7555  -11.0594  -50.3805 H         1 UNK         0.0600 
    187 H187        4.8321   -9.5678  -50.4675 H         1 UNK         0.0600 
    188 H188        6.0389   -9.7756  -49.2040 H         1 UNK         0.0600 
    189 H189        5.8194  -11.8425  -47.8832 H         1 UNK         0.3000 
    190 H190       -2.5044  -22.0061  -47.6426 H         1 UNK         0.3000 
    191 H191       -3.7333  -23.5981  -49.6289 H         1 UNK         0.0600 
    192 H192       -4.8372  -22.5793  -46.9568 H         1 UNK         0.0600 
    193 H193       -5.8055  -23.2158  -48.2842 H         1 UNK         0.0600 
    194 H194       -4.8901  -21.7319  -48.5012 H         1 UNK         0.0600 
    195 H195       -2.9578  -24.3504  -46.1970 H         1 UNK         0.3000 
    196 H196       -4.1148  -26.9480  -46.1570 H         1 UNK         0.0600 
    197 H197       -2.6960  -27.2478  -44.1154 H         1 UNK         0.0600 
    198 H198       -3.5521  -25.7140  -44.0947 H         1 UNK         0.0600 
    199 H199       -1.8353  -25.7592  -44.4895 H         1 UNK         0.0600 
    200 H200       -0.8143  -25.8390  -47.0084 H         1 UNK         0.3000 
    201 H201        0.3010  -28.4399  -47.4062 H         1 UNK         0.0600 
    202 H202        1.6928  -26.4462  -46.9619 H         1 UNK         0.0600 
    203 H203        1.1739  -25.7030  -48.4724 H         1 UNK         0.0600 
    204 H204        2.1522  -27.1656  -48.4980 H         1 UNK         0.0600 
    205 H205       -1.0654  -26.0356  -49.7198 H         1 UNK         0.3000 
    206 H206       -0.5799  -27.6526  -52.0472 H         1 UNK         0.0600 
    207 H207       -0.6872  -25.1795  -52.1293 H         1 UNK         0.0600 
    208 H208       -1.9213  -25.8641  -53.1774 H         1 UNK         0.0600 
    209 H209       -2.3678  -25.2109  -51.6016 H         1 UNK         0.0600 
    210 H210       -3.3705  -27.2223  -49.9183 H         1 UNK         0.3000 
    211 H211       -5.2574  -28.2210  -49.5604 H         1 UNK         0.0600 
    212 H212       -4.4450  -30.4484  -51.4974 H         1 UNK         0.0600 
    213 H213       -5.7632  -30.5028  -50.3387 H         1 UNK         0.0600 
    214 H214       -4.1041  -30.4061  -49.7681 H         1 UNK         0.0600 
    215 H215       -4.5918  -28.3259  -53.0676 H         1 UNK         0.3000 
    216 H216       -7.3577  -27.9948  -53.8598 H         1 UNK         0.0600 
    217 H217       -6.3639  -27.8025  -56.1443 H         1 UNK         0.0600 
    218 H218       -5.7114  -29.1857  -55.2800 H         1 UNK         0.0600 
    219 H219       -4.7494  -27.7176  -55.4480 H         1 UNK         0.0600 
    220 H220       -4.6735  -25.7660  -53.2715 H         1 UNK         0.3000 
    221 H221       -6.0158  -23.4438  -54.4700 H         1 UNK         0.0600 
    222 H222       -3.3913  -23.6243  -52.9050 H         1 UNK         0.0600 
    223 H223       -3.5376  -23.7492  -54.6578 H         1 UNK         0.0600 
    224 H224       -3.9664  -22.2556  -53.8390 H         1 UNK         0.0600 
    225 H225       -7.9119  -23.9654  -53.0147 H         1 UNK         0.3000 
    226 H226       -7.9878  -23.6072  -50.2552 H         1 UNK         0.0600 
    227 H227       -9.8640  -24.5233  -51.5740 H         1 UNK         0.0600 
    228 H228      -10.4239  -23.1537  -50.6260 H         1 UNK         0.0600 
    229 H229      -10.1296  -22.9623  -52.3505 H         1 UNK         0.0600 
    230 H230       -7.5411  -21.9649  -49.0019 H         1 UNK         0.3000 
    231 H231       -7.1509  -20.0228  -48.0856 H         1 UNK         0.0600 
    232 H232       -8.4938  -18.0402  -48.5955 H         1 UNK         0.0600 
    233 H233       -9.5268  -19.4571  -48.6644 H         1 UNK         0.0600 
    234 H234       -8.9724  -18.6915  -50.1537 H         1 UNK         0.0600 
    235 H235       -5.7610  -20.8515  -50.8336 H         1 UNK         0.3000 
    236 H236       -4.1282  -20.1876  -52.1786 H         1 UNK         0.0600 
    237 H237       -2.0725  -19.5506  -50.8658 H         1 UNK         0.0600 
    238 H238       -2.9690  -20.8814  -50.1551 H         1 UNK         0.0600 
    239 H239       -3.0941  -19.2738  -49.4555 H         1 UNK         0.0600 
    240 H240       -3.1267  -17.4450  -50.3019 H         1 UNK         0.3000 
    241 H241       -3.1901  -15.6738  -52.5531 H         1 UNK         0.0600 
    242 H242       -6.6753  -14.9264  -50.6256 H         1 UNK         0.3800 
    243 H243       -5.7645  -16.3801  -50.2826 H         1 UNK         0.3800 
    244 H244       -2.2038  -13.9998  -51.0421 H         1 UNK         0.0800 
    245 H245       -2.6041  -14.9600  -49.6437 H         1 UNK         0.0800 
    246 H246        0.0850  -14.5588  -48.9731 H         1 UNK         0.0800 
    247 H247       -0.7333  -16.0027  -48.4317 H         1 UNK         0.0800 
@<TRIPOS>BOND
     1    1    2 1    
     2    1  127 1    
     3    1  128 1    
     4    1  129 1    
     5    2    3 2    
     6    2    4 am   BACKBONE|DICT|INTERRES
     7    4    5 1    
     8    4  130 1    
     9    5    6 1    
    10    5   65 1    
    11    5  131 1    
    12    6    7 1    
    13    6  132 1    
    14    6  133 1    
    15    7    8 1    
    16    8    9 1    
    17    8  134 1    
    18    8  135 1    
    19    9   10 ar   
    20    9   14 ar   
    21   10   11 ar   
    22   10  136 1    
    23   11   12 ar   
    24   11  126 1    
    25   12   13 ar   
    26   12  137 1    
    27   13   14 ar   
    28   13   15 1    
    29   14  138 1    
    30   15   16 1    
    31   15  139 1    
    32   15  140 1    
    33   16   17 1    
    34   17   18 1    
    35   17  141 1    
    36   17  142 1    
    37   18   19 1    
    38   18   67 1    
    39   18  143 1    
    40   19   20 am   BACKBONE|DICT|INTERRES
    41   19  144 1    
    42   20   21 2    
    43   20   22 1    
    44   22   23 1    
    45   22   24 1    
    46   22  145 1    
    47   23  146 1    
    48   23  147 1    
    49   23  148 1    
    50   24   25 am   BACKBONE|DICT|INTERRES
    51   24  149 1    
    52   25   26 2    
    53   25   27 1    
    54   27   28 1    
    55   27   29 1    
    56   27  150 1    
    57   28  151 1    
    58   28  152 1    
    59   28  153 1    
    60   29   30 am   BACKBONE|DICT|INTERRES
    61   29  154 1    
    62   30   31 2    
    63   30   32 1    
    64   32   33 1    
    65   32   34 1    
    66   32  155 1    
    67   33  156 1    
    68   33  157 1    
    69   33  158 1    
    70   34   35 am   BACKBONE|DICT|INTERRES
    71   34  159 1    
    72   35   36 2    
    73   35   37 1    
    74   37   38 1    
    75   37   39 1    
    76   37  160 1    
    77   38  161 1    
    78   38  162 1    
    79   38  163 1    
    80   39   40 am   BACKBONE|DICT|INTERRES
    81   39  164 1    
    82   40   41 2    
    83   40   42 1    
    84   42   43 1    
    85   42   44 1    
    86   42  165 1    
    87   43  166 1    
    88   43  167 1    
    89   43  168 1    
    90   44   45 am   BACKBONE|DICT|INTERRES
    91   44  169 1    
    92   45   46 2    
    93   45   47 1    
    94   47   48 1    
    95   47   49 1    
    96   47  170 1    
    97   48  171 1    
    98   48  172 1    
    99   48  173 1    
   100   49   50 am   BACKBONE|DICT|INTERRES
   101   49  174 1    
   102   50   51 2    
   103   50   52 1    
   104   52   53 1    
   105   52   54 1    
   106   52  175 1    
   107   53  176 1    
   108   53  177 1    
   109   53  178 1    
   110   54   55 am   BACKBONE|DICT|INTERRES
   111   54  179 1    
   112   55   56 2    
   113   55   57 1    
   114   57   58 1    
   115   57   59 1    
   116   57  180 1    
   117   58  181 1    
   118   58  182 1    
   119   58  183 1    
   120   59   60 am   BACKBONE|DICT|INTERRES
   121   59  184 1    
   122   60   61 2    
   123   60   62 1    
   124   62   63 1    
   125   62   64 1    
   126   62  185 1    
   127   63  186 1    
   128   63  187 1    
   129   63  188 1    
   130   64   65 am   BACKBONE|DICT|INTERRES
   131   64  189 1    
   132   65   66 2    
   133   67   68 2    
   134   67   69 am   BACKBONE|DICT|INTERRES
   135   69   70 1    
   136   69  190 1    
   137   70   71 1    
   138   70   72 1    
   139   70  191 1    
   140   71  192 1    
   141   71  193 1    
   142   71  194 1    
   143   72   73 2    
   144   72   74 am   BACKBONE|DICT|INTERRES
   145   74   75 1    
   146   74  195 1    
   147   75   76 1    
   148   75   77 1    
   149   75  196 1    
   150   76  197 1    
   151   76  198 1    
   152   76  199 1    
   153   77   78 2    
   154   77   79 am   BACKBONE|DICT|INTERRES
   155   79   80 1    
   156   79  200 1    
   157   80   81 1    
   158   80   82 1    
   159   80  201 1    
   160   81  202 1    
   161   81  203 1    
   162   81  204 1    
   163   82   83 2    
   164   82   84 am   BACKBONE|DICT|INTERRES
   165   84   85 1    
   166   84  205 1    
   167   85   86 1    
   168   85   87 1    
   169   85  206 1    
   170   86  207 1    
   171   86  208 1    
   172   86  209 1    
   173   87   88 2    
   174   87   89 am   BACKBONE|DICT|INTERRES
   175   89   90 1    
   176   89  210 1    
   177   90   91 1    
   178   90   92 1    
   179   90  211 1    
   180   91  212 1    
   181   91  213 1    
   182   91  214 1    
   183   92   93 2    
   184   92   94 am   BACKBONE|DICT|INTERRES
   185   94   95 1    
   186   94  215 1    
   187   95   96 1    
   188   95   97 1    
   189   95  216 1    
   190   96  217 1    
   191   96  218 1    
   192   96  219 1    
   193   97   98 2    
   194   97   99 am   BACKBONE|DICT|INTERRES
   195   99  100 1    
   196   99  220 1    
   197  100  101 1    
   198  100  102 1    
   199  100  221 1    
   200  101  222 1    
   201  101  223 1    
   202  101  224 1    
   203  102  103 2    
   204  102  104 am   BACKBONE|DICT|INTERRES
   205  104  105 1    
   206  104  225 1    
   207  105  106 1    
   208  105  107 1    
   209  105  226 1    
   210  106  227 1    
   211  106  228 1    
   212  106  229 1    
   213  107  108 2    
   214  107  109 am   BACKBONE|DICT|INTERRES
   215  109  110 1    
   216  109  230 1    
   217  110  111 1    
   218  110  112 1    
   219  110  231 1    
   220  111  232 1    
   221  111  233 1    
   222  111  234 1    
   223  112  113 2    
   224  112  114 am   BACKBONE|DICT|INTERRES
   225  114  115 1    
   226  114  235 1    
   227  115  116 1    
   228  115  117 1    
   229  115  236 1    
   230  116  237 1    
   231  116  238 1    
   232  116  239 1    
   233  117  118 2    
   234  117  119 am   BACKBONE|DICT|INTERRES
   235  119  120 1    
   236  119  240 1    
   237  120  121 1    
   238  120  124 1    
   239  120  241 1    
   240  121  122 am   BACKBONE|DICT|INTERRES
   241  121  123 2    
   242  122  242 1    
   243  122  243 1    
   244  124  125 1    
   245  124  244 1    
   246  124  245 1    
   247  125  126 1    
   248  126  246 1    
   249  126  247 1    
@<TRIPOS>SUBSTRUCTURE
     1 UNK         1 GROUP             0       ****    0 ROOT    
