@<TRIPOS>MOLECULE
3R540
247   249    1
SMALL
USER_CHARGES


@<TRIPOS>ATOM
      1 CA         -2.6959  -11.4536  -44.4824 C.3       0 UNK        -0.1800 
      2 C          -2.2043  -11.4356  -45.9229 C.2       0 UNK         0.5000 
      3 O          -1.5231  -10.4930  -46.3258 O.2       0 UNK        -0.5000 
      4 N          -2.5483  -12.4714  -46.6996 N.am      1 UNK        -0.5000 
      5 CA         -2.1826  -12.6217  -48.1130 C.3       1 UNK         0.1400 
      6 C6         -3.1097  -13.6239  -48.8484 C.3       23 UNK        -0.0398 
      7 S7         -3.0923  -15.3325  -48.1888 S.3       23 UNK        -0.2404 
      8 C8         -3.0350  -16.3299  -49.7154 C.3       23 UNK        -0.0205 
      9 C9         -1.6070  -16.5738  -50.1814 C.ar      23 UNK        -0.0193 
     10 C10        -0.9565  -15.6500  -51.0045 C.ar      23 UNK        -0.1150 
     11 C11         0.3690  -15.8571  -51.3985 C.ar      23 UNK        -0.0193 
     12 C12         1.0389  -17.0094  -50.9750 C.ar      23 UNK        -0.1150 
     13 C13         0.3908  -17.9540  -50.1747 C.ar      23 UNK        -0.0193 
     14 C14        -0.9335  -17.7324  -49.7864 C.ar      23 UNK        -0.1150 
     15 C15         1.1157  -19.2233  -49.7564 C.3       23 UNK        -0.0205 
     16 S16         2.0302  -19.0414  -48.1887 S.3       23 UNK        -0.2404 
     17 C17         0.7208  -18.9700  -46.9169 C.3       23 UNK        -0.0398 
     18 CA          0.1736  -20.3709  -46.5313 C.3       11 UNK         0.1400 
     19 N          -0.0568  -20.5106  -45.0912 N.am      11 UNK        -0.5000 
     20 C          -0.3718  -21.6651  -44.4853 C.2       10 UNK         0.5000 
     21 O          -0.4375  -22.7496  -45.0636 O.2       10 UNK        -0.5000 
     22 CA         -0.7164  -21.5900  -42.9911 C.3       10 UNK         0.1400 
     23 CB          0.5533  -21.6591  -42.1385 C.3       10 UNK        -0.1800 
     24 N          -1.4603  -20.3750  -42.6660 N.am      10 UNK        -0.5000 
     25 C          -2.7443  -20.1776  -42.9931 C.2       9 UNK         0.5000 
     26 O          -3.4378  -21.0119  -43.5750 O.2       9 UNK        -0.5000 
     27 CA         -3.3380  -18.7992  -42.6524 C.3       9 UNK         0.1400 
     28 CB         -3.7352  -18.7283  -41.1704 C.3       9 UNK        -0.1800 
     29 N          -2.4291  -17.6957  -42.9654 N.am      9 UNK        -0.5000 
     30 C          -2.0032  -17.3939  -44.1994 C.2       8 UNK         0.5000 
     31 O          -2.3287  -18.0141  -45.2080 O.2       8 UNK        -0.5000 
     32 CA         -1.0296  -16.2149  -44.3356 C.3       8 UNK         0.1400 
     33 CB         -1.8246  -14.9045  -44.4002 C.3       8 UNK        -0.1800 
     34 N          -0.0282  -16.1074  -43.2736 N.am      8 UNK        -0.5000 
     35 C           0.7885  -17.0730  -42.8307 C.2       7 UNK         0.5000 
     36 O           0.7285  -18.2486  -43.2052 O.2       7 UNK        -0.5000 
     37 CA          1.8527  -16.6071  -41.8129 C.3       7 UNK         0.1400 
     38 CB          1.2354  -15.8404  -40.6226 C.3       7 UNK        -0.1800 
     39 N           2.7273  -17.6846  -41.3463 N.am      7 UNK        -0.5000 
     40 C           2.4216  -18.7433  -40.5831 C.2       6 UNK         0.5000 
     41 O           1.3217  -18.9302  -40.0599 O.2       6 UNK        -0.5000 
     42 CA          3.5492  -19.7874  -40.4275 C.3       6 UNK         0.1400 
     43 CB          3.1666  -20.9785  -39.5306 C.3       6 UNK        -0.1800 
     44 N           3.9534  -20.2814  -41.7467 N.am      6 UNK        -0.5000 
     45 C           4.8357  -19.6677  -42.5442 C.2       5 UNK         0.5000 
     46 O           5.5374  -18.7281  -42.1607 O.2       5 UNK        -0.5000 
     47 CA          4.9334  -20.1484  -44.0100 C.3       5 UNK         0.1400 
     48 CB          3.6334  -20.8026  -44.5365 C.3       5 UNK        -0.1800 
     49 N           5.3669  -19.0602  -44.8967 N.am      5 UNK        -0.5000 
     50 C           4.7204  -17.9077  -45.1317 C.2       4 UNK         0.5000 
     51 O           3.5851  -17.6514  -44.7252 O.2       4 UNK        -0.5000 
     52 CA          5.4879  -16.8721  -45.9759 C.3       4 UNK         0.1400 
     53 CB          5.4710  -17.2604  -47.4633 C.3       4 UNK        -0.1800 
     54 N           4.9362  -15.5240  -45.8453 N.am      4 UNK        -0.5000 
     55 C           4.9818  -14.7536  -44.7478 C.2       3 UNK         0.5000 
     56 O           5.5723  -15.0701  -43.7146 O.2       3 UNK        -0.5000 
     57 CA          4.2623  -13.3892  -44.8209 C.3       3 UNK         0.1400 
     58 CB          5.2853  -12.2434  -44.8811 C.3       3 UNK        -0.1800 
     59 N           3.3871  -13.3002  -45.9930 N.am      3 UNK        -0.5000 
     60 C           2.0862  -13.6105  -45.9926 C.2       2 UNK         0.5000 
     61 O           1.4259  -13.8402  -44.9776 O.2       2 UNK        -0.5000 
     62 CA          1.4400  -13.7546  -47.3737 C.3       2 UNK         0.1400 
     63 CB          1.5854  -15.2033  -47.8644 C.3       2 UNK        -0.1800 
     64 N           0.0258  -13.4047  -47.3136 N.am      2 UNK        -0.5000 
     65 C          -0.6855  -12.9302  -48.3456 C.2       1 UNK         0.5000 
     66 O          -0.2035  -12.7164  -49.4592 O.2       1 UNK        -0.5000 
     67 C          -1.0950  -20.7392  -47.3300 C.2       11 UNK         0.5000 
     68 O          -1.0230  -21.5556  -48.2470 O.2       11 UNK        -0.5000 
     69 N          -2.2461  -20.1803  -46.9294 N.am      12 UNK        -0.5000 
     70 CA         -3.5606  -20.4794  -47.4926 C.3       12 UNK         0.1400 
     71 CB         -4.6218  -19.5585  -46.8750 C.3       12 UNK        -0.1800 
     72 C          -3.9551  -21.9553  -47.3276 C.2       12 UNK         0.5000 
     73 O          -4.4528  -22.5448  -48.2847 O.2       12 UNK        -0.5000 
     74 N          -3.6933  -22.5413  -46.1499 N.am      13 UNK        -0.5000 
     75 CA         -3.9123  -23.9630  -45.8721 C.3       13 UNK         0.1400 
     76 CB         -3.6507  -24.2583  -44.3883 C.3       13 UNK        -0.1800 
     77 C          -3.0697  -24.8831  -46.7754 C.2       13 UNK         0.5000 
     78 O          -3.6119  -25.8341  -47.3400 O.2       13 UNK        -0.5000 
     79 N          -1.7813  -24.5514  -46.9478 N.am      14 UNK        -0.5000 
     80 CA         -0.8604  -25.2303  -47.8655 C.3       14 UNK         0.1400 
     81 CB          0.5643  -24.6974  -47.6496 C.3       14 UNK        -0.1800 
     82 C          -1.2781  -25.0989  -49.3444 C.2       14 UNK         0.5000 
     83 O          -1.0947  -26.0400  -50.1163 O.2       14 UNK        -0.5000 
     84 N          -1.8830  -23.9571  -49.6944 N.am      15 UNK        -0.5000 
     85 CA         -2.4857  -23.6594  -50.9940 C.3       15 UNK         0.1400 
     86 CB         -2.4271  -22.1393  -51.2237 C.3       15 UNK        -0.1800 
     87 C          -3.9228  -24.2098  -51.1528 C.2       15 UNK         0.5000 
     88 O          -4.6259  -23.7830  -52.0702 O.2       15 UNK        -0.5000 
     89 N          -4.3388  -25.1365  -50.2745 N.am      16 UNK        -0.5000 
     90 CA         -5.6194  -25.8517  -50.2650 C.3       16 UNK         0.1400 
     91 CB         -5.7555  -26.7438  -51.5174 C.3       16 UNK        -0.1800 
     92 C          -6.8200  -24.9083  -50.0586 C.2       16 UNK         0.5000 
     93 O          -7.7418  -24.8846  -50.8737 O.2       16 UNK        -0.5000 
     94 N          -6.7581  -24.1188  -48.9777 N.am      17 UNK        -0.5000 
     95 CA         -7.6846  -23.0381  -48.6137 C.3       17 UNK         0.1400 
     96 CB         -9.1026  -23.5774  -48.3317 C.3       17 UNK        -0.1800 
     97 C          -7.6542  -21.8919  -49.6465 C.2       17 UNK         0.5000 
     98 O          -8.6955  -21.3406  -50.0058 O.2       17 UNK        -0.5000 
     99 N          -6.4359  -21.5849  -50.1143 N.am      18 UNK        -0.5000 
    100 CA        -6.0738  -20.6014  -51.1379 C.3       18 UNK         0.1400 
    101 CB        -6.3823  -19.1684  -50.6587 C.3       18 UNK        -0.1800 
    102 C         -6.6410  -20.8968  -52.5438 C.2       18 UNK         0.5000 
    103 O         -6.6199  -20.0087  -53.3964 O.2       18 UNK        -0.5000 
    104 N         -7.0911  -22.1352  -52.7953 N.am      19 UNK        -0.5000 
    105 CA        -7.5939  -22.5928  -54.0936 C.3       19 UNK         0.1400 
    106 CB        -8.2620  -23.9651  -53.9328 C.3       19 UNK        -0.1800 
    107 C         -6.4989  -22.6518  -55.1746 C.2       19 UNK         0.5000 
    108 O         -6.7868  -22.3927  -56.3436 O.2       19 UNK        -0.5000 
    109 N         -5.2598  -22.9555  -54.7636 N.am      20 UNK        -0.5000 
    110 CA        -4.0703  -22.9225  -55.6179 C.3       20 UNK         0.1400 
    111 CB        -2.9965  -23.8376  -55.0084 C.3       20 UNK        -0.1800 
    112 C         -3.5149  -21.4963  -55.8241 C.2       20 UNK         0.5000 
    113 O         -2.6295  -21.3177  -56.6617 O.2       20 UNK        -0.5000 
    114 N         -4.0361  -20.5202  -55.0632 N.am      21 UNK        -0.5000 
    115 CA        -3.6279  -19.1142  -54.9966 C.3       21 UNK         0.1400 
    116 CB        -3.9228  -18.3997  -56.3346 C.3       21 UNK        -0.1800 
    117 C         -2.1720  -18.9410  -54.5076 C.2       21 UNK         0.5000 
    118 O         -1.6431  -19.8203  -53.8233 O.2       21 UNK        -0.5000 
    119 N         -1.5623  -17.7950  -54.8309 N.am      22 UNK        -0.5000 
    120 CA        -0.1522  -17.4984  -54.5541 C.3       22 UNK         0.1400 
    121 C          0.7878  -18.3075  -55.4920 C.2       22 UNK         0.5000 
    122 N          1.7776  -19.0044  -54.9503 N.am      22 UNK        -0.7600 
    123 O          0.6421  -18.2805  -56.7122 O.2       22 UNK        -0.5000 
    124 C124        0.1110  -15.9731  -54.6424 C.3       23 UNK        -0.0398 
    125 S125        1.6743  -15.4805  -53.8379 S.3       23 UNK        -0.2404 
    126 C126        1.0875  -14.8156  -52.2458 C.3       23 UNK        -0.0205 
    127 H127       -3.3830  -12.2798  -44.2984 H         1 UNK         0.0600 
    128 H128       -3.2164  -10.5242  -44.2514 H         1 UNK         0.0600 
    129 H129       -1.8520  -11.5520  -43.7995 H         1 UNK         0.0600 
    130 H130       -3.1175  -13.2149  -46.3215 H         1 UNK         0.3000 
    131 H131       -2.3528  -11.6500  -48.5821 H         1 UNK         0.0600 
    132 H132       -2.8738  -13.6322  -49.9124 H         1 UNK         0.0800 
    133 H133       -4.1382  -13.2653  -48.7917 H         1 UNK         0.0800 
    134 H134       -3.5249  -17.2852  -49.5199 H         1 UNK         0.0800 
    135 H135       -3.6184  -15.8517  -50.5035 H         1 UNK         0.0800 
    136 H136       -1.4723  -14.7557  -51.3212 H         1 UNK         0.1150 
    137 H137        2.0662  -17.1695  -51.2708 H         1 UNK         0.1150 
    138 H138       -1.4415  -18.4587  -49.1695 H         1 UNK         0.1150 
    139 H139        0.4185  -20.0568  -49.7013 H         1 UNK         0.0800 
    140 H140        1.8305  -19.4992  -50.5328 H         1 UNK         0.0800 
    141 H141       -0.0659  -18.2737  -47.2092 H         1 UNK         0.0800 
    142 H142        1.1908  -18.5079  -46.0469 H         1 UNK         0.0800 
    143 H143        0.9330  -21.1160  -46.7793 H         1 UNK         0.0600 
    144 H144        0.0106  -19.6703  -44.5261 H         1 UNK         0.3000 
    145 H145       -1.3366  -22.4535  -42.7425 H         1 UNK         0.0600 
    146 H146        0.3069  -21.6412  -41.0771 H         1 UNK         0.0600 
    147 H147        1.2141  -20.8190  -42.3472 H         1 UNK         0.0600 
    148 H148        1.1090  -22.5771  -42.3334 H         1 UNK         0.0600 
    149 H149       -0.9323  -19.6136  -42.2597 H         1 UNK         0.3000 
    150 H150       -4.2401  -18.6702  -43.2543 H         1 UNK         0.0600 
    151 H151       -4.4236  -19.5341  -40.9122 H         1 UNK         0.0600 
    152 H152       -4.2368  -17.7880  -40.9412 H         1 UNK         0.0600 
    153 H153       -2.8674  -18.8148  -40.5151 H         1 UNK         0.0600 
    154 H154       -2.0951  -17.1408  -42.1915 H         1 UNK         0.3000 
    155 H155       -0.4903  -16.3390  -45.2765 H         1 UNK         0.0600 
    156 H156       -2.5687  -14.9412  -45.1958 H         1 UNK         0.0600 
    157 H157       -1.1726  -14.0555  -44.5960 H         1 UNK         0.0600 
    158 H158       -2.3536  -14.7080  -43.4668 H         1 UNK         0.0600 
    159 H159        0.1319  -15.1701  -42.9343 H         1 UNK         0.3000 
    160 H160        2.5060  -15.9191  -42.3522 H         1 UNK         0.0600 
    161 H161        0.4625  -16.4228  -40.1203 H         1 UNK         0.0600 
    162 H162        0.7789  -14.9044  -40.9451 H         1 UNK         0.0600 
    163 H163        1.9943  -15.5843  -39.8832 H         1 UNK         0.0600 
    164 H164        3.6504  -17.6842  -41.7639 H         1 UNK         0.3000 
    165 H165        4.3898  -19.2823  -39.9469 H         1 UNK         0.0600 
    166 H166        4.0131  -21.6512  -39.3929 H         1 UNK         0.0600 
    167 H167        2.8597  -20.6388  -38.5407 H         1 UNK         0.0600 
    168 H168        2.3460  -21.5597  -39.9472 H         1 UNK         0.0600 
    169 H169        3.3992  -21.0319  -42.1304 H         1 UNK         0.3000 
    170 H170        5.7228  -20.9005  -44.0373 H         1 UNK         0.0600 
    171 H171        2.7676  -20.1530  -44.4017 H         1 UNK         0.0600 
    172 H172        3.7102  -21.0293  -45.6000 H         1 UNK         0.0600 
    173 H173        3.4239  -21.7428  -44.0258 H         1 UNK         0.0600 
    174 H174        6.3019  -19.1607  -45.2654 H         1 UNK         0.3000 
    175 H175        6.5232  -16.8496  -45.6295 H         1 UNK         0.0600 
    176 H176        5.8887  -18.2558  -47.6184 H         1 UNK         0.0600 
    177 H177        4.4574  -17.2659  -47.8648 H         1 UNK         0.0600 
    178 H178        6.0632  -16.5659  -48.0594 H         1 UNK         0.0600 
    179 H179        4.3945  -15.1948  -46.6272 H         1 UNK         0.3000 
    180 H180        3.6771  -13.2758  -43.9057 H         1 UNK         0.0600 
    181 H181        5.9175  -12.3126  -45.7672 H         1 UNK         0.0600 
    182 H182        5.9400  -12.2573  -44.0087 H         1 UNK         0.0600 
    183 H183        4.7887  -11.2731  -44.8974 H         1 UNK         0.0600 
    184 H184        3.8403  -13.0836  -46.8696 H         1 UNK         0.3000 
    185 H185        1.9499  -13.0824  -48.0673 H         1 UNK         0.0600 
    186 H186        1.1532  -15.9149  -47.1601 H         1 UNK         0.0600 
    187 H187        1.0810  -15.3382  -48.8166 H         1 UNK         0.0600 
    188 H188        2.6308  -15.4747  -48.0097 H         1 UNK         0.0600 
    189 H189       -0.4078  -13.5061  -46.4067 H         1 UNK         0.3000 
    190 H190       -2.2287  -19.4844  -46.1843 H         1 UNK         0.3000 
    191 H191       -3.5160  -20.2653  -48.5618 H         1 UNK         0.0600 
    192 H192       -4.6762  -19.6768  -45.7922 H         1 UNK         0.0600 
    193 H193       -5.6115  -19.7728  -47.2805 H         1 UNK         0.0600 
    194 H194       -4.4031  -18.5113  -47.0859 H         1 UNK         0.0600 
    195 H195       -3.3303  -21.9779  -45.3883 H         1 UNK         0.3000 
    196 H196       -4.9638  -24.1772  -46.0741 H         1 UNK         0.0600 
    197 H197       -4.3005  -23.6625  -43.7472 H         1 UNK         0.0600 
    198 H198       -2.6191  -24.0467  -44.1094 H         1 UNK         0.0600 
    199 H199       -3.8430  -25.3073  -44.1600 H         1 UNK         0.0600 
    200 H200       -1.4010  -23.7693  -46.4214 H         1 UNK         0.3000 
    201 H201       -0.8666  -26.2930  -47.6150 H         1 UNK         0.0600 
    202 H202        0.8908  -24.8519  -46.6210 H         1 UNK         0.0600 
    203 H203        0.6335  -23.6308  -47.8640 H         1 UNK         0.0600 
    204 H204        1.2757  -25.2099  -48.2981 H         1 UNK         0.0600 
    205 H205       -1.9315  -23.2154  -49.0033 H         1 UNK         0.3000 
    206 H206       -1.8853  -24.1344  -51.7719 H         1 UNK         0.0600 
    207 H207       -1.3984  -21.7788  -51.2040 H         1 UNK         0.0600 
    208 H208       -2.9787  -21.5997  -50.4560 H         1 UNK         0.0600 
    209 H209       -2.8445  -21.8593  -52.1915 H         1 UNK         0.0600 
    210 H210       -3.7124  -25.3753  -49.5162 H         1 UNK         0.3000 
    211 H211       -5.5957  -26.5111  -49.3963 H         1 UNK         0.0600 
    212 H212       -5.8076  -26.1567  -52.4346 H         1 UNK         0.0600 
    213 H213       -6.6608  -27.3498  -51.4671 H         1 UNK         0.0600 
    214 H214       -4.9116  -27.4278  -51.6061 H         1 UNK         0.0600 
    215 H215       -5.9010  -24.1410  -48.4389 H         1 UNK         0.3000 
    216 H216       -7.3059  -22.6149  -47.6821 H         1 UNK         0.0600 
    217 H217       -9.7407  -22.7943  -47.9209 H         1 UNK         0.0600 
    218 H218       -9.0780  -24.3898  -47.6056 H         1 UNK         0.0600 
    219 H219       -9.5867  -23.9485  -49.2353 H         1 UNK         0.0600 
    220 H220       -5.6575  -22.0991  -49.7108 H         1 UNK         0.3000 
    221 H221       -4.9923  -20.6746  -51.2463 H         1 UNK         0.0600 
    222 H222       -7.4549  -18.9909  -50.5777 H         1 UNK         0.0600 
    223 H223       -5.9343  -18.9729  -49.6848 H         1 UNK         0.0600 
    224 H224       -5.9804  -18.4271  -51.3504 H         1 UNK         0.0600 
    225 H225       -7.0378  -22.8293  -52.0611 H         1 UNK         0.3000 
    226 H226       -8.3528  -21.8824  -54.4279 H         1 UNK         0.0600 
    227 H227       -9.0704  -23.9278  -53.2023 H         1 UNK         0.0600 
    228 H228       -8.6908  -24.3044  -54.8764 H         1 UNK         0.0600 
    229 H229       -7.5481  -24.7219  -53.6057 H         1 UNK         0.0600 
    230 H230       -5.1099  -23.1881  -53.7833 H         1 UNK         0.3000 
    231 H231       -4.3326  -23.3188  -56.6010 H         1 UNK         0.0600 
    232 H232       -2.1381  -23.9289  -55.6748 H         1 UNK         0.0600 
    233 H233       -3.3822  -24.8422  -54.8337 H         1 UNK         0.0600 
    234 H234       -2.6309  -23.4473  -54.0593 H         1 UNK         0.0600 
    235 H235       -4.7804  -20.7749  -54.4288 H         1 UNK         0.3000 
    236 H236       -4.2587  -18.6581  -54.2324 H         1 UNK         0.0600 
    237 H237       -3.2317  -18.7071  -57.1204 H         1 UNK         0.0600 
    238 H238       -4.9344  -18.6164  -56.6786 H         1 UNK         0.0600 
    239 H239       -3.8499  -17.3166  -56.2336 H         1 UNK         0.0600 
    240 H240       -2.0495  -17.1359  -55.4191 H         1 UNK         0.3000 
    241 H241        0.0377  -17.8111  -53.5258 H         1 UNK         0.0600 
    242 H242        2.3994  -19.5224  -55.5511 H         1 UNK         0.3800 
    243 H243        1.9165  -19.0301  -53.9526 H         1 UNK         0.3800 
    244 H244       -0.7042  -15.4241  -54.1690 H         1 UNK         0.0800 
    245 H245        0.1283  -15.6390  -55.6813 H         1 UNK         0.0800 
    246 H246        0.4452  -13.9534  -52.4325 H         1 UNK         0.0800 
    247 H247        1.9431  -14.4396  -51.6833 H         1 UNK         0.0800 
@<TRIPOS>BOND
     1    1    2 1    
     2    1  127 1    
     3    1  128 1    
     4    1  129 1    
     5    2    3 2    
     6    2    4 am   BACKBONE|DICT|INTERRES
     7    4    5 1    
     8    4  130 1    
     9    5    6 1    
    10    5   65 1    
    11    5  131 1    
    12    6    7 1    
    13    6  132 1    
    14    6  133 1    
    15    7    8 1    
    16    8    9 1    
    17    8  134 1    
    18    8  135 1    
    19    9   10 ar   
    20    9   14 ar   
    21   10   11 ar   
    22   10  136 1    
    23   11   12 ar   
    24   11  126 1    
    25   12   13 ar   
    26   12  137 1    
    27   13   14 ar   
    28   13   15 1    
    29   14  138 1    
    30   15   16 1    
    31   15  139 1    
    32   15  140 1    
    33   16   17 1    
    34   17   18 1    
    35   17  141 1    
    36   17  142 1    
    37   18   19 1    
    38   18   67 1    
    39   18  143 1    
    40   19   20 am   BACKBONE|DICT|INTERRES
    41   19  144 1    
    42   20   21 2    
    43   20   22 1    
    44   22   23 1    
    45   22   24 1    
    46   22  145 1    
    47   23  146 1    
    48   23  147 1    
    49   23  148 1    
    50   24   25 am   BACKBONE|DICT|INTERRES
    51   24  149 1    
    52   25   26 2    
    53   25   27 1    
    54   27   28 1    
    55   27   29 1    
    56   27  150 1    
    57   28  151 1    
    58   28  152 1    
    59   28  153 1    
    60   29   30 am   BACKBONE|DICT|INTERRES
    61   29  154 1    
    62   30   31 2    
    63   30   32 1    
    64   32   33 1    
    65   32   34 1    
    66   32  155 1    
    67   33  156 1    
    68   33  157 1    
    69   33  158 1    
    70   34   35 am   BACKBONE|DICT|INTERRES
    71   34  159 1    
    72   35   36 2    
    73   35   37 1    
    74   37   38 1    
    75   37   39 1    
    76   37  160 1    
    77   38  161 1    
    78   38  162 1    
    79   38  163 1    
    80   39   40 am   BACKBONE|DICT|INTERRES
    81   39  164 1    
    82   40   41 2    
    83   40   42 1    
    84   42   43 1    
    85   42   44 1    
    86   42  165 1    
    87   43  166 1    
    88   43  167 1    
    89   43  168 1    
    90   44   45 am   BACKBONE|DICT|INTERRES
    91   44  169 1    
    92   45   46 2    
    93   45   47 1    
    94   47   48 1    
    95   47   49 1    
    96   47  170 1    
    97   48  171 1    
    98   48  172 1    
    99   48  173 1    
   100   49   50 am   BACKBONE|DICT|INTERRES
   101   49  174 1    
   102   50   51 2    
   103   50   52 1    
   104   52   53 1    
   105   52   54 1    
   106   52  175 1    
   107   53  176 1    
   108   53  177 1    
   109   53  178 1    
   110   54   55 am   BACKBONE|DICT|INTERRES
   111   54  179 1    
   112   55   56 2    
   113   55   57 1    
   114   57   58 1    
   115   57   59 1    
   116   57  180 1    
   117   58  181 1    
   118   58  182 1    
   119   58  183 1    
   120   59   60 am   BACKBONE|DICT|INTERRES
   121   59  184 1    
   122   60   61 2    
   123   60   62 1    
   124   62   63 1    
   125   62   64 1    
   126   62  185 1    
   127   63  186 1    
   128   63  187 1    
   129   63  188 1    
   130   64   65 am   BACKBONE|DICT|INTERRES
   131   64  189 1    
   132   65   66 2    
   133   67   68 2    
   134   67   69 am   BACKBONE|DICT|INTERRES
   135   69   70 1    
   136   69  190 1    
   137   70   71 1    
   138   70   72 1    
   139   70  191 1    
   140   71  192 1    
   141   71  193 1    
   142   71  194 1    
   143   72   73 2    
   144   72   74 am   BACKBONE|DICT|INTERRES
   145   74   75 1    
   146   74  195 1    
   147   75   76 1    
   148   75   77 1    
   149   75  196 1    
   150   76  197 1    
   151   76  198 1    
   152   76  199 1    
   153   77   78 2    
   154   77   79 am   BACKBONE|DICT|INTERRES
   155   79   80 1    
   156   79  200 1    
   157   80   81 1    
   158   80   82 1    
   159   80  201 1    
   160   81  202 1    
   161   81  203 1    
   162   81  204 1    
   163   82   83 2    
   164   82   84 am   BACKBONE|DICT|INTERRES
   165   84   85 1    
   166   84  205 1    
   167   85   86 1    
   168   85   87 1    
   169   85  206 1    
   170   86  207 1    
   171   86  208 1    
   172   86  209 1    
   173   87   88 2    
   174   87   89 am   BACKBONE|DICT|INTERRES
   175   89   90 1    
   176   89  210 1    
   177   90   91 1    
   178   90   92 1    
   179   90  211 1    
   180   91  212 1    
   181   91  213 1    
   182   91  214 1    
   183   92   93 2    
   184   92   94 am   BACKBONE|DICT|INTERRES
   185   94   95 1    
   186   94  215 1    
   187   95   96 1    
   188   95   97 1    
   189   95  216 1    
   190   96  217 1    
   191   96  218 1    
   192   96  219 1    
   193   97   98 2    
   194   97   99 am   BACKBONE|DICT|INTERRES
   195   99  100 1    
   196   99  220 1    
   197  100  101 1    
   198  100  102 1    
   199  100  221 1    
   200  101  222 1    
   201  101  223 1    
   202  101  224 1    
   203  102  103 2    
   204  102  104 am   BACKBONE|DICT|INTERRES
   205  104  105 1    
   206  104  225 1    
   207  105  106 1    
   208  105  107 1    
   209  105  226 1    
   210  106  227 1    
   211  106  228 1    
   212  106  229 1    
   213  107  108 2    
   214  107  109 am   BACKBONE|DICT|INTERRES
   215  109  110 1    
   216  109  230 1    
   217  110  111 1    
   218  110  112 1    
   219  110  231 1    
   220  111  232 1    
   221  111  233 1    
   222  111  234 1    
   223  112  113 2    
   224  112  114 am   BACKBONE|DICT|INTERRES
   225  114  115 1    
   226  114  235 1    
   227  115  116 1    
   228  115  117 1    
   229  115  236 1    
   230  116  237 1    
   231  116  238 1    
   232  116  239 1    
   233  117  118 2    
   234  117  119 am   BACKBONE|DICT|INTERRES
   235  119  120 1    
   236  119  240 1    
   237  120  121 1    
   238  120  124 1    
   239  120  241 1    
   240  121  122 am   BACKBONE|DICT|INTERRES
   241  121  123 2    
   242  122  242 1    
   243  122  243 1    
   244  124  125 1    
   245  124  244 1    
   246  124  245 1    
   247  125  126 1    
   248  126  246 1    
   249  126  247 1    
@<TRIPOS>SUBSTRUCTURE
     1 UNK         1 GROUP             0       ****    0 ROOT    
