@<TRIPOS>MOLECULE
3R540
247   249    1
SMALL
USER_CHARGES


@<TRIPOS>ATOM
      1 CA          4.6490  -18.9656  -46.0447 C.3       0 UNK        -0.1800 
      2 C           4.3617  -17.5208  -45.6692 C.2       0 UNK         0.5000 
      3 O           3.8337  -17.2633  -44.5862 O.2       0 UNK        -0.5000 
      4 N           4.7389  -16.5699  -46.5345 N.am      1 UNK        -0.5000 
      5 CA          4.5592  -15.1187  -46.3654 C.3       1 UNK         0.1400 
      6 C6          4.5798  -14.3649  -47.7210 C.3       23 UNK        -0.0398 
      7 S7          3.2168  -14.8988  -48.8103 S.3       23 UNK        -0.2404 
      8 C8          4.0983  -15.7207  -50.1715 C.3       23 UNK        -0.0205 
      9 C9          3.2193  -16.7789  -50.8193 C.ar      23 UNK        -0.0193 
     10 C10         2.2836  -16.4310  -51.7979 C.ar      23 UNK        -0.1150 
     11 C11         1.4729  -17.4094  -52.3841 C.ar      23 UNK        -0.0193 
     12 C12         1.5976  -18.7401  -51.9743 C.ar      23 UNK        -0.1150 
     13 C13         2.5195  -19.1007  -50.9877 C.ar      23 UNK        -0.0193 
     14 C14         3.3397  -18.1140  -50.4288 C.ar      23 UNK        -0.1150 
     15 C15         2.6072  -20.5572  -50.5368 C.3       23 UNK        -0.0205 
     16 S16         2.8942  -20.7626  -48.7456 S.3       23 UNK        -0.2404 
     17 C17         1.4909  -19.8334  -48.0388 C.3       23 UNK        -0.0398 
     18 CA          0.5205  -20.7397  -47.2532 C.3       11 UNK         0.1400 
     19 N          -0.2675  -19.9716  -46.2909 N.am      11 UNK        -0.5000 
     20 C          -1.0883  -20.5018  -45.3754 C.2       10 UNK         0.5000 
     21 O          -1.2301  -21.7110  -45.1953 O.2       10 UNK        -0.5000 
     22 CA         -1.9323  -19.5067  -44.5640 C.3       10 UNK         0.1400 
     23 CB         -1.1219  -18.9335  -43.3915 C.3       10 UNK        -0.1800 
     24 N          -2.4495  -18.4244  -45.4061 N.am      10 UNK        -0.5000 
     25 C          -3.3788  -18.6001  -46.3583 C.2       9 UNK         0.5000 
     26 O          -3.9429  -19.6733  -46.5697 O.2       9 UNK        -0.5000 
     27 CA         -3.6942  -17.3948  -47.2613 C.3       9 UNK         0.1400 
     28 CB         -4.7584  -16.4896  -46.6253 C.3       9 UNK        -0.1800 
     29 N          -2.5001  -16.6120  -47.5818 N.am      9 UNK        -0.5000 
     30 C          -1.5339  -17.0391  -48.4090 C.2       8 UNK         0.5000 
     31 O          -1.5622  -18.1279  -48.9786 O.2       8 UNK        -0.5000 
     32 CA         -0.3084  -16.1281  -48.5988 C.3       8 UNK         0.1400 
     33 CB         -0.5534  -15.1240  -49.7338 C.3       8 UNK        -0.1800 
     34 N           0.0631  -15.3913  -47.3936 N.am      8 UNK        -0.5000 
     35 C           0.3979  -15.9318  -46.2158 C.2       7 UNK         0.5000 
     36 O           0.4116  -17.1444  -45.9991 O.2       7 UNK        -0.5000 
     37 CA          0.7468  -14.9502  -45.0796 C.3       7 UNK         0.1400 
     38 CB          1.0710  -13.5183  -45.5649 C.3       7 UNK        -0.1800 
     39 N          -0.2825  -14.8791  -44.0412 N.am      7 UNK        -0.5000 
     40 C          -1.5985  -14.6558  -44.1943 C.2       6 UNK         0.5000 
     41 O          -2.1693  -14.6283  -45.2855 O.2       6 UNK        -0.5000 
     42 CA         -2.4218  -14.3931  -42.9144 C.3       6 UNK         0.1400 
     43 CB         -3.2876  -15.6078  -42.5498 C.3       6 UNK        -0.1800 
     44 N          -1.5983  -14.0394  -41.7560 N.am      6 UNK        -0.5000 
     45 C          -0.9569  -12.8734  -41.5910 C.2       5 UNK         0.5000 
     46 O          -1.0747  -11.9137  -42.3531 O.2       5 UNK        -0.5000 
     47 CA          0.0043  -12.7778  -40.3880 C.3       5 UNK         0.1400 
     48 CB         -0.6878  -12.0927  -39.1998 C.3       5 UNK        -0.1800 
     49 N           0.5334  -14.0762  -39.9513 N.am      5 UNK        -0.5000 
     50 C           1.3361  -14.8611  -40.6819 C.2       4 UNK         0.5000 
     51 O           1.7199  -14.5823  -41.8210 O.2       4 UNK        -0.5000 
     52 CA          1.7245  -16.2068  -40.0601 C.3       4 UNK         0.1400 
     53 CB          0.5898  -17.2329  -40.2346 C.3       4 UNK        -0.1800 
     54 N           2.9310  -16.6925  -40.7178 N.am      4 UNK        -0.5000 
     55 C           3.8213  -17.5368  -40.1879 C.2       3 UNK         0.5000 
     56 O           3.7107  -18.0290  -39.0641 O.2       3 UNK        -0.5000 
     57 CA          5.0425  -17.8998  -41.0535 C.3       3 UNK         0.1400 
     58 CB          4.8027  -19.2331  -41.7797 C.3       3 UNK        -0.1800 
     59 N           5.3874  -16.8805  -42.0475 N.am      3 UNK        -0.5000 
     60 C           5.9692  -15.7021  -41.7683 C.2       2 UNK         0.5000 
     61 O           6.2231  -15.3277  -40.6231 O.2       2 UNK        -0.5000 
     62 CA          6.3508  -14.7948  -42.9541 C.3       2 UNK         0.1400 
     63 CB          7.8536  -14.9616  -43.2622 C.3       2 UNK        -0.1800 
     64 N           5.5314  -15.1002  -44.1269 N.am      2 UNK        -0.5000 
     65 C           5.5464  -14.5231  -45.3319 C.2       1 UNK         0.5000 
     66 O           6.2841  -13.5852  -45.6380 O.2       1 UNK        -0.5000 
     67 C          -0.3775  -21.5725  -48.1913 C.2       11 UNK         0.5000 
     68 O          -0.1377  -22.7685  -48.3516 O.2       11 UNK        -0.5000 
     69 N          -1.4262  -20.9470  -48.7470 N.am      12 UNK        -0.5000 
     70 CA         -2.4304  -21.6039  -49.5818 C.3       12 UNK         0.1400 
     71 CB         -3.3850  -20.5622  -50.1823 C.3       12 UNK        -0.1800 
     72 C          -3.2096  -22.6940  -48.8274 C.2       12 UNK         0.5000 
     73 O          -3.4254  -23.7661  -49.3884 O.2       12 UNK        -0.5000 
     74 N          -3.5800  -22.4341  -47.5657 N.am      13 UNK        -0.5000 
     75 CA         -4.2207  -23.4112  -46.6827 C.3       13 UNK         0.1400 
     76 CB         -4.6769  -22.7270  -45.3859 C.3       13 UNK        -0.1800 
     77 C          -3.3236  -24.6270  -46.3865 C.2       13 UNK         0.5000 
     78 O          -3.7998  -25.7597  -46.4658 O.2       13 UNK        -0.5000 
     79 N          -2.0377  -24.3782  -46.1011 N.am      14 UNK        -0.5000 
     80 CA         -1.0207  -25.4091  -45.8787 C.3       14 UNK         0.1400 
     81 CB          0.2638  -24.7539  -45.3486 C.3       14 UNK        -0.1800 
     82 C          -0.7275  -26.2489  -47.1376 C.2       14 UNK         0.5000 
     83 O          -0.5518  -27.4632  -47.0321 O.2       14 UNK        -0.5000 
     84 N          -0.7050  -25.5931  -48.3051 N.am      15 UNK        -0.5000 
     85 CA         -0.5019  -26.2114  -49.6171 C.3       15 UNK         0.1400 
     86 CB         -0.0788  -25.1185  -50.6125 C.3       15 UNK        -0.1800 
     87 C          -1.7374  -26.9639  -50.1535 C.2       15 UNK         0.5000 
     88 O          -1.6065  -27.6923  -51.1380 O.2       15 UNK        -0.5000 
     89 N          -2.9065  -26.7541  -49.5282 N.am      16 UNK        -0.5000 
     90 CA         -4.2381  -27.2061  -49.9509 C.3       16 UNK         0.1400 
     91 CB         -4.3460  -28.7449  -49.9249 C.3       16 UNK        -0.1800 
     92 C          -4.6654  -26.5816  -51.2988 C.2       16 UNK         0.5000 
     93 O          -5.3056  -27.2373  -52.1224 O.2       16 UNK        -0.5000 
     94 N          -4.2965  -25.3094  -51.4837 N.am      17 UNK        -0.5000 
     95 CA         -4.5465  -24.4805  -52.6607 C.3       17 UNK         0.1400 
     96 CB         -3.1973  -23.9489  -53.1732 C.3       17 UNK        -0.1800 
     97 C          -5.5063  -23.3186  -52.3389 C.2       17 UNK         0.5000 
     98 O          -5.6614  -22.4141  -53.1600 O.2       17 UNK        -0.5000 
     99 N          -6.1482  -23.3466  -51.1613 N.am      18 UNK        -0.5000 
    100 CA        -7.0733  -22.3225  -50.6595 C.3       18 UNK         0.1400 
    101 CB        -7.4299  -22.6428  -49.2009 C.3       18 UNK        -0.1800 
    102 C         -8.3480  -22.1253  -51.5072 C.2       18 UNK         0.5000 
    103 O         -9.0130  -21.1002  -51.3624 O.2       18 UNK        -0.5000 
    104 N         -8.6536  -23.0825  -52.3941 N.am      19 UNK        -0.5000 
    105 CA        -9.6840  -22.9577  -53.4262 C.3       19 UNK         0.1400 
    106 CB        -9.9411  -24.3388  -54.0480 C.3       19 UNK        -0.1800 
    107 C         -9.3098  -21.9330  -54.5183 C.2       19 UNK         0.5000 
    108 O        -10.2028  -21.2932  -55.0749 O.2       19 UNK        -0.5000 
    109 N         -8.0056  -21.7900  -54.7952 N.am      20 UNK        -0.5000 
    110 CA        -7.4499  -20.7920  -55.7080 C.3       20 UNK         0.1400 
    111 CB        -6.2637  -21.4021  -56.4717 C.3       20 UNK        -0.1800 
    112 C         -7.0073  -19.5333  -54.9442 C.2       20 UNK         0.5000 
    113 O         -7.2167  -18.4254  -55.4390 O.2       20 UNK        -0.5000 
    114 N         -6.3984  -19.7271  -53.7619 N.am      21 UNK        -0.5000 
    115 CA        -5.9292  -18.7000  -52.8208 C.3       21 UNK         0.1400 
    116 CB        -7.1276  -18.0340  -52.1151 C.3       21 UNK        -0.1800 
    117 C         -4.9708  -17.6754  -53.4662 C.2       21 UNK         0.5000 
    118 O         -5.1133  -16.4703  -53.2523 O.2       21 UNK        -0.5000 
    119 N         -4.0373  -18.1883  -54.2788 N.am      22 UNK        -0.5000 
    120 CA        -3.0796  -17.4317  -55.1079 C.3       22 UNK         0.1400 
    121 C         -3.7103  -16.7133  -56.3425 C.2       22 UNK         0.5000 
    122 N         -4.9905  -16.8861  -56.6508 N.am      22 UNK        -0.7600 
    123 O         -3.0133  -16.0066  -57.0657 O.2       22 UNK        -0.5000 
    124 C124       -2.1577  -16.4749  -54.2959 C.3       23 UNK        -0.0398 
    125 S125       -1.2454  -17.3034  -52.9475 S.3       23 UNK        -0.2404 
    126 C126        0.4775  -17.0351  -53.4732 C.3       23 UNK        -0.0205 
    127 H127        4.9269  -19.0620  -47.0944 H         1 UNK         0.0600 
    128 H128        3.7691  -19.5830  -45.8654 H         1 UNK         0.0600 
    129 H129        5.4650  -19.3542  -45.4359 H         1 UNK         0.0600 
    130 H130        5.1997  -16.8465  -47.3886 H         1 UNK         0.3000 
    131 H131        3.5703  -14.9675  -45.9351 H         1 UNK         0.0600 
    132 H132        4.4571  -13.2920  -47.5623 H         1 UNK         0.0800 
    133 H133        5.5410  -14.4887  -48.2220 H         1 UNK         0.0800 
    134 H134        4.4009  -14.9766  -50.9096 H         1 UNK         0.0800 
    135 H135        5.0158  -16.1803  -49.8017 H         1 UNK         0.0800 
    136 H136        2.1891  -15.3976  -52.1007 H         1 UNK         0.1150 
    137 H137        0.9644  -19.4937  -52.4216 H         1 UNK         0.1150 
    138 H138        4.0633  -18.3807  -49.6720 H         1 UNK         0.1150 
    139 H139        1.6924  -21.0919  -50.7982 H         1 UNK         0.0800 
    140 H140        3.4178  -21.0432  -51.0809 H         1 UNK         0.0800 
    141 H141        1.9173  -19.0798  -47.3758 H         1 UNK         0.0800 
    142 H142        0.9614  -19.2716  -48.8092 H         1 UNK         0.0800 
    143 H143        1.1148  -21.4422  -46.6644 H         1 UNK         0.0600 
    144 H144       -0.1745  -18.9602  -46.3261 H         1 UNK         0.3000 
    145 H145       -2.7807  -20.0556  -44.1500 H         1 UNK         0.0600 
    146 H146       -0.6461  -19.7305  -42.8185 H         1 UNK         0.0600 
    147 H147       -0.3346  -18.2578  -43.7255 H         1 UNK         0.0600 
    148 H148       -1.7649  -18.3915  -42.7022 H         1 UNK         0.0600 
    149 H149       -1.9853  -17.5299  -45.3414 H         1 UNK         0.3000 
    150 H150       -4.1057  -17.7828  -48.1956 H         1 UNK         0.0600 
    151 H151       -5.6678  -17.0512  -46.4077 H         1 UNK         0.0600 
    152 H152       -5.0321  -15.6741  -47.2948 H         1 UNK         0.0600 
    153 H153       -4.4122  -16.0518  -45.6903 H         1 UNK         0.0600 
    154 H154       -2.3779  -15.7348  -47.0872 H         1 UNK         0.3000 
    155 H155        0.5373  -16.7609  -48.8765 H         1 UNK         0.0600 
    156 H156        0.3415  -14.5389  -49.9451 H         1 UNK         0.0600 
    157 H157       -1.3612  -14.4319  -49.4936 H         1 UNK         0.0600 
    158 H158       -0.8251  -15.6369  -50.6548 H         1 UNK         0.0600 
    159 H159        0.0563  -14.3851  -47.4679 H         1 UNK         0.3000 
    160 H160        1.6396  -15.3520  -44.5986 H         1 UNK         0.0600 
    161 H161        0.1863  -13.0019  -45.9392 H         1 UNK         0.0600 
    162 H162        1.8153  -13.5151  -46.3608 H         1 UNK         0.0600 
    163 H163        1.4747  -12.9198  -44.7479 H         1 UNK         0.0600 
    164 H164        0.0881  -14.8782  -43.0990 H         1 UNK         0.3000 
    165 H165       -3.0886  -13.5564  -43.1329 H         1 UNK         0.0600 
    166 H166       -2.6821  -16.4340  -42.1827 H         1 UNK         0.0600 
    167 H167       -4.0059  -15.3537  -41.7703 H         1 UNK         0.0600 
    168 H168       -3.8565  -15.9676  -43.4070 H         1 UNK         0.0600 
    169 H169       -1.4576  -14.7599  -41.0639 H         1 UNK         0.3000 
    170 H170        0.8495  -12.1583  -40.6956 H         1 UNK         0.0600 
    171 H171       -1.0698  -11.1109  -39.4829 H         1 UNK         0.0600 
    172 H172       -1.5307  -12.6791  -38.8319 H         1 UNK         0.0600 
    173 H173        0.0053  -11.9429  -38.3718 H         1 UNK         0.0600 
    174 H174        0.2576  -14.3820  -39.0288 H         1 UNK         0.3000 
    175 H175        1.9250  -16.0511  -38.9979 H         1 UNK         0.0600 
    176 H176        0.3659  -17.4049  -41.2879 H         1 UNK         0.0600 
    177 H177        0.8517  -18.1928  -39.7893 H         1 UNK         0.0600 
    178 H178       -0.3280  -16.8945  -39.7527 H         1 UNK         0.0600 
    179 H179        3.1027  -16.2919  -41.6313 H         1 UNK         0.3000 
    180 H180        5.8951  -18.0263  -40.3828 H         1 UNK         0.0600 
    181 H181        3.9631  -19.1679  -42.4733 H         1 UNK         0.0600 
    182 H182        4.5803  -20.0308  -41.0698 H         1 UNK         0.0600 
    183 H183        5.6825  -19.5390  -42.3461 H         1 UNK         0.0600 
    184 H184        5.1860  -17.1297  -43.0064 H         1 UNK         0.3000 
    185 H185        6.1557  -13.7620  -42.6598 H         1 UNK         0.0600 
    186 H186        8.2042  -14.2260  -43.9852 H         1 UNK         0.0600 
    187 H187        8.4558  -14.8282  -42.3625 H         1 UNK         0.0600 
    188 H188        8.0723  -15.9536  -43.6590 H         1 UNK         0.0600 
    189 H189        4.8462  -15.8411  -44.0081 H         1 UNK         0.3000 
    190 H190       -1.5321  -19.9426  -48.6219 H         1 UNK         0.3000 
    191 H191       -1.9020  -22.0872  -50.4054 H         1 UNK         0.0600 
    192 H192       -4.1075  -21.0366  -50.8459 H         1 UNK         0.0600 
    193 H193       -2.8421  -19.8234  -50.7726 H         1 UNK         0.0600 
    194 H194       -3.9421  -20.0316  -49.4098 H         1 UNK         0.0600 
    195 H195       -3.4193  -21.5079  -47.1827 H         1 UNK         0.3000 
    196 H196       -5.1098  -23.7871  -47.1914 H         1 UNK         0.0600 
    197 H197       -5.1771  -23.4362  -44.7254 H         1 UNK         0.0600 
    198 H198       -5.3827  -21.9226  -45.5937 H         1 UNK         0.0600 
    199 H199       -3.8380  -22.3015  -44.8358 H         1 UNK         0.0600 
    200 H200       -1.7328  -23.4123  -46.0160 H         1 UNK         0.3000 
    201 H201       -1.3965  -26.0870  -45.1096 H         1 UNK         0.0600 
    202 H202        0.0780  -24.2216  -44.4156 H         1 UNK         0.0600 
    203 H203        0.6770  -24.0406  -46.0622 H         1 UNK         0.0600 
    204 H204        1.0315  -25.5026  -45.1496 H         1 UNK         0.0600 
    205 H205       -0.7805  -24.5791  -48.2926 H         1 UNK         0.3000 
    206 H206        0.3124  -26.9343  -49.5369 H         1 UNK         0.0600 
    207 H207        0.8295  -24.6137  -50.2827 H         1 UNK         0.0600 
    208 H208        0.1236  -25.5391  -51.5982 H         1 UNK         0.0600 
    209 H209       -0.8571  -24.3639  -50.7313 H         1 UNK         0.0600 
    210 H210       -2.8975  -26.1166  -48.7426 H         1 UNK         0.3000 
    211 H211       -4.9341  -26.8183  -49.2057 H         1 UNK         0.0600 
    212 H212       -3.7354  -29.2108  -50.6985 H         1 UNK         0.0600 
    213 H213       -5.3757  -29.0652  -50.0874 H         1 UNK         0.0600 
    214 H214       -4.0307  -29.1450  -48.9612 H         1 UNK         0.0600 
    215 H215       -3.8185  -24.8375  -50.7153 H         1 UNK         0.3000 
    216 H216       -5.0101  -25.0716  -53.4524 H         1 UNK         0.0600 
    217 H217       -3.3227  -23.3704  -54.0894 H         1 UNK         0.0600 
    218 H218       -2.5129  -24.7672  -53.3982 H         1 UNK         0.0600 
    219 H219       -2.7149  -23.3033  -52.4388 H         1 UNK         0.0600 
    220 H220       -5.9580  -24.1217  -50.5436 H         1 UNK         0.3000 
    221 H221       -6.5446  -21.3675  -50.6725 H         1 UNK         0.0600 
    222 H222       -7.8786  -23.6318  -49.1026 H         1 UNK         0.0600 
    223 H223       -6.5447  -22.6054  -48.5680 H         1 UNK         0.0600 
    224 H224       -8.1390  -21.9176  -48.7993 H         1 UNK         0.0600 
    225 H225       -8.0718  -23.9062  -52.4271 H         1 UNK         0.3000 
    226 H226      -10.6072  -22.6181  -52.9518 H         1 UNK         0.0600 
    227 H227      -10.2695  -25.0556  -53.2951 H         1 UNK         0.0600 
    228 H228      -10.7226  -24.2852  -54.8071 H         1 UNK         0.0600 
    229 H229       -9.0460  -24.7389  -54.5261 H         1 UNK         0.0600 
    230 H230       -7.3310  -22.3202  -54.2563 H         1 UNK         0.3000 
    231 H231       -8.2030  -20.4944  -56.4407 H         1 UNK         0.0600 
    232 H232       -5.8358  -20.6796  -57.1680 H         1 UNK         0.0600 
    233 H233       -6.5766  -22.2686  -57.0543 H         1 UNK         0.0600 
    234 H234       -5.4664  -21.7220  -55.8000 H         1 UNK         0.0600 
    235 H235       -6.2044  -20.6877  -53.4895 H         1 UNK         0.3000 
    236 H236       -5.3480  -19.2209  -52.0594 H         1 UNK         0.0600 
    237 H237       -7.7567  -18.7740  -51.6227 H         1 UNK         0.0600 
    238 H238       -6.7930  -17.3357  -51.3471 H         1 UNK         0.0600 
    239 H239       -7.7509  -17.4785  -52.8165 H         1 UNK         0.0600 
    240 H240       -4.0174  -19.1901  -54.4014 H         1 UNK         0.3000 
    241 H241       -2.4324  -18.1924  -55.5456 H         1 UNK         0.0600 
    242 H242       -5.6109  -17.4424  -56.0724 H         1 UNK         0.3800 
    243 H243       -5.3638  -16.4186  -57.4616 H         1 UNK         0.3800 
    244 H244       -1.4371  -15.9984  -54.9621 H         1 UNK         0.0800 
    245 H245       -2.7346  -15.6571  -53.8632 H         1 UNK         0.0800 
    246 H246        0.6082  -15.9892  -53.7555 H         1 UNK         0.0800 
    247 H247        0.6789  -17.6269  -54.3672 H         1 UNK         0.0800 
@<TRIPOS>BOND
     1    1    2 1    
     2    1  127 1    
     3    1  128 1    
     4    1  129 1    
     5    2    3 2    
     6    2    4 am   BACKBONE|DICT|INTERRES
     7    4    5 1    
     8    4  130 1    
     9    5    6 1    
    10    5   65 1    
    11    5  131 1    
    12    6    7 1    
    13    6  132 1    
    14    6  133 1    
    15    7    8 1    
    16    8    9 1    
    17    8  134 1    
    18    8  135 1    
    19    9   10 ar   
    20    9   14 ar   
    21   10   11 ar   
    22   10  136 1    
    23   11   12 ar   
    24   11  126 1    
    25   12   13 ar   
    26   12  137 1    
    27   13   14 ar   
    28   13   15 1    
    29   14  138 1    
    30   15   16 1    
    31   15  139 1    
    32   15  140 1    
    33   16   17 1    
    34   17   18 1    
    35   17  141 1    
    36   17  142 1    
    37   18   19 1    
    38   18   67 1    
    39   18  143 1    
    40   19   20 am   BACKBONE|DICT|INTERRES
    41   19  144 1    
    42   20   21 2    
    43   20   22 1    
    44   22   23 1    
    45   22   24 1    
    46   22  145 1    
    47   23  146 1    
    48   23  147 1    
    49   23  148 1    
    50   24   25 am   BACKBONE|DICT|INTERRES
    51   24  149 1    
    52   25   26 2    
    53   25   27 1    
    54   27   28 1    
    55   27   29 1    
    56   27  150 1    
    57   28  151 1    
    58   28  152 1    
    59   28  153 1    
    60   29   30 am   BACKBONE|DICT|INTERRES
    61   29  154 1    
    62   30   31 2    
    63   30   32 1    
    64   32   33 1    
    65   32   34 1    
    66   32  155 1    
    67   33  156 1    
    68   33  157 1    
    69   33  158 1    
    70   34   35 am   BACKBONE|DICT|INTERRES
    71   34  159 1    
    72   35   36 2    
    73   35   37 1    
    74   37   38 1    
    75   37   39 1    
    76   37  160 1    
    77   38  161 1    
    78   38  162 1    
    79   38  163 1    
    80   39   40 am   BACKBONE|DICT|INTERRES
    81   39  164 1    
    82   40   41 2    
    83   40   42 1    
    84   42   43 1    
    85   42   44 1    
    86   42  165 1    
    87   43  166 1    
    88   43  167 1    
    89   43  168 1    
    90   44   45 am   BACKBONE|DICT|INTERRES
    91   44  169 1    
    92   45   46 2    
    93   45   47 1    
    94   47   48 1    
    95   47   49 1    
    96   47  170 1    
    97   48  171 1    
    98   48  172 1    
    99   48  173 1    
   100   49   50 am   BACKBONE|DICT|INTERRES
   101   49  174 1    
   102   50   51 2    
   103   50   52 1    
   104   52   53 1    
   105   52   54 1    
   106   52  175 1    
   107   53  176 1    
   108   53  177 1    
   109   53  178 1    
   110   54   55 am   BACKBONE|DICT|INTERRES
   111   54  179 1    
   112   55   56 2    
   113   55   57 1    
   114   57   58 1    
   115   57   59 1    
   116   57  180 1    
   117   58  181 1    
   118   58  182 1    
   119   58  183 1    
   120   59   60 am   BACKBONE|DICT|INTERRES
   121   59  184 1    
   122   60   61 2    
   123   60   62 1    
   124   62   63 1    
   125   62   64 1    
   126   62  185 1    
   127   63  186 1    
   128   63  187 1    
   129   63  188 1    
   130   64   65 am   BACKBONE|DICT|INTERRES
   131   64  189 1    
   132   65   66 2    
   133   67   68 2    
   134   67   69 am   BACKBONE|DICT|INTERRES
   135   69   70 1    
   136   69  190 1    
   137   70   71 1    
   138   70   72 1    
   139   70  191 1    
   140   71  192 1    
   141   71  193 1    
   142   71  194 1    
   143   72   73 2    
   144   72   74 am   BACKBONE|DICT|INTERRES
   145   74   75 1    
   146   74  195 1    
   147   75   76 1    
   148   75   77 1    
   149   75  196 1    
   150   76  197 1    
   151   76  198 1    
   152   76  199 1    
   153   77   78 2    
   154   77   79 am   BACKBONE|DICT|INTERRES
   155   79   80 1    
   156   79  200 1    
   157   80   81 1    
   158   80   82 1    
   159   80  201 1    
   160   81  202 1    
   161   81  203 1    
   162   81  204 1    
   163   82   83 2    
   164   82   84 am   BACKBONE|DICT|INTERRES
   165   84   85 1    
   166   84  205 1    
   167   85   86 1    
   168   85   87 1    
   169   85  206 1    
   170   86  207 1    
   171   86  208 1    
   172   86  209 1    
   173   87   88 2    
   174   87   89 am   BACKBONE|DICT|INTERRES
   175   89   90 1    
   176   89  210 1    
   177   90   91 1    
   178   90   92 1    
   179   90  211 1    
   180   91  212 1    
   181   91  213 1    
   182   91  214 1    
   183   92   93 2    
   184   92   94 am   BACKBONE|DICT|INTERRES
   185   94   95 1    
   186   94  215 1    
   187   95   96 1    
   188   95   97 1    
   189   95  216 1    
   190   96  217 1    
   191   96  218 1    
   192   96  219 1    
   193   97   98 2    
   194   97   99 am   BACKBONE|DICT|INTERRES
   195   99  100 1    
   196   99  220 1    
   197  100  101 1    
   198  100  102 1    
   199  100  221 1    
   200  101  222 1    
   201  101  223 1    
   202  101  224 1    
   203  102  103 2    
   204  102  104 am   BACKBONE|DICT|INTERRES
   205  104  105 1    
   206  104  225 1    
   207  105  106 1    
   208  105  107 1    
   209  105  226 1    
   210  106  227 1    
   211  106  228 1    
   212  106  229 1    
   213  107  108 2    
   214  107  109 am   BACKBONE|DICT|INTERRES
   215  109  110 1    
   216  109  230 1    
   217  110  111 1    
   218  110  112 1    
   219  110  231 1    
   220  111  232 1    
   221  111  233 1    
   222  111  234 1    
   223  112  113 2    
   224  112  114 am   BACKBONE|DICT|INTERRES
   225  114  115 1    
   226  114  235 1    
   227  115  116 1    
   228  115  117 1    
   229  115  236 1    
   230  116  237 1    
   231  116  238 1    
   232  116  239 1    
   233  117  118 2    
   234  117  119 am   BACKBONE|DICT|INTERRES
   235  119  120 1    
   236  119  240 1    
   237  120  121 1    
   238  120  124 1    
   239  120  241 1    
   240  121  122 am   BACKBONE|DICT|INTERRES
   241  121  123 2    
   242  122  242 1    
   243  122  243 1    
   244  124  125 1    
   245  124  244 1    
   246  124  245 1    
   247  125  126 1    
   248  126  246 1    
   249  126  247 1    
@<TRIPOS>SUBSTRUCTURE
     1 UNK         1 GROUP             0       ****    0 ROOT    
