@<TRIPOS>MOLECULE
3R540
247   249    1
SMALL
USER_CHARGES


@<TRIPOS>ATOM
      1 CA          2.3063  -14.6550  -54.0669 C.3       0 UNK        -0.1800 
      2 C           2.3329  -14.1954  -52.6159 C.2       0 UNK         0.5000 
      3 O           2.4408  -12.9976  -52.3515 O.2       0 UNK        -0.5000 
      4 N           2.2401  -15.1448  -51.6790 N.am      1 UNK        -0.5000 
      5 CA          2.1510  -14.8977  -50.2381 C.3       1 UNK         0.1400 
      6 C6          2.5269  -16.1635  -49.4225 C.3       23 UNK        -0.0398 
      7 S7          4.3306  -16.4178  -49.3286 S.3       23 UNK        -0.2404 
      8 C8          4.7065  -17.3982  -50.8237 C.3       23 UNK        -0.0205 
      9 C9          4.2335  -18.8478  -50.7669 C.ar      23 UNK        -0.0193 
     10 C10         3.5455  -19.4029  -51.8519 C.ar      23 UNK        -0.1150 
     11 C11         3.1814  -20.7543  -51.8504 C.ar      23 UNK        -0.0193 
     12 C12         3.4928  -21.5477  -50.7440 C.ar      23 UNK        -0.1150 
     13 C13         4.1683  -21.0050  -49.6482 C.ar      23 UNK        -0.0193 
     14 C14         4.5464  -19.6590  -49.6711 C.ar      23 UNK        -0.1150 
     15 C15         4.5046  -21.8796  -48.4488 C.3       23 UNK        -0.0205 
     16 S16         3.6398  -21.3430  -46.9401 S.3       23 UNK        -0.2404 
     17 C17         1.8882  -21.6121  -47.3765 C.3       23 UNK        -0.0398 
     18 CA          1.2326  -22.7692  -46.5876 C.3       11 UNK         0.1400 
     19 N           1.3921  -22.6259  -45.1366 N.am      11 UNK        -0.5000 
     20 C           1.1129  -23.5581  -44.2165 C.2       10 UNK         0.5000 
     21 O           0.7593  -24.7026  -44.5029 O.2       10 UNK        -0.5000 
     22 CA          1.1645  -23.1132  -42.7382 C.3       10 UNK         0.1400 
     23 CB          1.6276  -24.2381  -41.7899 C.3       10 UNK        -0.1800 
     24 N           1.9178  -21.8718  -42.5179 N.am      10 UNK        -0.5000 
     25 C           3.2385  -21.6734  -42.6455 C.2       9 UNK         0.5000 
     26 O           4.0413  -22.5629  -42.9289 O.2       9 UNK        -0.5000 
     27 CA          3.7577  -20.2343  -42.4450 C.3       9 UNK         0.1400 
     28 CB          4.2728  -19.6575  -43.7723 C.3       9 UNK        -0.1800 
     29 N           2.7547  -19.3169  -41.8991 N.am      9 UNK        -0.5000 
     30 C           2.4061  -19.2430  -40.6083 C.2       8 UNK         0.5000 
     31 O           2.9029  -19.9422  -39.7246 O.2       8 UNK        -0.5000 
     32 CA          1.3015  -18.2313  -40.2483 C.3       8 UNK         0.1400 
     33 CB          1.8830  -16.8151  -40.1193 C.3       8 UNK        -0.1800 
     34 N           0.1939  -18.2183  -41.2070 N.am      8 UNK        -0.5000 
     35 C          -0.6460  -19.2430  -41.4141 C.2       7 UNK         0.5000 
     36 O          -0.5705  -20.3210  -40.8243 O.2       7 UNK        -0.5000 
     37 CA         -1.7328  -19.0456  -42.4858 C.3       7 UNK         0.1400 
     38 CB         -2.8853  -18.1825  -41.9518 C.3       7 UNK        -0.1800 
     39 N          -1.1991  -18.4596  -43.7147 N.am      7 UNK        -0.5000 
     40 C          -0.3333  -19.0821  -44.5256 C.2       6 UNK         0.5000 
     41 O           0.0306  -20.2456  -44.3637 O.2       6 UNK        -0.5000 
     42 CA          0.2505  -18.2741  -45.6957 C.3       6 UNK         0.1400 
     43 CB         -0.6813  -18.3298  -46.9159 C.3       6 UNK        -0.1800 
     44 N           0.5234  -16.8837  -45.3435 N.am      6 UNK        -0.5000 
     45 C           1.4066  -16.4868  -44.4175 C.2       5 UNK         0.5000 
     46 O           2.1127  -17.2559  -43.7679 O.2       5 UNK        -0.5000 
     47 CA          1.4671  -14.9788  -44.1293 C.3       5 UNK         0.1400 
     48 CB          2.2667  -14.2397  -45.2141 C.3       5 UNK        -0.1800 
     49 N           0.1298  -14.3982  -44.0125 N.am      5 UNK        -0.5000 
     50 C          -0.7262  -14.6639  -43.0154 C.2       4 UNK         0.5000 
     51 O          -0.4656  -15.4057  -42.0679 O.2       4 UNK        -0.5000 
     52 CA         -2.1213  -14.0204  -43.1173 C.3       4 UNK         0.1400 
     53 CB         -2.0919  -12.5758  -42.5965 C.3       4 UNK        -0.1800 
     54 N          -2.6469  -14.0342  -44.4838 N.am      4 UNK        -0.5000 
     55 C          -3.0017  -15.1471  -45.1413 C.2       3 UNK         0.5000 
     56 O          -2.9493  -16.2751  -44.6530 O.2       3 UNK        -0.5000 
     57 CA         -3.4353  -14.9752  -46.6093 C.3       3 UNK         0.1400 
     58 CB         -4.9180  -14.5890  -46.7001 C.3       3 UNK        -0.1800 
     59 N          -2.6296  -14.0023  -47.3550 N.am      3 UNK        -0.5000 
     60 C          -1.3065  -14.1007  -47.5353 C.2       2 UNK         0.5000 
     61 O          -0.6175  -14.9906  -47.0346 O.2       2 UNK        -0.5000 
     62 CA         -0.6290  -12.9990  -48.3700 C.3       2 UNK         0.1400 
     63 CB         -0.3443  -11.7702  -47.4922 C.3       2 UNK        -0.1800 
     64 N           0.6334  -13.4653  -48.9476 N.am      2 UNK        -0.5000 
     65 C           0.7290  -14.4156  -49.8859 C.2       1 UNK         0.5000 
     66 O          -0.2459  -14.9267  -50.4441 O.2       1 UNK        -0.5000 
     67 C          -0.2548  -22.8841  -46.9806 C.2       11 UNK         0.5000 
     68 O          -0.5646  -23.5151  -47.9902 O.2       11 UNK        -0.5000 
     69 N          -1.1457  -22.3201  -46.1478 N.am      12 UNK        -0.5000 
     70 CA         -2.6057  -22.3760  -46.2649 C.3       12 UNK         0.1400 
     71 CB         -3.2303  -21.6174  -45.0848 C.3       12 UNK        -0.1800 
     72 C          -3.1857  -23.8038  -46.3565 C.2       12 UNK         0.5000 
     73 O          -4.2607  -23.9842  -46.9283 O.2       12 UNK        -0.5000 
     74 N          -2.4611  -24.7912  -45.8102 N.am      13 UNK        -0.5000 
     75 CA         -2.7879  -26.2130  -45.9026 C.3       13 UNK         0.1400 
     76 CB         -1.9891  -26.9767  -44.8355 C.3       13 UNK        -0.1800 
     77 C          -2.5255  -26.8090  -47.3011 C.2       13 UNK         0.5000 
     78 O          -3.1730  -27.7940  -47.6584 O.2       13 UNK        -0.5000 
     79 N          -1.5912  -26.2217  -48.0642 N.am      14 UNK        -0.5000 
     80 CA         -1.2794  -26.6220  -49.4366 C.3       14 UNK         0.1400 
     81 CB          0.1805  -26.2721  -49.7702 C.3       14 UNK        -0.1800 
     82 C          -2.2512  -25.9621  -50.4272 C.2       14 UNK         0.5000 
     83 O          -2.8200  -26.6550  -51.2720 O.2       14 UNK        -0.5000 
     84 N          -2.4546  -24.6480  -50.2796 N.am      15 UNK        -0.5000 
     85 CA         -3.4382  -23.8611  -51.0149 C.3       15 UNK         0.1400 
     86 CB         -2.9296  -23.5254  -52.4247 C.3       15 UNK        -0.1800 
     87 C          -3.7432  -22.6003  -50.1972 C.2       15 UNK         0.5000 
     88 O          -2.8234  -22.0006  -49.6416 O.2       15 UNK        -0.5000 
     89 N          -5.0324  -22.2530  -50.1071 N.am      16 UNK        -0.5000 
     90 CA         -5.5933  -21.3149  -49.1307 C.3       16 UNK         0.1400 
     91 CB         -7.1275  -21.4045  -49.1922 C.3       16 UNK        -0.1800 
     92 C          -5.1485  -19.8435  -49.2399 C.2       16 UNK         0.5000 
     93 O          -5.3686  -19.1019  -48.2815 O.2       16 UNK        -0.5000 
     94 N          -4.5847  -19.4262  -50.3839 N.am      17 UNK        -0.5000 
     95 CA         -4.0927  -18.0792  -50.7220 C.3       17 UNK         0.1400 
     96 CB         -2.9671  -17.6479  -49.7625 C.3       17 UNK        -0.1800 
     97 C          -5.1748  -16.9826  -50.8303 C.2       17 UNK         0.5000 
     98 O          -5.1074  -16.1566  -51.7402 O.2       17 UNK        -0.5000 
     99 N          -6.1522  -16.9838  -49.9159 N.am      18 UNK        -0.5000 
    100 CA        -7.2442  -16.0119  -49.8287 C.3       18 UNK         0.1400 
    101 CB        -7.9814  -16.2135  -48.4956 C.3       18 UNK        -0.1800 
    102 C         -8.2408  -16.0937  -51.0003 C.2       18 UNK         0.5000 
    103 O         -8.7840  -15.0664  -51.4083 O.2       18 UNK        -0.5000 
    104 N         -8.4655  -17.3095  -51.5108 N.am      19 UNK        -0.5000 
    105 CA        -9.3900  -17.6131  -52.6028 C.3       19 UNK         0.1400 
    106 CB       -10.8338  -17.6951  -52.0664 C.3       19 UNK        -0.1800 
    107 C         -8.9390  -18.8948  -53.3248 C.2       19 UNK         0.5000 
    108 O         -9.7648  -19.7452  -53.6613 O.2       19 UNK        -0.5000 
    109 N         -7.6235  -19.0252  -53.5218 N.am      20 UNK        -0.5000 
    110 CA        -6.9543  -20.1680  -54.1342 C.3       20 UNK         0.1400 
    111 CB        -6.8863  -21.3349  -53.1265 C.3       20 UNK        -0.1800 
    112 C         -5.5536  -19.7275  -54.5903 C.2       20 UNK         0.5000 
    113 O         -5.2327  -18.5371  -54.5297 O.2       20 UNK        -0.5000 
    114 N         -4.7386  -20.6995  -55.0180 N.am      21 UNK        -0.5000 
    115 CA        -3.3103  -20.5365  -55.2961 C.3       21 UNK         0.1400 
    116 CB        -2.7958  -21.8204  -55.9701 C.3       21 UNK        -0.1800 
    117 C         -2.4948  -20.2149  -54.0245 C.2       21 UNK         0.5000 
    118 O         -3.0110  -20.3376  -52.9106 O.2       21 UNK        -0.5000 
    119 N         -1.2297  -19.8297  -54.2287 N.am      22 UNK        -0.5000 
    120 CA        -0.2938  -19.3420  -53.2013 C.3       22 UNK         0.1400 
    121 C         -0.6581  -17.9207  -52.6763 C.2       22 UNK         0.5000 
    122 N         -0.1211  -17.5055  -51.5376 N.am      22 UNK        -0.7600 
    123 O         -1.3676  -17.1577  -53.3275 O.2       22 UNK        -0.5000 
    124 C124        0.0073  -20.3782  -52.0744 C.3       23 UNK        -0.0398 
    125 S125        0.7736  -21.9118  -52.6964 S.3       23 UNK        -0.2404 
    126 C126        2.4784  -21.3677  -53.0550 C.3       23 UNK        -0.0205 
    127 H127        1.4742  -14.1870  -54.5928 H         1 UNK         0.0600 
    128 H128        2.1923  -15.7365  -54.1475 H         1 UNK         0.0600 
    129 H129        3.2318  -14.3716  -54.5680 H         1 UNK         0.0600 
    130 H130        2.0906  -16.1001  -51.9662 H         1 UNK         0.3000 
    131 H131        2.8483  -14.0973  -49.9799 H         1 UNK         0.0600 
    132 H132        2.1779  -16.0745  -48.3912 H         1 UNK         0.0800 
    133 H133        2.0488  -17.0587  -49.8191 H         1 UNK         0.0800 
    134 H134        5.7891  -17.4073  -50.9556 H         1 UNK         0.0800 
    135 H135        4.3069  -16.8901  -51.7010 H         1 UNK         0.0800 
    136 H136        3.3187  -18.7899  -52.7128 H         1 UNK         0.1150 
    137 H137        3.2081  -22.5907  -50.7414 H         1 UNK         0.1150 
    138 H138        5.0881  -19.2440  -48.8326 H         1 UNK         0.1150 
    139 H139        4.2638  -22.9256  -48.6450 H         1 UNK         0.0800 
    140 H140        5.5800  -21.8400  -48.2714 H         1 UNK         0.0800 
    141 H141        1.8013  -21.7984  -48.4479 H         1 UNK         0.0800 
    142 H142        1.3584  -20.6772  -47.1972 H         1 UNK         0.0800 
    143 H143        1.7202  -23.7007  -46.8828 H         1 UNK         0.0600 
    144 H144        1.5968  -21.6933  -44.8031 H         1 UNK         0.3000 
    145 H145        0.1341  -22.8727  -42.4723 H         1 UNK         0.0600 
    146 H146        1.6537  -23.8958  -40.7554 H         1 UNK         0.0600 
    147 H147        0.9459  -25.0884  -41.8320 H         1 UNK         0.0600 
    148 H148        2.6202  -24.6068  -42.0487 H         1 UNK         0.0600 
    149 H149        1.3505  -21.0630  -42.3005 H         1 UNK         0.3000 
    150 H150        4.5989  -20.2873  -41.7509 H         1 UNK         0.0600 
    151 H151        5.0406  -20.2963  -44.2106 H         1 UNK         0.0600 
    152 H152        4.7140  -18.6711  -43.6288 H         1 UNK         0.0600 
    153 H153        3.4688  -19.5592  -44.5024 H         1 UNK         0.0600 
    154 H154        2.3423  -18.6576  -42.5564 H         1 UNK         0.3000 
    155 H155        0.8958  -18.5187  -39.2761 H         1 UNK         0.0600 
    156 H156        2.7024  -16.7920  -39.3998 H         1 UNK         0.0600 
    157 H157        1.1272  -16.1094  -39.7743 H         1 UNK         0.0600 
    158 H158        2.2699  -16.4503  -41.0713 H         1 UNK         0.0600 
    159 H159        0.0466  -17.3526  -41.7160 H         1 UNK         0.3000 
    160 H160       -2.1375  -20.0298  -42.7287 H         1 UNK         0.0600 
    161 H161       -2.5609  -17.1656  -41.7306 H         1 UNK         0.0600 
    162 H162       -3.2972  -18.6041  -41.0342 H         1 UNK         0.0600 
    163 H163       -3.6984  -18.1234  -42.6756 H         1 UNK         0.0600 
    164 H164       -1.5185  -17.5269  -43.9546 H         1 UNK         0.3000 
    165 H165        1.2041  -18.7296  -45.9676 H         1 UNK         0.0600 
    166 H166       -0.2391  -17.8230  -47.7740 H         1 UNK         0.0600 
    167 H167       -0.8834  -19.3599  -47.2128 H         1 UNK         0.0600 
    168 H168       -1.6408  -17.8552  -46.7082 H         1 UNK         0.0600 
    169 H169        0.0077  -16.1740  -45.8623 H         1 UNK         0.3000 
    170 H170        1.9815  -14.8407  -43.1759 H         1 UNK         0.0600 
    171 H171        3.2810  -14.6346  -45.2840 H         1 UNK         0.0600 
    172 H172        1.8106  -14.3407  -46.1986 H         1 UNK         0.0600 
    173 H173        2.3470  -13.1762  -44.9889 H         1 UNK         0.0600 
    174 H174       -0.1876  -13.8307  -44.7833 H         1 UNK         0.3000 
    175 H175       -2.8002  -14.5969  -42.4850 H         1 UNK         0.0600 
    176 H176       -1.7175  -12.5384  -41.5726 H         1 UNK         0.0600 
    177 H177       -1.4484  -11.9391  -43.2050 H         1 UNK         0.0600 
    178 H178       -3.0903  -12.1382  -42.5922 H         1 UNK         0.0600 
    179 H179       -2.7168  -13.1472  -44.9599 H         1 UNK         0.3000 
    180 H180       -3.3099  -15.9441  -47.0936 H         1 UNK         0.0600 
    181 H181       -5.1054  -13.6012  -46.2776 H         1 UNK         0.0600 
    182 H182       -5.5391  -15.3020  -46.1562 H         1 UNK         0.0600 
    183 H183       -5.2593  -14.5832  -47.7352 H         1 UNK         0.0600 
    184 H184       -3.1290  -13.2351  -47.7812 H         1 UNK         0.3000 
    185 H185       -1.2987  -12.7119  -49.1833 H         1 UNK         0.0600 
    186 H186       -1.2640  -11.3703  -47.0635 H         1 UNK         0.0600 
    187 H187        0.3257  -12.0107  -46.6656 H         1 UNK         0.0600 
    188 H188        0.1145  -10.9695  -48.0726 H         1 UNK         0.0600 
    189 H189        1.4760  -13.1058  -48.5247 H         1 UNK         0.3000 
    190 H190       -0.7796  -21.7923  -45.3622 H         1 UNK         0.3000 
    191 H191       -2.8816  -21.8463  -47.1743 H         1 UNK         0.0600 
    192 H192       -2.9217  -22.0384  -44.1273 H         1 UNK         0.0600 
    193 H193       -4.3197  -21.6547  -45.1265 H         1 UNK         0.0600 
    194 H194       -2.9467  -20.5652  -45.1006 H         1 UNK         0.0600 
    195 H195       -1.5836  -24.5594  -45.3652 H         1 UNK         0.3000 
    196 H196       -3.8508  -26.3365  -45.6845 H         1 UNK         0.0600 
    197 H197       -2.2417  -28.0377  -44.8433 H         1 UNK         0.0600 
    198 H198       -2.2030  -26.5991  -43.8355 H         1 UNK         0.0600 
    199 H199       -0.9143  -26.8943  -45.0024 H         1 UNK         0.0600 
    200 H200       -1.1514  -25.3674  -47.7391 H         1 UNK         0.3000 
    201 H201       -1.3864  -27.7052  -49.5266 H         1 UNK         0.0600 
    202 H202        0.8683  -26.7329  -49.0612 H         1 UNK         0.0600 
    203 H203        0.3597  -25.1970  -49.7603 H         1 UNK         0.0600 
    204 H204        0.4462  -26.6346  -50.7639 H         1 UNK         0.0600 
    205 H205       -1.9497  -24.1354  -49.5616 H         1 UNK         0.3000 
    206 H206       -4.3548  -24.4487  -51.1017 H         1 UNK         0.0600 
    207 H207       -2.7087  -24.4247  -52.9991 H         1 UNK         0.0600 
    208 H208       -3.6822  -22.9644  -52.9784 H         1 UNK         0.0600 
    209 H209       -2.0241  -22.9205  -52.3871 H         1 UNK         0.0600 
    210 H210       -5.7089  -22.7991  -50.6195 H         1 UNK         0.3000 
    211 H211       -5.2804  -21.6577  -48.1426 H         1 UNK         0.0600 
    212 H212       -7.5888  -20.7722  -48.4322 H         1 UNK         0.0600 
    213 H213       -7.4719  -22.4230  -49.0118 H         1 UNK         0.0600 
    214 H214       -7.5139  -21.0842  -50.1599 H         1 UNK         0.0600 
    215 H215       -4.4055  -20.1202  -51.0996 H         1 UNK         0.3000 
    216 H216       -3.6537  -18.1622  -51.7160 H         1 UNK         0.0600 
    217 H217       -2.5415  -16.6897  -50.0629 H         1 UNK         0.0600 
    218 H218       -2.1588  -18.3789  -49.7561 H         1 UNK         0.0600 
    219 H219       -3.3214  -17.5393  -48.7392 H         1 UNK         0.0600 
    220 H220       -6.0929  -17.6858  -49.1817 H         1 UNK         0.3000 
    221 H221       -6.8058  -15.0120  -49.8331 H         1 UNK         0.0600 
    222 H222       -8.4424  -17.2003  -48.4369 H         1 UNK         0.0600 
    223 H223       -7.3055  -16.1130  -47.6475 H         1 UNK         0.0600 
    224 H224       -8.7724  -15.4729  -48.3704 H         1 UNK         0.0600 
    225 H225       -7.9657  -18.0965  -51.1219 H         1 UNK         0.3000 
    226 H226       -9.3419  -16.8119  -53.3432 H         1 UNK         0.0600 
    227 H227      -11.1380  -16.7590  -51.5983 H         1 UNK         0.0600 
    228 H228      -11.5419  -17.8954  -52.8713 H         1 UNK         0.0600 
    229 H229      -10.9400  -18.4893  -51.3266 H         1 UNK         0.0600 
    230 H230       -7.0039  -18.2517  -53.3107 H         1 UNK         0.3000 
    231 H231       -7.5128  -20.4778  -55.0197 H         1 UNK         0.0600 
    232 H232       -7.8733  -21.5981  -52.7465 H         1 UNK         0.0600 
    233 H233       -6.2578  -21.0757  -52.2760 H         1 UNK         0.0600 
    234 H234       -6.4734  -22.2358  -53.5808 H         1 UNK         0.0600 
    235 H235       -5.0821  -21.6479  -55.0229 H         1 UNK         0.3000 
    236 H236       -3.1929  -19.7029  -55.9916 H         1 UNK         0.0600 
    237 H237       -1.7454  -21.7293  -56.2484 H         1 UNK         0.0600 
    238 H238       -2.8842  -22.6853  -55.3123 H         1 UNK         0.0600 
    239 H239       -3.3512  -22.0359  -56.8831 H         1 UNK         0.0600 
    240 H240       -0.8989  -19.7529  -55.1790 H         1 UNK         0.3000 
    241 H241        0.6383  -19.1736  -53.7396 H         1 UNK         0.0600 
    242 H242       -0.3371  -16.5644  -51.2115 H         1 UNK         0.3800 
    243 H243        0.4357  -18.1158  -50.9661 H         1 UNK         0.3800 
    244 H244        0.6737  -19.9684  -51.3171 H         1 UNK         0.0800 
    245 H245       -0.9023  -20.6429  -51.5341 H         1 UNK         0.0800 
    246 H246        3.0527  -22.2308  -53.3945 H         1 UNK         0.0800 
    247 H247        2.4655  -20.6706  -53.8935 H         1 UNK         0.0800 
@<TRIPOS>BOND
     1    1    2 1    
     2    1  127 1    
     3    1  128 1    
     4    1  129 1    
     5    2    3 2    
     6    2    4 am   BACKBONE|DICT|INTERRES
     7    4    5 1    
     8    4  130 1    
     9    5    6 1    
    10    5   65 1    
    11    5  131 1    
    12    6    7 1    
    13    6  132 1    
    14    6  133 1    
    15    7    8 1    
    16    8    9 1    
    17    8  134 1    
    18    8  135 1    
    19    9   10 ar   
    20    9   14 ar   
    21   10   11 ar   
    22   10  136 1    
    23   11   12 ar   
    24   11  126 1    
    25   12   13 ar   
    26   12  137 1    
    27   13   14 ar   
    28   13   15 1    
    29   14  138 1    
    30   15   16 1    
    31   15  139 1    
    32   15  140 1    
    33   16   17 1    
    34   17   18 1    
    35   17  141 1    
    36   17  142 1    
    37   18   19 1    
    38   18   67 1    
    39   18  143 1    
    40   19   20 am   BACKBONE|DICT|INTERRES
    41   19  144 1    
    42   20   21 2    
    43   20   22 1    
    44   22   23 1    
    45   22   24 1    
    46   22  145 1    
    47   23  146 1    
    48   23  147 1    
    49   23  148 1    
    50   24   25 am   BACKBONE|DICT|INTERRES
    51   24  149 1    
    52   25   26 2    
    53   25   27 1    
    54   27   28 1    
    55   27   29 1    
    56   27  150 1    
    57   28  151 1    
    58   28  152 1    
    59   28  153 1    
    60   29   30 am   BACKBONE|DICT|INTERRES
    61   29  154 1    
    62   30   31 2    
    63   30   32 1    
    64   32   33 1    
    65   32   34 1    
    66   32  155 1    
    67   33  156 1    
    68   33  157 1    
    69   33  158 1    
    70   34   35 am   BACKBONE|DICT|INTERRES
    71   34  159 1    
    72   35   36 2    
    73   35   37 1    
    74   37   38 1    
    75   37   39 1    
    76   37  160 1    
    77   38  161 1    
    78   38  162 1    
    79   38  163 1    
    80   39   40 am   BACKBONE|DICT|INTERRES
    81   39  164 1    
    82   40   41 2    
    83   40   42 1    
    84   42   43 1    
    85   42   44 1    
    86   42  165 1    
    87   43  166 1    
    88   43  167 1    
    89   43  168 1    
    90   44   45 am   BACKBONE|DICT|INTERRES
    91   44  169 1    
    92   45   46 2    
    93   45   47 1    
    94   47   48 1    
    95   47   49 1    
    96   47  170 1    
    97   48  171 1    
    98   48  172 1    
    99   48  173 1    
   100   49   50 am   BACKBONE|DICT|INTERRES
   101   49  174 1    
   102   50   51 2    
   103   50   52 1    
   104   52   53 1    
   105   52   54 1    
   106   52  175 1    
   107   53  176 1    
   108   53  177 1    
   109   53  178 1    
   110   54   55 am   BACKBONE|DICT|INTERRES
   111   54  179 1    
   112   55   56 2    
   113   55   57 1    
   114   57   58 1    
   115   57   59 1    
   116   57  180 1    
   117   58  181 1    
   118   58  182 1    
   119   58  183 1    
   120   59   60 am   BACKBONE|DICT|INTERRES
   121   59  184 1    
   122   60   61 2    
   123   60   62 1    
   124   62   63 1    
   125   62   64 1    
   126   62  185 1    
   127   63  186 1    
   128   63  187 1    
   129   63  188 1    
   130   64   65 am   BACKBONE|DICT|INTERRES
   131   64  189 1    
   132   65   66 2    
   133   67   68 2    
   134   67   69 am   BACKBONE|DICT|INTERRES
   135   69   70 1    
   136   69  190 1    
   137   70   71 1    
   138   70   72 1    
   139   70  191 1    
   140   71  192 1    
   141   71  193 1    
   142   71  194 1    
   143   72   73 2    
   144   72   74 am   BACKBONE|DICT|INTERRES
   145   74   75 1    
   146   74  195 1    
   147   75   76 1    
   148   75   77 1    
   149   75  196 1    
   150   76  197 1    
   151   76  198 1    
   152   76  199 1    
   153   77   78 2    
   154   77   79 am   BACKBONE|DICT|INTERRES
   155   79   80 1    
   156   79  200 1    
   157   80   81 1    
   158   80   82 1    
   159   80  201 1    
   160   81  202 1    
   161   81  203 1    
   162   81  204 1    
   163   82   83 2    
   164   82   84 am   BACKBONE|DICT|INTERRES
   165   84   85 1    
   166   84  205 1    
   167   85   86 1    
   168   85   87 1    
   169   85  206 1    
   170   86  207 1    
   171   86  208 1    
   172   86  209 1    
   173   87   88 2    
   174   87   89 am   BACKBONE|DICT|INTERRES
   175   89   90 1    
   176   89  210 1    
   177   90   91 1    
   178   90   92 1    
   179   90  211 1    
   180   91  212 1    
   181   91  213 1    
   182   91  214 1    
   183   92   93 2    
   184   92   94 am   BACKBONE|DICT|INTERRES
   185   94   95 1    
   186   94  215 1    
   187   95   96 1    
   188   95   97 1    
   189   95  216 1    
   190   96  217 1    
   191   96  218 1    
   192   96  219 1    
   193   97   98 2    
   194   97   99 am   BACKBONE|DICT|INTERRES
   195   99  100 1    
   196   99  220 1    
   197  100  101 1    
   198  100  102 1    
   199  100  221 1    
   200  101  222 1    
   201  101  223 1    
   202  101  224 1    
   203  102  103 2    
   204  102  104 am   BACKBONE|DICT|INTERRES
   205  104  105 1    
   206  104  225 1    
   207  105  106 1    
   208  105  107 1    
   209  105  226 1    
   210  106  227 1    
   211  106  228 1    
   212  106  229 1    
   213  107  108 2    
   214  107  109 am   BACKBONE|DICT|INTERRES
   215  109  110 1    
   216  109  230 1    
   217  110  111 1    
   218  110  112 1    
   219  110  231 1    
   220  111  232 1    
   221  111  233 1    
   222  111  234 1    
   223  112  113 2    
   224  112  114 am   BACKBONE|DICT|INTERRES
   225  114  115 1    
   226  114  235 1    
   227  115  116 1    
   228  115  117 1    
   229  115  236 1    
   230  116  237 1    
   231  116  238 1    
   232  116  239 1    
   233  117  118 2    
   234  117  119 am   BACKBONE|DICT|INTERRES
   235  119  120 1    
   236  119  240 1    
   237  120  121 1    
   238  120  124 1    
   239  120  241 1    
   240  121  122 am   BACKBONE|DICT|INTERRES
   241  121  123 2    
   242  122  242 1    
   243  122  243 1    
   244  124  125 1    
   245  124  244 1    
   246  124  245 1    
   247  125  126 1    
   248  126  246 1    
   249  126  247 1    
@<TRIPOS>SUBSTRUCTURE
     1 UNK         1 GROUP             0       ****    0 ROOT    
