@<TRIPOS>MOLECULE
3R540
247   249    1
SMALL
USER_CHARGES


@<TRIPOS>ATOM
      1 CA          1.1717  -15.2040  -43.5494 C.3       0 UNK        -0.1800 
      2 C           0.3643  -13.9421  -43.2849 C.2       0 UNK         0.5000 
      3 O           0.4157  -13.4061  -42.1790 O.2       0 UNK        -0.5000 
      4 N          -0.3721  -13.4723  -44.3025 N.am      1 UNK        -0.5000 
      5 CA         -1.3725  -12.3895  -44.2628 C.3       1 UNK         0.1400 
      6 C6         -2.0112  -12.1345  -45.6560 C.3       23 UNK        -0.0398 
      7 S7         -2.3719  -13.6591  -46.5960 S.3       23 UNK        -0.2404 
      8 C8         -4.1881  -13.6881  -46.6021 C.3       23 UNK        -0.0205 
      9 C9         -4.7027  -14.8850  -47.3870 C.ar      23 UNK        -0.0193 
     10 C10        -4.8349  -14.8083  -48.7759 C.ar      23 UNK        -0.1150 
     11 C11        -5.2983  -15.9048  -49.5091 C.ar      23 UNK        -0.0193 
     12 C12        -5.6371  -17.0847  -48.8393 C.ar      23 UNK        -0.1150 
     13 C13        -5.5128  -17.1753  -47.4481 C.ar      23 UNK        -0.0193 
     14 C14        -5.0482  -16.0687  -46.7295 C.ar      23 UNK        -0.1150 
     15 C15        -5.9010  -18.4546  -46.7153 C.3       23 UNK        -0.0205 
     16 S16        -4.9152  -19.8811  -47.2681 S.3       23 UNK        -0.2404 
     17 C17        -4.8776  -20.9149  -45.7664 C.3       23 UNK        -0.0398 
     18 CA         -3.9731  -22.1542  -45.9653 C.3       11 UNK         0.1400 
     19 N          -2.5467  -21.8102  -46.0860 N.am      11 UNK        -0.5000 
     20 C          -1.5542  -22.6648  -46.3769 C.2       10 UNK         0.5000 
     21 O          -1.7407  -23.8620  -46.5956 O.2       10 UNK        -0.5000 
     22 CA         -0.1166  -22.1133  -46.4031 C.3       10 UNK         0.1400 
     23 CB          0.2522  -21.6173  -47.8090 C.3       10 UNK        -0.1800 
     24 N           0.1069  -21.0462  -45.4264 N.am      10 UNK        -0.5000 
     25 C           0.0647  -21.2094  -44.0959 C.2       9 UNK         0.5000 
     26 O          -0.1210  -22.2955  -43.5477 O.2       9 UNK        -0.5000 
     27 CA          0.2053  -19.9410  -43.2359 C.3       9 UNK         0.1400 
     28 CB          1.6819  -19.5802  -43.0115 C.3       9 UNK        -0.1800 
     29 N          -0.4973  -18.8103  -43.8421 N.am      9 UNK        -0.5000 
     30 C          -1.8280  -18.6507  -43.7935 C.2       8 UNK         0.5000 
     31 O          -2.5796  -19.3861  -43.1530 O.2       8 UNK        -0.5000 
     32 CA         -2.4328  -17.4955  -44.6158 C.3       8 UNK         0.1400 
     33 CB         -2.6271  -16.2578  -43.7288 C.3       8 UNK        -0.1800 
     34 N          -1.6601  -17.1408  -45.8126 N.am      8 UNK        -0.5000 
     35 C          -1.4658  -17.9765  -46.8428 C.2       7 UNK         0.5000 
     36 O          -1.8731  -19.1340  -46.8556 O.2       7 UNK        -0.5000 
     37 CA         -0.5976  -17.4835  -48.0127 C.3       7 UNK         0.1400 
     38 CB         -1.4078  -16.6108  -48.9813 C.3       7 UNK        -0.1800 
     39 N           0.6283  -16.7894  -47.6070 N.am      7 UNK        -0.5000 
     40 C           1.5761  -17.2935  -46.8055 C.2       6 UNK         0.5000 
     41 O           1.4465  -18.3593  -46.2020 O.2       6 UNK        -0.5000 
     42 CA          2.8881  -16.4981  -46.6200 C.3       6 UNK         0.1400 
     43 CB          4.0003  -17.0907  -47.5044 C.3       6 UNK        -0.1800 
     44 N           2.8202  -15.0371  -46.7901 N.am      6 UNK        -0.5000 
     45 C           2.5203  -14.3211  -47.8855 C.2       5 UNK         0.5000 
     46 O           2.1200  -14.8119  -48.9405 O.2       5 UNK        -0.5000 
     47 CA          2.6806  -12.7908  -47.7861 C.3       5 UNK         0.1400 
     48 CB          1.3289  -12.1333  -47.4734 C.3       5 UNK        -0.1800 
     49 N           3.6607  -12.3590  -46.7855 N.am      5 UNK        -0.5000 
     50 C           4.9851  -12.5516  -46.8690 C.2       4 UNK         0.5000 
     51 O           5.5336  -13.1260  -47.8099 O.2       4 UNK        -0.5000 
     52 CA          5.8450  -12.0072  -45.7109 C.3       4 UNK         0.1400 
     53 CB          6.5061  -10.6801  -46.1131 C.3       4 UNK        -0.1800 
     54 N           5.1022  -11.8012  -44.4647 N.am      4 UNK        -0.5000 
     55 C           4.6284  -12.7692  -43.6719 C.2       3 UNK         0.5000 
     56 O           4.7130  -13.9678  -43.9392 O.2       3 UNK        -0.5000 
     57 CA          3.9079  -12.3243  -42.3838 C.3       3 UNK         0.1400 
     58 CB          4.8798  -11.6734  -41.3805 C.3       3 UNK        -0.1800 
     59 N           2.7311  -11.4812  -42.6327 N.am      3 UNK        -0.5000 
     60 C           2.6671  -10.2427  -43.1490 C.2       2 UNK         0.5000 
     61 O           3.6562   -9.5764  -43.4579 O.2       2 UNK        -0.5000 
     62 CA          1.2515   -9.7038  -43.4284 C.3       2 UNK         0.1400 
     63 CB          1.2364   -8.5049  -44.3949 C.3       2 UNK        -0.1800 
     64 N           0.4463  -10.7882  -43.9822 N.am      2 UNK        -0.5000 
     65 C          -0.8293  -11.0611  -43.6904 C.2       1 UNK         0.5000 
     66 O          -1.5508  -10.3444  -42.9961 O.2       1 UNK        -0.5000 
     67 C          -4.2637  -23.2433  -44.9086 C.2       11 UNK         0.5000 
     68 O          -5.2274  -23.9912  -45.0770 O.2       11 UNK        -0.5000 
     69 N          -3.4005  -23.3753  -43.8903 N.am      12 UNK        -0.5000 
     70 CA         -3.4424  -24.4589  -42.9031 C.3       12 UNK         0.1400 
     71 CB         -2.5162  -24.1037  -41.7305 C.3       12 UNK        -0.1800 
     72 C          -3.0720  -25.8422  -43.4848 C.2       12 UNK         0.5000 
     73 O          -3.4320  -26.8589  -42.8912 O.2       12 UNK        -0.5000 
     74 N          -2.3816  -25.8607  -44.6327 N.am      13 UNK        -0.5000 
     75 CA         -1.9704  -27.0487  -45.3804 C.3       13 UNK         0.1400 
     76 CB         -0.4460  -26.9911  -45.5911 C.3       13 UNK        -0.1800 
     77 C          -2.7394  -27.1399  -46.7146 C.2       13 UNK         0.5000 
     78 O          -2.1682  -27.5446  -47.7296 O.2       13 UNK        -0.5000 
     79 N          -4.0182  -26.7297  -46.7000 N.am      14 UNK        -0.5000 
     80 CA         -4.9486  -26.6986  -47.8365 C.3       14 UNK         0.1400 
     81 CB         -5.2985  -28.1300  -48.2949 C.3       14 UNK        -0.1800 
     82 C          -4.4382  -25.8081  -48.9878 C.2       14 UNK         0.5000 
     83 O          -4.4570  -26.2160  -50.1503 O.2       14 UNK        -0.5000 
     84 N          -3.9409  -24.6190  -48.6201 N.am      15 UNK        -0.5000 
     85 CA         -3.2865  -23.6283  -49.4830 C.3       15 UNK         0.1400 
     86 CB         -4.2787  -23.0485  -50.5111 C.3       15 UNK        -0.1800 
     87 C          -1.9923  -24.1828  -50.1086 C.2       15 UNK         0.5000 
     88 O          -1.7313  -23.9509  -51.2872 O.2       15 UNK        -0.5000 
     89 N          -1.2251  -24.9394  -49.3094 N.am      16 UNK        -0.5000 
     90 CA         -0.0468  -25.7237  -49.6973 C.3       16 UNK         0.1400 
     91 CB          1.1585  -24.8003  -49.9687 C.3       16 UNK        -0.1800 
     92 C          -0.3574  -26.6906  -50.8605 C.2       16 UNK         0.5000 
     93 O           0.3599  -26.7128  -51.8615 O.2       16 UNK        -0.5000 
     94 N          -1.4628  -27.4347  -50.7067 N.am      17 UNK        -0.5000 
     95 CA         -2.0918  -28.3072  -51.7031 C.3       17 UNK         0.1400 
     96 CB         -1.1980  -29.5274  -52.0086 C.3       17 UNK        -0.1800 
     97 C          -2.5285  -27.5340  -52.9683 C.2       17 UNK         0.5000 
     98 O          -2.1484  -27.8957  -54.0837 O.2       17 UNK        -0.5000 
     99 N          -3.3287  -26.4793  -52.7534 N.am      18 UNK        -0.5000 
    100 CA        -3.9429  -25.5991  -53.7563 C.3       18 UNK         0.1400 
    101 CB        -4.9727  -26.3777  -54.6017 C.3       18 UNK        -0.1800 
    102 C         -2.9392  -24.8014  -54.6199 C.2       18 UNK         0.5000 
    103 O         -3.2495  -24.4622  -55.7636 O.2       18 UNK        -0.5000 
    104 N         -1.7640  -24.4952  -54.0591 N.am      19 UNK        -0.5000 
    105 CA        -0.7287  -23.6756  -54.6851 C.3       19 UNK         0.1400 
    106 CB         0.6511  -24.1608  -54.2168 C.3       19 UNK        -0.1800 
    107 C         -0.9191  -22.1852  -54.3552 C.2       19 UNK         0.5000 
    108 O         -0.8120  -21.3430  -55.2474 O.2       19 UNK        -0.5000 
    109 N         -1.2267  -21.8789  -53.0877 N.am      20 UNK        -0.5000 
    110 CA        -1.4308  -20.5291  -52.5566 C.3       20 UNK         0.1400 
    111 CB        -1.0391  -20.5096  -51.0672 C.3       20 UNK        -0.1800 
    112 C         -2.8722  -20.0379  -52.8014 C.2       20 UNK         0.5000 
    113 O         -3.5631  -19.6336  -51.8662 O.2       20 UNK        -0.5000 
    114 N         -3.3092  -20.1046  -54.0645 N.am      21 UNK        -0.5000 
    115 CA        -4.6470  -19.7125  -54.5130 C.3       21 UNK         0.1400 
    116 CB        -4.9198  -20.3796  -55.8703 C.3       21 UNK        -0.1800 
    117 C         -4.8436  -18.1848  -54.6064 C.2       21 UNK         0.5000 
    118 O         -5.9854  -17.7323  -54.6964 O.2       21 UNK        -0.5000 
    119 N         -3.7368  -17.4280  -54.5996 N.am      22 UNK        -0.5000 
    120 CA        -3.6692  -15.9572  -54.6978 C.3       22 UNK         0.1400 
    121 C         -4.0389  -15.3818  -56.1010 C.2       22 UNK         0.5000 
    122 N         -4.1022  -16.1880  -57.1539 N.am      22 UNK        -0.7600 
    123 O         -4.2407  -14.1795  -56.2510 O.2       22 UNK        -0.5000 
    124 C124       -4.4083  -15.2163  -53.5459 C.3       23 UNK        -0.0398 
    125 S125       -3.8589  -15.7179  -51.8771 S.3       23 UNK        -0.2404 
    126 C126       -5.4619  -15.7947  -51.0179 C.3       23 UNK        -0.0205 
    127 H127        0.8688  -15.6824  -44.4789 H         1 UNK         0.0600 
    128 H128        1.0232  -15.9208  -42.7416 H         1 UNK         0.0600 
    129 H129        2.2336  -14.9716  -43.6076 H         1 UNK         0.0600 
    130 H130       -0.3526  -13.9618  -45.1846 H         1 UNK         0.3000 
    131 H131       -2.1623  -12.7297  -43.5900 H         1 UNK         0.0600 
    132 H132       -1.3496  -11.5334  -46.2822 H         1 UNK         0.0800 
    133 H133       -2.9246  -11.5475  -45.5461 H         1 UNK         0.0800 
    134 H134       -4.5670  -12.7655  -47.0444 H         1 UNK         0.0800 
    135 H135       -4.5568  -13.7172  -45.5756 H         1 UNK         0.0800 
    136 H136       -4.5695  -13.8951  -49.2899 H         1 UNK         0.1150 
    137 H137       -5.9983  -17.9365  -49.3986 H         1 UNK         0.1150 
    138 H138       -4.9579  -16.1244  -45.6548 H         1 UNK         0.1150 
    139 H139       -5.7827  -18.3246  -45.6388 H         1 UNK         0.0800 
    140 H140       -6.9579  -18.6627  -46.8860 H         1 UNK         0.0800 
    141 H141       -5.9059  -21.2088  -45.5464 H         1 UNK         0.0800 
    142 H142       -4.5327  -20.3208  -44.9189 H         1 UNK         0.0800 
    143 H143       -4.2667  -22.5969  -46.9152 H         1 UNK         0.0600 
    144 H144       -2.3194  -20.8195  -46.0493 H         1 UNK         0.3000 
    145 H145        0.5513  -22.9399  -46.1525 H         1 UNK         0.0600 
    146 H146       -0.3638  -20.7752  -48.1183 H         1 UNK         0.0600 
    147 H147        1.2952  -21.3041  -47.8570 H         1 UNK         0.0600 
    148 H148        0.1118  -22.4021  -48.5509 H         1 UNK         0.0600 
    149 H149        0.2757  -20.1175  -45.7956 H         1 UNK         0.3000 
    150 H150       -0.2380  -20.1472  -42.2591 H         1 UNK         0.0600 
    151 H151        2.2010  -20.3857  -42.4908 H         1 UNK         0.0600 
    152 H152        1.7804  -18.6822  -42.4014 H         1 UNK         0.0600 
    153 H153        2.2095  -19.4080  -43.9492 H         1 UNK         0.0600 
    154 H154        0.0460  -18.2146  -44.4522 H         1 UNK         0.3000 
    155 H155       -3.4155  -17.8279  -44.9536 H         1 UNK         0.0600 
    156 H156       -3.3116  -16.4754  -42.9081 H         1 UNK         0.0600 
    157 H157       -3.0483  -15.4223  -44.2852 H         1 UNK         0.0600 
    158 H158       -1.6881  -15.9324  -43.2855 H         1 UNK         0.0600 
    159 H159       -1.3114  -16.1981  -45.8818 H         1 UNK         0.3000 
    160 H160       -0.2814  -18.3705  -48.5643 H         1 UNK         0.0600 
    161 H161       -0.8412  -16.3949  -49.8870 H         1 UNK         0.0600 
    162 H162       -1.6923  -15.6612  -48.5323 H         1 UNK         0.0600 
    163 H163       -2.3266  -17.1146  -49.2867 H         1 UNK         0.0600 
    164 H164        0.8668  -15.9448  -48.1182 H         1 UNK         0.3000 
    165 H165        3.1855  -16.6529  -45.5815 H         1 UNK         0.0600 
    166 H166        3.7757  -16.9823  -48.5659 H         1 UNK         0.0600 
    167 H167        4.9567  -16.6037  -47.3127 H         1 UNK         0.0600 
    168 H168        4.1324  -18.1553  -47.3062 H         1 UNK         0.0600 
    169 H169        3.1460  -14.5122  -45.9903 H         1 UNK         0.3000 
    170 H170        3.0161  -12.4341  -48.7622 H         1 UNK         0.0600 
    171 H171        0.9540  -12.4438  -46.5005 H         1 UNK         0.0600 
    172 H172        1.4055  -11.0458  -47.4753 H         1 UNK         0.0600 
    173 H173        0.5777  -12.4066  -48.2160 H         1 UNK         0.0600 
    174 H174        3.3134  -11.8482  -45.9894 H         1 UNK         0.3000 
    175 H175        6.6332  -12.7383  -45.5192 H         1 UNK         0.0600 
    176 H176        5.7645   -9.9008  -46.2940 H         1 UNK         0.0600 
    177 H177        7.1826  -10.3252  -45.3353 H         1 UNK         0.0600 
    178 H178        7.0932  -10.7943  -47.0254 H         1 UNK         0.0600 
    179 H179        4.9232  -10.8404  -44.1852 H         1 UNK         0.3000 
    180 H180        3.5230  -13.2310  -41.9140 H         1 UNK         0.0600 
    181 H181        5.3247  -10.7567  -41.7680 H         1 UNK         0.0600 
    182 H182        5.6980  -12.3526  -41.1382 H         1 UNK         0.0600 
    183 H183        4.3735  -11.4295  -40.4466 H         1 UNK         0.0600 
    184 H184        1.8488  -11.9328  -42.4116 H         1 UNK         0.3000 
    185 H185        0.8403   -9.3865  -42.4680 H         1 UNK         0.0600 
    186 H186        0.2199   -8.1495  -44.5643 H         1 UNK         0.0600 
    187 H187        1.8087   -7.6684  -43.9920 H         1 UNK         0.0600 
    188 H188        1.6659   -8.7647  -45.3632 H         1 UNK         0.0600 
    189 H189        0.9483  -11.4577  -44.5448 H         1 UNK         0.3000 
    190 H190       -2.6132  -22.7430  -43.8336 H         1 UNK         0.3000 
    191 H191       -4.4628  -24.5277  -42.5202 H         1 UNK         0.0600 
    192 H192       -1.4723  -24.0600  -42.0421 H         1 UNK         0.0600 
    193 H193       -2.7786  -23.1392  -41.2954 H         1 UNK         0.0600 
    194 H194       -2.5887  -24.8487  -40.9371 H         1 UNK         0.0600 
    195 H195       -2.1572  -24.9788  -45.0834 H         1 UNK         0.3000 
    196 H196       -2.2017  -27.9557  -44.8190 H         1 UNK         0.0600 
    197 H197        0.0795  -26.9269  -44.6383 H         1 UNK         0.0600 
    198 H198       -0.1550  -26.1282  -46.1914 H         1 UNK         0.0600 
    199 H199       -0.0837  -27.8851  -46.1000 H         1 UNK         0.0600 
    200 H200       -4.3873  -26.3821  -45.8252 H         1 UNK         0.3000 
    201 H201       -5.8663  -26.2334  -47.4738 H         1 UNK         0.0600 
    202 H202       -6.0748  -28.1152  -49.0609 H         1 UNK         0.0600 
    203 H203       -5.6740  -28.7285  -47.4650 H         1 UNK         0.0600 
    204 H204       -4.4352  -28.6458  -48.7165 H         1 UNK         0.0600 
    205 H205       -3.8986  -24.4285  -47.6298 H         1 UNK         0.3000 
    206 H206       -2.9733  -22.7976  -48.8531 H         1 UNK         0.0600 
    207 H207       -5.1187  -22.5663  -50.0111 H         1 UNK         0.0600 
    208 H208       -4.6807  -23.8125  -51.1729 H         1 UNK         0.0600 
    209 H209       -3.8037  -22.2945  -51.1365 H         1 UNK         0.0600 
    210 H210       -1.5195  -25.0417  -48.3454 H         1 UNK         0.3000 
    211 H211        0.2072  -26.3520  -48.8423 H         1 UNK         0.0600 
    212 H212        1.4419  -24.2552  -49.0693 H         1 UNK         0.0600 
    213 H213        2.0323  -25.3739  -50.2796 H         1 UNK         0.0600 
    214 H214        0.9474  -24.0720  -50.7513 H         1 UNK         0.0600 
    215 H215       -1.9601  -27.3472  -49.8263 H         1 UNK         0.3000 
    216 H216       -3.0076  -28.6812  -51.2428 H         1 UNK         0.0600 
    217 H217       -1.7125  -30.2312  -52.6638 H         1 UNK         0.0600 
    218 H218       -0.2698  -29.2407  -52.5035 H         1 UNK         0.0600 
    219 H219       -0.9394  -30.0638  -51.0957 H         1 UNK         0.0600 
    220 H220       -3.6035  -26.2906  -51.7909 H         1 UNK         0.3000 
    221 H221       -4.4976  -24.8496  -53.1934 H         1 UNK         0.0600 
    222 H222       -4.4923  -27.1102  -55.2508 H         1 UNK         0.0600 
    223 H223       -5.6840  -26.9062  -53.9670 H         1 UNK         0.0600 
    224 H224       -5.5482  -25.7047  -55.2383 H         1 UNK         0.0600 
    225 H225       -1.6198  -24.7387  -53.0842 H         1 UNK         0.3000 
    226 H226       -0.7730  -23.7910  -55.7701 H         1 UNK         0.0600 
    227 H227        0.8119  -25.2050  -54.4859 H         1 UNK         0.0600 
    228 H228        1.4491  -23.5772  -54.6772 H         1 UNK         0.0600 
    229 H229        0.7621  -24.0772  -53.1356 H         1 UNK         0.0600 
    230 H230       -1.3604  -22.6435  -52.4278 H         1 UNK         0.3000 
    231 H231       -0.7643  -19.8388  -53.0776 H         1 UNK         0.0600 
    232 H232       -1.1069  -19.5001  -50.6603 H         1 UNK         0.0600 
    233 H233       -0.0135  -20.8498  -50.9234 H         1 UNK         0.0600 
    234 H234       -1.6898  -21.1455  -50.4679 H         1 UNK         0.0600 
    235 H235       -2.6710  -20.4595  -54.7676 H         1 UNK         0.3000 
    236 H236       -5.3777  -20.0909  -53.7949 H         1 UNK         0.0600 
    237 H237       -4.8508  -21.4654  -55.7965 H         1 UNK         0.0600 
    238 H238       -5.9221  -20.1425  -56.2296 H         1 UNK         0.0600 
    239 H239       -4.2109  -20.0498  -56.6307 H         1 UNK         0.0600 
    240 H240       -2.8484  -17.9008  -54.5296 H         1 UNK         0.3000 
    241 H241       -2.6105  -15.7206  -54.5883 H         1 UNK         0.0600 
    242 H242       -4.3305  -15.8057  -58.0584 H         1 UNK         0.3800 
    243 H243       -3.9273  -17.1749  -57.0562 H         1 UNK         0.3800 
    244 H244       -4.2442  -14.1402  -53.6205 H         1 UNK         0.0800 
    245 H245       -5.4855  -15.3589  -53.6395 H         1 UNK         0.0800 
    246 H246       -6.0387  -14.8964  -51.2430 H         1 UNK         0.0800 
    247 H247       -6.0336  -16.6379  -51.4092 H         1 UNK         0.0800 
@<TRIPOS>BOND
     1    1    2 1    
     2    1  127 1    
     3    1  128 1    
     4    1  129 1    
     5    2    3 2    
     6    2    4 am   BACKBONE|DICT|INTERRES
     7    4    5 1    
     8    4  130 1    
     9    5    6 1    
    10    5   65 1    
    11    5  131 1    
    12    6    7 1    
    13    6  132 1    
    14    6  133 1    
    15    7    8 1    
    16    8    9 1    
    17    8  134 1    
    18    8  135 1    
    19    9   10 ar   
    20    9   14 ar   
    21   10   11 ar   
    22   10  136 1    
    23   11   12 ar   
    24   11  126 1    
    25   12   13 ar   
    26   12  137 1    
    27   13   14 ar   
    28   13   15 1    
    29   14  138 1    
    30   15   16 1    
    31   15  139 1    
    32   15  140 1    
    33   16   17 1    
    34   17   18 1    
    35   17  141 1    
    36   17  142 1    
    37   18   19 1    
    38   18   67 1    
    39   18  143 1    
    40   19   20 am   BACKBONE|DICT|INTERRES
    41   19  144 1    
    42   20   21 2    
    43   20   22 1    
    44   22   23 1    
    45   22   24 1    
    46   22  145 1    
    47   23  146 1    
    48   23  147 1    
    49   23  148 1    
    50   24   25 am   BACKBONE|DICT|INTERRES
    51   24  149 1    
    52   25   26 2    
    53   25   27 1    
    54   27   28 1    
    55   27   29 1    
    56   27  150 1    
    57   28  151 1    
    58   28  152 1    
    59   28  153 1    
    60   29   30 am   BACKBONE|DICT|INTERRES
    61   29  154 1    
    62   30   31 2    
    63   30   32 1    
    64   32   33 1    
    65   32   34 1    
    66   32  155 1    
    67   33  156 1    
    68   33  157 1    
    69   33  158 1    
    70   34   35 am   BACKBONE|DICT|INTERRES
    71   34  159 1    
    72   35   36 2    
    73   35   37 1    
    74   37   38 1    
    75   37   39 1    
    76   37  160 1    
    77   38  161 1    
    78   38  162 1    
    79   38  163 1    
    80   39   40 am   BACKBONE|DICT|INTERRES
    81   39  164 1    
    82   40   41 2    
    83   40   42 1    
    84   42   43 1    
    85   42   44 1    
    86   42  165 1    
    87   43  166 1    
    88   43  167 1    
    89   43  168 1    
    90   44   45 am   BACKBONE|DICT|INTERRES
    91   44  169 1    
    92   45   46 2    
    93   45   47 1    
    94   47   48 1    
    95   47   49 1    
    96   47  170 1    
    97   48  171 1    
    98   48  172 1    
    99   48  173 1    
   100   49   50 am   BACKBONE|DICT|INTERRES
   101   49  174 1    
   102   50   51 2    
   103   50   52 1    
   104   52   53 1    
   105   52   54 1    
   106   52  175 1    
   107   53  176 1    
   108   53  177 1    
   109   53  178 1    
   110   54   55 am   BACKBONE|DICT|INTERRES
   111   54  179 1    
   112   55   56 2    
   113   55   57 1    
   114   57   58 1    
   115   57   59 1    
   116   57  180 1    
   117   58  181 1    
   118   58  182 1    
   119   58  183 1    
   120   59   60 am   BACKBONE|DICT|INTERRES
   121   59  184 1    
   122   60   61 2    
   123   60   62 1    
   124   62   63 1    
   125   62   64 1    
   126   62  185 1    
   127   63  186 1    
   128   63  187 1    
   129   63  188 1    
   130   64   65 am   BACKBONE|DICT|INTERRES
   131   64  189 1    
   132   65   66 2    
   133   67   68 2    
   134   67   69 am   BACKBONE|DICT|INTERRES
   135   69   70 1    
   136   69  190 1    
   137   70   71 1    
   138   70   72 1    
   139   70  191 1    
   140   71  192 1    
   141   71  193 1    
   142   71  194 1    
   143   72   73 2    
   144   72   74 am   BACKBONE|DICT|INTERRES
   145   74   75 1    
   146   74  195 1    
   147   75   76 1    
   148   75   77 1    
   149   75  196 1    
   150   76  197 1    
   151   76  198 1    
   152   76  199 1    
   153   77   78 2    
   154   77   79 am   BACKBONE|DICT|INTERRES
   155   79   80 1    
   156   79  200 1    
   157   80   81 1    
   158   80   82 1    
   159   80  201 1    
   160   81  202 1    
   161   81  203 1    
   162   81  204 1    
   163   82   83 2    
   164   82   84 am   BACKBONE|DICT|INTERRES
   165   84   85 1    
   166   84  205 1    
   167   85   86 1    
   168   85   87 1    
   169   85  206 1    
   170   86  207 1    
   171   86  208 1    
   172   86  209 1    
   173   87   88 2    
   174   87   89 am   BACKBONE|DICT|INTERRES
   175   89   90 1    
   176   89  210 1    
   177   90   91 1    
   178   90   92 1    
   179   90  211 1    
   180   91  212 1    
   181   91  213 1    
   182   91  214 1    
   183   92   93 2    
   184   92   94 am   BACKBONE|DICT|INTERRES
   185   94   95 1    
   186   94  215 1    
   187   95   96 1    
   188   95   97 1    
   189   95  216 1    
   190   96  217 1    
   191   96  218 1    
   192   96  219 1    
   193   97   98 2    
   194   97   99 am   BACKBONE|DICT|INTERRES
   195   99  100 1    
   196   99  220 1    
   197  100  101 1    
   198  100  102 1    
   199  100  221 1    
   200  101  222 1    
   201  101  223 1    
   202  101  224 1    
   203  102  103 2    
   204  102  104 am   BACKBONE|DICT|INTERRES
   205  104  105 1    
   206  104  225 1    
   207  105  106 1    
   208  105  107 1    
   209  105  226 1    
   210  106  227 1    
   211  106  228 1    
   212  106  229 1    
   213  107  108 2    
   214  107  109 am   BACKBONE|DICT|INTERRES
   215  109  110 1    
   216  109  230 1    
   217  110  111 1    
   218  110  112 1    
   219  110  231 1    
   220  111  232 1    
   221  111  233 1    
   222  111  234 1    
   223  112  113 2    
   224  112  114 am   BACKBONE|DICT|INTERRES
   225  114  115 1    
   226  114  235 1    
   227  115  116 1    
   228  115  117 1    
   229  115  236 1    
   230  116  237 1    
   231  116  238 1    
   232  116  239 1    
   233  117  118 2    
   234  117  119 am   BACKBONE|DICT|INTERRES
   235  119  120 1    
   236  119  240 1    
   237  120  121 1    
   238  120  124 1    
   239  120  241 1    
   240  121  122 am   BACKBONE|DICT|INTERRES
   241  121  123 2    
   242  122  242 1    
   243  122  243 1    
   244  124  125 1    
   245  124  244 1    
   246  124  245 1    
   247  125  126 1    
   248  126  246 1    
   249  126  247 1    
@<TRIPOS>SUBSTRUCTURE
     1 UNK         1 GROUP             0       ****    0 ROOT    
