@<TRIPOS>MOLECULE
3R540
247   249    1
SMALL
USER_CHARGES


@<TRIPOS>ATOM
      1 CA          5.2438  -16.5649  -49.6803 C.3       0 UNK        -0.1800 
      2 C           4.6781  -15.7955  -48.4953 C.2       0 UNK         0.5000 
      3 O           5.4259  -15.4404  -47.5842 O.2       0 UNK        -0.5000 
      4 N           3.3607  -15.5579  -48.4964 N.am      1 UNK        -0.5000 
      5 CA          2.6222  -14.8489  -47.4481 C.3       1 UNK         0.1400 
      6 C6          1.0962  -14.8964  -47.7012 C.3       23 UNK        -0.0398 
      7 S7          0.3518  -16.5086  -47.2902 S.3       23 UNK        -0.2404 
      8 C8         -0.4241  -16.9654  -48.8699 C.3       23 UNK        -0.0205 
      9 C9          0.5762  -17.5625  -49.8465 C.ar      23 UNK        -0.0193 
     10 C10         1.1443  -16.7801  -50.8547 C.ar      23 UNK        -0.1150 
     11 C11         2.0288  -17.3473  -51.7768 C.ar      23 UNK        -0.0193 
     12 C12         2.3475  -18.7062  -51.6829 C.ar      23 UNK        -0.1150 
     13 C13         1.7813  -19.5004  -50.6825 C.ar      23 UNK        -0.0193 
     14 C14         0.9061  -18.9169  -49.7620 C.ar      23 UNK        -0.1150 
     15 C15         2.0823  -20.9915  -50.6116 C.3       23 UNK        -0.0205 
     16 S16         3.0525  -21.4016  -49.1294 S.3       23 UNK        -0.2404 
     17 C17         2.9072  -23.2229  -49.0404 C.3       23 UNK        -0.0398 
     18 CA          1.9048  -23.7404  -47.9719 C.3       11 UNK         0.1400 
     19 N           2.0359  -23.0477  -46.6852 N.am      11 UNK        -0.5000 
     20 C           1.3671  -23.3296  -45.5604 C.2       10 UNK         0.5000 
     21 O           0.5277  -24.2246  -45.4791 O.2       10 UNK        -0.5000 
     22 CA          1.6274  -22.4513  -44.3238 C.3       10 UNK         0.1400 
     23 CB          2.5615  -23.1485  -43.3179 C.3       10 UNK        -0.1800 
     24 N           2.0640  -21.0843  -44.6278 N.am      10 UNK        -0.5000 
     25 C           3.2474  -20.6428  -45.0777 C.2       9 UNK         0.5000 
     26 O           4.1979  -21.3773  -45.3438 O.2       9 UNK        -0.5000 
     27 CA          3.3810  -19.1265  -45.3004 C.3       9 UNK         0.1400 
     28 CB          3.1206  -18.7877  -46.7702 C.3       9 UNK        -0.1800 
     29 N           2.4408  -18.3680  -44.4740 N.am      9 UNK        -0.5000 
     30 C           2.7569  -17.7912  -43.3070 C.2       8 UNK         0.5000 
     31 O           3.8919  -17.7732  -42.8297 O.2       8 UNK        -0.5000 
     32 CA          1.5967  -17.1414  -42.5296 C.3       8 UNK         0.1400 
     33 CB          1.2842  -15.7464  -43.0975 C.3       8 UNK        -0.1800 
     34 N           0.3795  -17.9549  -42.5492 N.am      8 UNK        -0.5000 
     35 C           0.2579  -19.1900  -42.0368 C.2       7 UNK         0.5000 
     36 O           1.1469  -19.7590  -41.4041 O.2       7 UNK        -0.5000 
     37 CA         -1.0738  -19.9273  -42.2904 C.3       7 UNK         0.1400 
     38 CB         -1.9406  -19.9285  -41.0229 C.3       7 UNK        -0.1800 
     39 N          -1.8550  -19.3607  -43.3907 N.am      7 UNK        -0.5000 
     40 C          -1.5108  -19.3501  -44.6831 C.2       6 UNK         0.5000 
     41 O          -0.4894  -19.8799  -45.1204 O.2       6 UNK        -0.5000 
     42 CA         -2.4202  -18.5515  -45.6319 C.3       6 UNK         0.1400 
     43 CB         -3.6659  -19.3585  -46.0338 C.3       6 UNK        -0.1800 
     44 N          -2.7670  -17.2137  -45.1248 N.am      6 UNK        -0.5000 
     45 C          -3.5580  -16.8747  -44.0924 C.2       5 UNK         0.5000 
     46 O          -4.1574  -17.6941  -43.3956 O.2       5 UNK        -0.5000 
     47 CA         -3.6528  -15.3791  -43.7317 C.3       5 UNK         0.1400 
     48 CB         -2.9725  -15.1156  -42.3784 C.3       5 UNK        -0.1800 
     49 N          -3.0282  -14.5173  -44.7341 N.am      5 UNK        -0.5000 
     50 C          -3.6215  -14.0316  -45.8280 C.2       4 UNK         0.5000 
     51 O          -4.8113  -14.2157  -46.0890 O.2       4 UNK        -0.5000 
     52 CA         -2.7233  -13.2195  -46.7909 C.3       4 UNK         0.1400 
     53 CB         -3.5141  -12.5960  -47.9551 C.3       4 UNK        -0.1800 
     54 N          -1.9294  -12.1644  -46.1463 N.am      4 UNK        -0.5000 
     55 C          -0.8606  -12.3492  -45.3623 C.2       3 UNK         0.5000 
     56 O          -0.4874  -13.4554  -44.9599 O.2       3 UNK        -0.5000 
     57 CA         -0.0423  -11.1098  -44.9844 C.3       3 UNK         0.1400 
     58 CB         -0.3805  -10.6282  -43.5654 C.3       3 UNK        -0.1800 
     59 N           1.3519  -11.5235  -45.0497 N.am      3 UNK        -0.5000 
     60 C           2.3800  -10.8131  -45.5248 C.2       2 UNK         0.5000 
     61 O           2.3113   -9.6236  -45.8351 O.2       2 UNK        -0.5000 
     62 CA          3.7012  -11.5853  -45.7173 C.3       2 UNK         0.1400 
     63 CB          4.5437  -11.5444  -44.4333 C.3       2 UNK        -0.1800 
     64 N           3.4611  -12.9827  -46.0931 N.am      2 UNK        -0.5000 
     65 C           3.0793  -13.3810  -47.3149 C.2       1 UNK         0.5000 
     66 O           3.0256  -12.6358  -48.2957 O.2       1 UNK        -0.5000 
     67 C           0.4574  -23.7619  -48.5031 C.2       11 UNK         0.5000 
     68 O          -0.0380  -24.8298  -48.8627 O.2       11 UNK        -0.5000 
     69 N          -0.2109  -22.5996  -48.5022 N.am      12 UNK        -0.5000 
     70 CA         -1.5917  -22.4655  -48.9719 C.3       12 UNK         0.1400 
     71 CB         -1.9203  -20.9908  -49.2388 C.3       12 UNK        -0.1800 
     72 C          -2.6077  -23.0908  -48.0037 C.2       12 UNK         0.5000 
     73 O          -3.6150  -23.6323  -48.4569 O.2       12 UNK        -0.5000 
     74 N          -2.3157  -23.0381  -46.6969 N.am      13 UNK        -0.5000 
     75 CA         -3.1223  -23.6741  -45.6560 C.3       13 UNK         0.1400 
     76 CB         -2.6872  -23.1621  -44.2741 C.3       13 UNK        -0.1800 
     77 C          -3.0513  -25.2101  -45.7369 C.2       13 UNK         0.5000 
     78 O          -4.0901  -25.8680  -45.6826 O.2       13 UNK        -0.5000 
     79 N          -1.8358  -25.7468  -45.9165 N.am      14 UNK        -0.5000 
     80 CA         -1.5633  -27.1751  -46.0875 C.3       14 UNK         0.1400 
     81 CB         -0.0469  -27.4140  -46.0291 C.3       14 UNK        -0.1800 
     82 C          -2.1517  -27.7487  -47.3896 C.2       14 UNK         0.5000 
     83 O          -2.6694  -28.8660  -47.3813 O.2       14 UNK        -0.5000 
     84 N          -2.0850  -26.9676  -48.4765 N.am      15 UNK        -0.5000 
     85 CA         -2.6535  -27.3089  -49.7827 C.3       15 UNK         0.1400 
     86 CB         -2.0222  -26.4012  -50.8503 C.3       15 UNK        -0.1800 
     87 C          -4.1903  -27.1976  -49.8421 C.2       15 UNK         0.5000 
     88 O          -4.7837  -27.6979  -50.7984 O.2       15 UNK        -0.5000 
     89 N          -4.7973  -26.5242  -48.8514 N.am      16 UNK        -0.5000 
     90 CA         -6.2084  -26.1256  -48.7830 C.3       16 UNK         0.1400 
     91 CB         -7.1333  -27.3547  -48.6641 C.3       16 UNK        -0.1800 
     92 C          -6.5875  -25.1780  -49.9423 C.2       16 UNK         0.5000 
     93 O          -7.6482  -25.3182  -50.5534 O.2       16 UNK        -0.5000 
     94 N          -5.6826  -24.2341  -50.2218 N.am      17 UNK        -0.5000 
     95 CA         -5.7360  -23.2607  -51.3087 C.3       17 UNK         0.1400 
     96 CB         -4.5919  -23.5664  -52.2920 C.3       17 UNK        -0.1800 
     97 C          -5.6446  -21.8289  -50.7500 C.2       17 UNK         0.5000 
     98 O          -5.1708  -20.9271  -51.4421 O.2       17 UNK        -0.5000 
     99 N          -6.0950  -21.6368  -49.5018 N.am      18 UNK        -0.5000 
    100 CA        -6.0238  -20.3872  -48.7390 C.3       18 UNK         0.1400 
    101 CB        -6.6081  -20.6312  -47.3392 C.3       18 UNK        -0.1800 
    102 C         -6.7091  -19.1826  -49.4121 C.2       18 UNK         0.5000 
    103 O         -6.2455  -18.0540  -49.2514 O.2       18 UNK        -0.5000 
    104 N         -7.7813  -19.4480  -50.1694 N.am      19 UNK        -0.5000 
    105 CA        -8.5068  -18.4493  -50.9548 C.3       19 UNK         0.1400 
    106 CB        -9.9126  -18.9888  -51.2617 C.3       19 UNK        -0.1800 
    107 C         -7.7849  -18.0612  -52.2613 C.2       19 UNK         0.5000 
    108 O         -8.0406  -16.9762  -52.7853 O.2       19 UNK        -0.5000 
    109 N         -6.9208  -18.9477  -52.7748 N.am      20 UNK        -0.5000 
    110 CA        -6.1677  -18.7490  -54.0123 C.3       20 UNK         0.1400 
    111 CB        -6.0028  -20.0965  -54.7332 C.3       20 UNK        -0.1800 
    112 C         -4.7978  -18.1056  -53.7462 C.2       20 UNK         0.5000 
    113 O         -4.4031  -17.2151  -54.4986 O.2       20 UNK        -0.5000 
    114 N         -4.1133  -18.5605  -52.6840 N.am      21 UNK        -0.5000 
    115 CA        -2.7648  -18.1748  -52.2555 C.3       21 UNK         0.1400 
    116 CB        -2.7175  -16.6969  -51.8082 C.3       21 UNK        -0.1800 
    117 C         -1.7026  -18.5347  -53.3145 C.2       21 UNK         0.5000 
    118 O         -1.2044  -19.6609  -53.3093 O.2       21 UNK        -0.5000 
    119 N         -1.3981  -17.5940  -54.2121 N.am      22 UNK        -0.5000 
    120 CA        -0.4741  -17.7462  -55.3400 C.3       22 UNK         0.1400 
    121 C         -0.8658  -16.8124  -56.5172 C.2       22 UNK         0.5000 
    122 N         -0.3966  -17.0989  -57.7245 N.am      22 UNK        -0.7600 
    123 O         -1.5781  -15.8235  -56.3521 O.2       22 UNK        -0.5000 
    124 C124        1.0156  -17.5965  -54.9256 C.3       23 UNK        -0.0398 
    125 S125        1.4181  -15.9972  -54.1304 S.3       23 UNK        -0.2404 
    126 C126        2.6409  -16.4899  -52.8740 C.3       23 UNK        -0.0205 
    127 H127        4.4614  -16.8834  -50.3677 H         1 UNK         0.0600 
    128 H128        5.7679  -17.4552  -49.3329 H         1 UNK         0.0600 
    129 H129        5.9498  -15.9432  -50.2306 H         1 UNK         0.0600 
    130 H130        2.8015  -15.8967  -49.2658 H         1 UNK         0.3000 
    131 H131        2.8293  -15.3521  -46.5010 H         1 UNK         0.0600 
    132 H132        0.5793  -14.1590  -47.0932 H         1 UNK         0.0800 
    133 H133        0.8719  -14.6199  -48.7321 H         1 UNK         0.0800 
    134 H134       -0.9197  -16.0947  -49.3007 H         1 UNK         0.0800 
    135 H135       -1.2145  -17.6926  -48.6829 H         1 UNK         0.0800 
    136 H136        0.8859  -15.7339  -50.9385 H         1 UNK         0.1150 
    137 H137        3.0258  -19.1493  -52.3983 H         1 UNK         0.1150 
    138 H138        0.4767  -19.5208  -48.9773 H         1 UNK         0.1150 
    139 H139        1.1415  -21.5412  -50.6152 H         1 UNK         0.0800 
    140 H140        2.6309  -21.3189  -51.4959 H         1 UNK         0.0800 
    141 H141        3.9005  -23.6008  -48.7950 H         1 UNK         0.0800 
    142 H142        2.6844  -23.6298  -50.0287 H         1 UNK         0.0800 
    143 H143        2.1627  -24.7836  -47.7768 H         1 UNK         0.0600 
    144 H144        2.7301  -22.3120  -46.6467 H         1 UNK         0.3000 
    145 H145        0.6605  -22.3358  -43.8338 H         1 UNK         0.0600 
    146 H146        2.1403  -24.1019  -42.9966 H         1 UNK         0.0600 
    147 H147        2.7038  -22.5384  -42.4256 H         1 UNK         0.0600 
    148 H148        3.5425  -23.3570  -43.7450 H         1 UNK         0.0600 
    149 H149        1.3148  -20.4034  -44.5689 H         1 UNK         0.3000 
    150 H150        4.4082  -18.8400  -45.0654 H         1 UNK         0.0600 
    151 H151        3.8920  -19.2130  -47.4117 H         1 UNK         0.0600 
    152 H152        3.1335  -17.7133  -46.9239 H         1 UNK         0.0600 
    153 H153        2.1533  -19.1606  -47.1081 H         1 UNK         0.0600 
    154 H154        1.4833  -18.3314  -44.7936 H         1 UNK         0.3000 
    155 H155        1.9106  -17.0292  -41.4898 H         1 UNK         0.0600 
    156 H156        0.9123  -15.7986  -44.1218 H         1 UNK         0.0600 
    157 H157        2.1758  -15.1183  -43.1048 H         1 UNK         0.0600 
    158 H158        0.5352  -15.2321  -42.4958 H         1 UNK         0.0600 
    159 H159       -0.4140  -17.5685  -43.0362 H         1 UNK         0.3000 
    160 H160       -0.8348  -20.9616  -42.5433 H         1 UNK         0.0600 
    161 H161       -2.2327  -18.9175  -40.7356 H         1 UNK         0.0600 
    162 H162       -1.4047  -20.3689  -40.1810 H         1 UNK         0.0600 
    163 H163       -2.8501  -20.5117  -41.1688 H         1 UNK         0.0600 
    164 H164       -2.7207  -18.8878  -43.1425 H         1 UNK         0.3000 
    165 H165       -1.8430  -18.3850  -46.5400 H         1 UNK         0.0600 
    166 H166       -4.2793  -18.7917  -46.7334 H         1 UNK         0.0600 
    167 H167       -3.3874  -20.2928  -46.5210 H         1 UNK         0.0600 
    168 H168       -4.2869  -19.6175  -45.1762 H         1 UNK         0.0600 
    169 H169       -2.3013  -16.4520  -45.5970 H         1 UNK         0.3000 
    170 H170       -4.7111  -15.1266  -43.6403 H         1 UNK         0.0600 
    171 H171       -3.4313  -15.7072  -41.5851 H         1 UNK         0.0600 
    172 H172       -1.9121  -15.3675  -42.4050 H         1 UNK         0.0600 
    173 H173       -3.0598  -14.0674  -42.0917 H         1 UNK         0.0600 
    174 H174       -2.0446  -14.2877  -44.6014 H         1 UNK         0.3000 
    175 H175       -2.0251  -13.9371  -47.2272 H         1 UNK         0.0600 
    176 H176       -4.2384  -11.8617  -47.6006 H         1 UNK         0.0600 
    177 H177       -2.8497  -12.0989  -48.6623 H         1 UNK         0.0600 
    178 H178       -4.0616  -13.3574  -48.5124 H         1 UNK         0.0600 
    179 H179       -2.1865  -11.2187  -46.3901 H         1 UNK         0.3000 
    180 H180       -0.2360  -10.3126  -45.7053 H         1 UNK         0.0600 
    181 H181       -0.2146  -11.4113  -42.8241 H         1 UNK         0.0600 
    182 H182       -1.4253  -10.3235  -43.4955 H         1 UNK         0.0600 
    183 H183        0.2299   -9.7692  -43.2864 H         1 UNK         0.0600 
    184 H184        1.4851  -12.5070  -44.8548 H         1 UNK         0.3000 
    185 H185        4.2664  -11.0958  -46.5135 H         1 UNK         0.0600 
    186 H186        4.7559  -10.5155  -44.1396 H         1 UNK         0.0600 
    187 H187        4.0327  -12.0253  -43.5981 H         1 UNK         0.0600 
    188 H188        5.5017  -12.0452  -44.5746 H         1 UNK         0.0600 
    189 H189        3.5245  -13.6639  -45.3507 H         1 UNK         0.3000 
    190 H190        0.2555  -21.7704  -48.1655 H         1 UNK         0.3000 
    191 H191       -1.6838  -22.9978  -49.9211 H         1 UNK         0.0600 
    192 H192       -2.9623  -20.8701  -49.5325 H         1 UNK         0.0600 
    193 H193       -1.3207  -20.6048  -50.0622 H         1 UNK         0.0600 
    194 H194       -1.7461  -20.3672  -48.3620 H         1 UNK         0.0600 
    195 H195       -1.4467  -22.6139  -46.4097 H         1 UNK         0.3000 
    196 H196       -4.1636  -23.3812  -45.8085 H         1 UNK         0.0600 
    197 H197       -1.6418  -23.3885  -44.0656 H         1 UNK         0.0600 
    198 H198       -2.8205  -22.0836  -44.1952 H         1 UNK         0.0600 
    199 H199       -3.2844  -23.6195  -43.4844 H         1 UNK         0.0600 
    200 H200       -1.0230  -25.1341  -45.9088 H         1 UNK         0.3000 
    201 H201       -2.0245  -27.7062  -45.2523 H         1 UNK         0.0600 
    202 H202        0.3664  -27.0874  -45.0746 H         1 UNK         0.0600 
    203 H203        0.4754  -26.8746  -46.8204 H         1 UNK         0.0600 
    204 H204        0.1881  -28.4732  -46.1406 H         1 UNK         0.0600 
    205 H205       -1.5755  -26.0915  -48.4204 H         1 UNK         0.3000 
    206 H206       -2.3907  -28.3429  -50.0153 H         1 UNK         0.0600 
    207 H207       -0.9392  -26.5213  -50.8804 H         1 UNK         0.0600 
    208 H208       -2.4016  -26.6385  -51.8450 H         1 UNK         0.0600 
    209 H209       -2.2389  -25.3497  -50.6593 H         1 UNK         0.0600 
    210 H210       -4.2091  -26.1502  -48.1186 H         1 UNK         0.3000 
    211 H211       -6.3146  -25.5445  -47.8658 H         1 UNK         0.0600 
    212 H212       -8.1631  -27.0491  -48.4761 H         1 UNK         0.0600 
    213 H213       -6.8292  -27.9964  -47.8371 H         1 UNK         0.0600 
    214 H214       -7.1335  -27.9561  -49.5734 H         1 UNK         0.0600 
    215 H215       -4.8678  -24.1559  -49.6128 H         1 UNK         0.3000 
    216 H216       -6.6845  -23.3343  -51.8437 H         1 UNK         0.0600 
    217 H217       -3.6158  -23.4304  -51.8245 H         1 UNK         0.0600 
    218 H218       -4.6336  -22.9135  -53.1641 H         1 UNK         0.0600 
    219 H219       -4.6483  -24.5932  -52.6539 H         1 UNK         0.0600 
    220 H220       -6.4595  -22.4398  -49.0113 H         1 UNK         0.3000 
    221 H221       -4.9695  -20.1324  -48.6301 H         1 UNK         0.0600 
    222 H222       -6.0326  -21.3830  -46.7984 H         1 UNK         0.0600 
    223 H223       -7.6432  -20.9711  -47.3897 H         1 UNK         0.0600 
    224 H224       -6.5939  -19.7194  -46.7407 H         1 UNK         0.0600 
    225 H225       -8.0993  -20.4036  -50.2371 H         1 UNK         0.3000 
    226 H226       -8.6148  -17.5426  -50.3556 H         1 UNK         0.0600 
    227 H227       -9.8728  -19.9029  -51.8554 H         1 UNK         0.0600 
    228 H228      -10.4606  -19.2065  -50.3447 H         1 UNK         0.0600 
    229 H229      -10.4977  -18.2586  -51.8224 H         1 UNK         0.0600 
    230 H230       -6.6991  -19.7800  -52.2436 H         1 UNK         0.3000 
    231 H231       -6.7256  -18.0866  -54.6779 H         1 UNK         0.0600 
    232 H232       -5.4348  -20.8103  -54.1369 H         1 UNK         0.0600 
    233 H233       -5.4751  -19.9687  -55.6792 H         1 UNK         0.0600 
    234 H234       -6.9710  -20.5436  -54.9588 H         1 UNK         0.0600 
    235 H235       -4.5156  -19.3428  -52.1727 H         1 UNK         0.3000 
    236 H236       -2.5375  -18.7821  -51.3782 H         1 UNK         0.0600 
    237 H237       -3.3366  -16.5395  -50.9248 H         1 UNK         0.0600 
    238 H238       -1.7010  -16.4009  -51.5514 H         1 UNK         0.0600 
    239 H239       -3.0649  -16.0111  -52.5804 H         1 UNK         0.0600 
    240 H240       -1.9153  -16.7241  -54.2114 H         1 UNK         0.3000 
    241 H241       -0.6091  -18.7602  -55.7220 H         1 UNK         0.0600 
    242 H242       -0.6381  -16.4970  -58.4968 H         1 UNK         0.3800 
    243 H243        0.1881  -17.9034  -57.8920 H         1 UNK         0.3800 
    244 H244        1.6693  -17.7234  -55.7897 H         1 UNK         0.0800 
    245 H245        1.2718  -18.4119  -54.2501 H         1 UNK         0.0800 
    246 H246        3.4677  -17.0097  -53.3607 H         1 UNK         0.0800 
    247 H247        3.0673  -15.5909  -52.4269 H         1 UNK         0.0800 
@<TRIPOS>BOND
     1    1    2 1    
     2    1  127 1    
     3    1  128 1    
     4    1  129 1    
     5    2    3 2    
     6    2    4 am   BACKBONE|DICT|INTERRES
     7    4    5 1    
     8    4  130 1    
     9    5    6 1    
    10    5   65 1    
    11    5  131 1    
    12    6    7 1    
    13    6  132 1    
    14    6  133 1    
    15    7    8 1    
    16    8    9 1    
    17    8  134 1    
    18    8  135 1    
    19    9   10 ar   
    20    9   14 ar   
    21   10   11 ar   
    22   10  136 1    
    23   11   12 ar   
    24   11  126 1    
    25   12   13 ar   
    26   12  137 1    
    27   13   14 ar   
    28   13   15 1    
    29   14  138 1    
    30   15   16 1    
    31   15  139 1    
    32   15  140 1    
    33   16   17 1    
    34   17   18 1    
    35   17  141 1    
    36   17  142 1    
    37   18   19 1    
    38   18   67 1    
    39   18  143 1    
    40   19   20 am   BACKBONE|DICT|INTERRES
    41   19  144 1    
    42   20   21 2    
    43   20   22 1    
    44   22   23 1    
    45   22   24 1    
    46   22  145 1    
    47   23  146 1    
    48   23  147 1    
    49   23  148 1    
    50   24   25 am   BACKBONE|DICT|INTERRES
    51   24  149 1    
    52   25   26 2    
    53   25   27 1    
    54   27   28 1    
    55   27   29 1    
    56   27  150 1    
    57   28  151 1    
    58   28  152 1    
    59   28  153 1    
    60   29   30 am   BACKBONE|DICT|INTERRES
    61   29  154 1    
    62   30   31 2    
    63   30   32 1    
    64   32   33 1    
    65   32   34 1    
    66   32  155 1    
    67   33  156 1    
    68   33  157 1    
    69   33  158 1    
    70   34   35 am   BACKBONE|DICT|INTERRES
    71   34  159 1    
    72   35   36 2    
    73   35   37 1    
    74   37   38 1    
    75   37   39 1    
    76   37  160 1    
    77   38  161 1    
    78   38  162 1    
    79   38  163 1    
    80   39   40 am   BACKBONE|DICT|INTERRES
    81   39  164 1    
    82   40   41 2    
    83   40   42 1    
    84   42   43 1    
    85   42   44 1    
    86   42  165 1    
    87   43  166 1    
    88   43  167 1    
    89   43  168 1    
    90   44   45 am   BACKBONE|DICT|INTERRES
    91   44  169 1    
    92   45   46 2    
    93   45   47 1    
    94   47   48 1    
    95   47   49 1    
    96   47  170 1    
    97   48  171 1    
    98   48  172 1    
    99   48  173 1    
   100   49   50 am   BACKBONE|DICT|INTERRES
   101   49  174 1    
   102   50   51 2    
   103   50   52 1    
   104   52   53 1    
   105   52   54 1    
   106   52  175 1    
   107   53  176 1    
   108   53  177 1    
   109   53  178 1    
   110   54   55 am   BACKBONE|DICT|INTERRES
   111   54  179 1    
   112   55   56 2    
   113   55   57 1    
   114   57   58 1    
   115   57   59 1    
   116   57  180 1    
   117   58  181 1    
   118   58  182 1    
   119   58  183 1    
   120   59   60 am   BACKBONE|DICT|INTERRES
   121   59  184 1    
   122   60   61 2    
   123   60   62 1    
   124   62   63 1    
   125   62   64 1    
   126   62  185 1    
   127   63  186 1    
   128   63  187 1    
   129   63  188 1    
   130   64   65 am   BACKBONE|DICT|INTERRES
   131   64  189 1    
   132   65   66 2    
   133   67   68 2    
   134   67   69 am   BACKBONE|DICT|INTERRES
   135   69   70 1    
   136   69  190 1    
   137   70   71 1    
   138   70   72 1    
   139   70  191 1    
   140   71  192 1    
   141   71  193 1    
   142   71  194 1    
   143   72   73 2    
   144   72   74 am   BACKBONE|DICT|INTERRES
   145   74   75 1    
   146   74  195 1    
   147   75   76 1    
   148   75   77 1    
   149   75  196 1    
   150   76  197 1    
   151   76  198 1    
   152   76  199 1    
   153   77   78 2    
   154   77   79 am   BACKBONE|DICT|INTERRES
   155   79   80 1    
   156   79  200 1    
   157   80   81 1    
   158   80   82 1    
   159   80  201 1    
   160   81  202 1    
   161   81  203 1    
   162   81  204 1    
   163   82   83 2    
   164   82   84 am   BACKBONE|DICT|INTERRES
   165   84   85 1    
   166   84  205 1    
   167   85   86 1    
   168   85   87 1    
   169   85  206 1    
   170   86  207 1    
   171   86  208 1    
   172   86  209 1    
   173   87   88 2    
   174   87   89 am   BACKBONE|DICT|INTERRES
   175   89   90 1    
   176   89  210 1    
   177   90   91 1    
   178   90   92 1    
   179   90  211 1    
   180   91  212 1    
   181   91  213 1    
   182   91  214 1    
   183   92   93 2    
   184   92   94 am   BACKBONE|DICT|INTERRES
   185   94   95 1    
   186   94  215 1    
   187   95   96 1    
   188   95   97 1    
   189   95  216 1    
   190   96  217 1    
   191   96  218 1    
   192   96  219 1    
   193   97   98 2    
   194   97   99 am   BACKBONE|DICT|INTERRES
   195   99  100 1    
   196   99  220 1    
   197  100  101 1    
   198  100  102 1    
   199  100  221 1    
   200  101  222 1    
   201  101  223 1    
   202  101  224 1    
   203  102  103 2    
   204  102  104 am   BACKBONE|DICT|INTERRES
   205  104  105 1    
   206  104  225 1    
   207  105  106 1    
   208  105  107 1    
   209  105  226 1    
   210  106  227 1    
   211  106  228 1    
   212  106  229 1    
   213  107  108 2    
   214  107  109 am   BACKBONE|DICT|INTERRES
   215  109  110 1    
   216  109  230 1    
   217  110  111 1    
   218  110  112 1    
   219  110  231 1    
   220  111  232 1    
   221  111  233 1    
   222  111  234 1    
   223  112  113 2    
   224  112  114 am   BACKBONE|DICT|INTERRES
   225  114  115 1    
   226  114  235 1    
   227  115  116 1    
   228  115  117 1    
   229  115  236 1    
   230  116  237 1    
   231  116  238 1    
   232  116  239 1    
   233  117  118 2    
   234  117  119 am   BACKBONE|DICT|INTERRES
   235  119  120 1    
   236  119  240 1    
   237  120  121 1    
   238  120  124 1    
   239  120  241 1    
   240  121  122 am   BACKBONE|DICT|INTERRES
   241  121  123 2    
   242  122  242 1    
   243  122  243 1    
   244  124  125 1    
   245  124  244 1    
   246  124  245 1    
   247  125  126 1    
   248  126  246 1    
   249  126  247 1    
@<TRIPOS>SUBSTRUCTURE
     1 UNK         1 GROUP             0       ****    0 ROOT    
