@<TRIPOS>MOLECULE
3R540
247   249    1
SMALL
USER_CHARGES


@<TRIPOS>ATOM
      1 CA         -2.9968   -9.8617  -47.1826 C.3       0 UNK        -0.1800 
      2 C          -2.1528  -11.0653  -46.7925 C.2       0 UNK         0.5000 
      3 O          -1.4220  -11.0060  -45.8043 O.2       0 UNK        -0.5000 
      4 N          -2.2630  -12.1654  -47.5483 N.am      1 UNK        -0.5000 
      5 CA         -1.4918  -13.4068  -47.3791 C.3       1 UNK         0.1400 
      6 C6         -1.7514  -14.4055  -48.5301 C.3       23 UNK        -0.0398 
      7 S7         -1.2469  -13.7585  -50.1627 S.3       23 UNK        -0.2404 
      8 C8          0.2801  -14.7009  -50.5062 C.3       23 UNK        -0.0205 
      9 C9          0.0536  -16.2076  -50.4895 C.ar      23 UNK        -0.0193 
     10 C10        -0.8485  -16.7970  -51.3790 C.ar      23 UNK        -0.1150 
     11 C11        -1.1142  -18.1670  -51.3176 C.ar      23 UNK        -0.0193 
     12 C12        -0.4671  -18.9486  -50.3552 C.ar      23 UNK        -0.1150 
     13 C13         0.4614  -18.3808  -49.4771 C.ar      23 UNK        -0.0193 
     14 C14         0.7259  -17.0087  -49.5617 C.ar      23 UNK        -0.1150 
     15 C15         1.1782  -19.2736  -48.4652 C.3       23 UNK        -0.0205 
     16 S16         1.4637  -18.5135  -46.8280 S.3       23 UNK        -0.2404 
     17 C17        -0.2015  -17.9407  -46.3466 C.3       23 UNK        -0.0398 
     18 CA         -1.2738  -19.0474  -46.2757 C.3       11 UNK         0.1400 
     19 N          -0.8398  -20.1766  -45.4494 N.am      11 UNK        -0.5000 
     20 C          -1.4980  -21.3301  -45.2850 C.2       10 UNK         0.5000 
     21 O          -2.5668  -21.5853  -45.8399 O.2       10 UNK        -0.5000 
     22 CA         -0.8802  -22.3520  -44.3135 C.3       10 UNK         0.1400 
     23 CB         -0.1251  -23.4388  -45.0923 C.3       10 UNK        -0.1800 
     24 N           0.0271  -21.7637  -43.3231 N.am      10 UNK        -0.5000 
     25 C          -0.3088  -20.8783  -42.3733 C.2       9 UNK         0.5000 
     26 O          -1.4323  -20.3800  -42.2876 O.2       9 UNK        -0.5000 
     27 CA          0.7947  -20.4356  -41.3867 C.3       9 UNK         0.1400 
     28 CB          0.3144  -20.4914  -39.9228 C.3       9 UNK        -0.1800 
     29 N           2.0849  -21.1231  -41.5497 N.am      9 UNK        -0.5000 
     30 C           2.3798  -22.4142  -41.3214 C.2       8 UNK         0.5000 
     31 O           1.5593  -23.2432  -40.9285 O.2       8 UNK        -0.5000 
     32 CA          3.8216  -22.8785  -41.6221 C.3       8 UNK         0.1400 
     33 CB          3.8560  -23.6800  -42.9336 C.3       8 UNK        -0.1800 
     34 N           4.7846  -21.7803  -41.7234 N.am      8 UNK        -0.5000 
     35 C           5.2469  -21.0648  -40.6890 C.2       7 UNK         0.5000 
     36 O           4.9761  -21.3136  -39.5137 O.2       7 UNK        -0.5000 
     37 CA          6.1433  -19.8516  -41.0205 C.3       7 UNK         0.1400 
     38 CB          7.6243  -20.2144  -40.8308 C.3       7 UNK        -0.1800 
     39 N           5.9611  -19.2883  -42.3662 N.am      7 UNK        -0.5000 
     40 C           4.8129  -18.8027  -42.8573 C.2       6 UNK         0.5000 
     41 O           3.7377  -18.8598  -42.2550 O.2       6 UNK        -0.5000 
     42 CA          4.8679  -18.2070  -44.2782 C.3       6 UNK         0.1400 
     43 CB          4.9108  -19.3305  -45.3266 C.3       6 UNK        -0.1800 
     44 N           3.6976  -17.3724  -44.5445 N.am      6 UNK        -0.5000 
     45 C           3.4602  -16.1836  -43.9789 C.2       5 UNK         0.5000 
     46 O           4.2876  -15.5585  -43.3095 O.2       5 UNK        -0.5000 
     47 CA          2.0290  -15.6503  -44.1437 C.3       5 UNK         0.1400 
     48 CB          1.1052  -16.2731  -43.0824 C.3       5 UNK        -0.1800 
     49 N           1.9658  -14.1994  -44.0202 N.am      5 UNK        -0.5000 
     50 C           2.2316  -13.3348  -45.0042 C.2       4 UNK         0.5000 
     51 O           2.6013  -13.6775  -46.1292 O.2       4 UNK        -0.5000 
     52 CA          2.0062  -11.8428  -44.6778 C.3       4 UNK         0.1400 
     53 CB          2.0924  -10.9447  -45.9255 C.3       4 UNK        -0.1800 
     54 N           0.7058  -11.6267  -44.0411 N.am      4 UNK        -0.5000 
     55 C           0.4370  -11.7596  -42.7357 C.2       3 UNK         0.5000 
     56 O           1.2803  -12.0729  -41.8952 O.2       3 UNK        -0.5000 
     57 CA         -1.0281  -11.5692  -42.3155 C.3       3 UNK         0.1400 
     58 CB         -1.4354  -10.0884  -42.3816 C.3       3 UNK        -0.1800 
     59 N          -1.9063  -12.3585  -43.1776 N.am      3 UNK        -0.5000 
     60 C          -2.2959  -13.6152  -42.9199 C.2       2 UNK         0.5000 
     61 O          -2.0220  -14.2168  -41.8815 O.2       2 UNK        -0.5000 
     62 CA         -3.1289  -14.3293  -44.0036 C.3       2 UNK         0.1400 
     63 CB         -4.6310  -14.1842  -43.7184 C.3       2 UNK        -0.1800 
     64 N          -2.8459  -13.8384  -45.3532 N.am      2 UNK        -0.5000 
     65 C          -1.7158  -14.1078  -46.0212 C.2       1 UNK         0.5000 
     66 O          -0.8540  -14.8747  -45.5990 O.2       1 UNK        -0.5000 
     67 C          -2.6192  -18.4408  -45.8219 C.2       11 UNK         0.5000 
     68 O          -3.3443  -17.9028  -46.6578 O.2       11 UNK        -0.5000 
     69 N          -2.9654  -18.5858  -44.5327 N.am      12 UNK        -0.5000 
     70 CA         -4.2686  -18.2030  -43.9803 C.3       12 UNK         0.1400 
     71 CB         -4.1917  -18.2268  -42.4472 C.3       12 UNK        -0.1800 
     72 C          -5.4292  -19.0848  -44.4893 C.2       12 UNK         0.5000 
     73 O          -6.5766  -18.6396  -44.4742 O.2       12 UNK        -0.5000 
     74 N          -5.1063  -20.2959  -44.9621 N.am      13 UNK        -0.5000 
     75 CA         -6.0094  -21.2226  -45.6444 C.3       13 UNK         0.1400 
     76 CB         -5.8619  -22.6106  -44.9955 C.3       13 UNK        -0.1800 
     77 C          -5.7092  -21.2752  -47.1583 C.2       13 UNK         0.5000 
     78 O          -6.1116  -22.2323  -47.8217 O.2       13 UNK        -0.5000 
     79 N          -4.9707  -20.2763  -47.6734 N.am      14 UNK        -0.5000 
     80 CA         -4.5086  -20.1200  -49.0586 C.3       14 UNK         0.1400 
     81 CB         -5.6993  -19.7983  -49.9848 C.3       14 UNK        -0.1800 
     82 C          -3.6584  -21.3037  -49.5701 C.2       14 UNK         0.5000 
     83 O          -3.6459  -21.5722  -50.7693 O.2       14 UNK        -0.5000 
     84 N          -2.9798  -22.0046  -48.6488 N.am      15 UNK        -0.5000 
     85 CA         -2.2174  -23.2362  -48.8702 C.3       15 UNK         0.1400 
     86 CB         -0.9366  -22.9499  -49.6796 C.3       15 UNK        -0.1800 
     87 C          -3.0694  -24.4033  -49.4235 C.2       15 UNK         0.5000 
     88 O          -2.5463  -25.2736  -50.1230 O.2       15 UNK        -0.5000 
     89 N          -4.3652  -24.4137  -49.0694 N.am      16 UNK        -0.5000 
     90 CA         -5.3718  -25.4258  -49.3943 C.3       16 UNK         0.1400 
     91 CB         -5.1021  -26.7206  -48.5950 C.3       16 UNK        -0.1800 
     92 C          -5.5112  -25.6396  -50.9157 C.2       16 UNK         0.5000 
     93 O          -5.9729  -24.7353  -51.6110 O.2       16 UNK        -0.5000 
     94 N          -5.1059  -26.8157  -51.4133 N.am      17 UNK        -0.5000 
     95 CA         -5.1704  -27.2062  -52.8238 C.3       17 UNK         0.1400 
     96 CB         -4.7926  -28.6905  -52.9447 C.3       17 UNK        -0.1800 
     97 C          -4.2951  -26.3501  -53.7616 C.2       17 UNK         0.5000 
     98 O          -4.5829  -26.2842  -54.9574 O.2       17 UNK        -0.5000 
     99 N          -3.2582  -25.6976  -53.2165 N.am      18 UNK        -0.5000 
    100 CA        -2.3584  -24.8153  -53.9611 C.3       18 UNK         0.1400 
    101 CB        -1.0497  -24.6475  -53.1784 C.3       18 UNK        -0.1800 
    102 C         -2.9727  -23.4439  -54.3068 C.2       18 UNK         0.5000 
    103 O         -2.3777  -22.7211  -55.1068 O.2       18 UNK        -0.5000 
    104 N         -4.1491  -23.1145  -53.7476 N.am      19 UNK        -0.5000 
    105 CA        -4.8688  -21.8461  -53.9302 C.3       19 UNK         0.1400 
    106 CB        -6.1629  -21.8800  -53.1031 C.3       19 UNK        -0.1800 
    107 C         -5.1992  -21.4861  -55.3931 C.2       19 UNK         0.5000 
    108 O         -5.4070  -20.3113  -55.6953 O.2       19 UNK        -0.5000 
    109 N         -5.2460  -22.4945  -56.2732 N.am      20 UNK        -0.5000 
    110 CA        -5.4138  -22.3309  -57.7158 C.3       20 UNK         0.1400 
    111 CB        -5.8802  -23.6697  -58.3087 C.3       20 UNK        -0.1800 
    112 C         -4.1331  -21.8460  -58.4277 C.2       20 UNK         0.5000 
    113 O         -4.2349  -21.3064  -59.5306 O.2       20 UNK        -0.5000 
    114 N         -2.9611  -22.0634  -57.8146 N.am      21 UNK        -0.5000 
    115 CA        -1.6533  -21.7227  -58.3693 C.3       21 UNK         0.1400 
    116 CB        -0.6694  -22.8749  -58.1044 C.3       21 UNK        -0.1800 
    117 C         -1.1213  -20.4033  -57.7891 C.2       21 UNK         0.5000 
    118 O         -0.6982  -19.5394  -58.5594 O.2       21 UNK        -0.5000 
    119 N         -1.1354  -20.2675  -56.4557 N.am      22 UNK        -0.5000 
    120 CA        -0.6943  -19.0509  -55.7513 C.3       22 UNK         0.1400 
    121 C         -1.7144  -17.8771  -55.8224 C.2       22 UNK         0.5000 
    122 N         -1.2939  -16.6649  -55.4833 N.am      22 UNK        -0.7600 
    123 O         -2.8810  -18.0429  -56.1695 O.2       22 UNK        -0.5000 
    124 C124       -0.2109  -19.3433  -54.3052 C.3       23 UNK        -0.0398 
    125 S125       -1.4309  -20.1747  -53.2340 S.3       23 UNK        -0.2404 
    126 C126       -2.1223  -18.7897  -52.2740 C.3       23 UNK        -0.0205 
    127 H127       -3.6046  -10.0611  -48.0655 H         1 UNK         0.0600 
    128 H128       -2.3533   -9.0085  -47.3971 H         1 UNK         0.0600 
    129 H129       -3.6628   -9.5903  -46.3635 H         1 UNK         0.0600 
    130 H130       -2.8762  -12.1478  -48.3511 H         1 UNK         0.3000 
    131 H131       -0.4349  -13.1318  -47.4057 H         1 UNK         0.0600 
    132 H132       -2.8113  -14.6610  -48.5797 H         1 UNK         0.0800 
    133 H133       -1.2339  -15.3451  -48.3413 H         1 UNK         0.0800 
    134 H134        1.0410  -14.4135  -49.7787 H         1 UNK         0.0800 
    135 H135        0.6638  -14.4103  -51.4850 H         1 UNK         0.0800 
    136 H136       -1.3618  -16.1795  -52.1030 H         1 UNK         0.1150 
    137 H137       -0.6802  -20.0071  -50.3052 H         1 UNK         0.1150 
    138 H138        1.4386  -16.5573  -48.8860 H         1 UNK         0.1150 
    139 H139        0.6244  -20.2008  -48.3162 H         1 UNK         0.0800 
    140 H140        2.1431  -19.5608  -48.8844 H         1 UNK         0.0800 
    141 H141       -0.5088  -17.1594  -47.0411 H         1 UNK         0.0800 
    142 H142       -0.1115  -17.4559  -45.3751 H         1 UNK         0.0800 
    143 H143       -1.4358  -19.4327  -47.2842 H         1 UNK         0.0600 
    144 H144        0.0398  -20.0629  -44.9684 H         1 UNK         0.3000 
    145 H145       -1.7028  -22.8231  -43.7718 H         1 UNK         0.0600 
    146 H146        0.2829  -24.1945  -44.4206 H         1 UNK         0.0600 
    147 H147       -0.7879  -23.9530  -45.7886 H         1 UNK         0.0600 
    148 H148        0.7010  -23.0212  -45.6696 H         1 UNK         0.0600 
    149 H149        0.9722  -22.1157  -43.3149 H         1 UNK         0.3000 
    150 H150        0.9928  -19.3888  -41.6202 H         1 UNK         0.0600 
    151 H151       -0.5523  -19.8469  -39.7710 H         1 UNK         0.0600 
    152 H152        1.0931  -20.1516  -39.2399 H         1 UNK         0.0600 
    153 H153        0.0236  -21.4997  -39.6273 H         1 UNK         0.0600 
    154 H154        2.8369  -20.5113  -41.8566 H         1 UNK         0.3000 
    155 H155        4.1308  -23.5376  -40.8082 H         1 UNK         0.0600 
    156 H156        3.5686  -23.0672  -43.7891 H         1 UNK         0.0600 
    157 H157        3.1718  -24.5287  -42.8932 H         1 UNK         0.0600 
    158 H158        4.8523  -24.0786  -43.1257 H         1 UNK         0.0600 
    159 H159        5.0712  -21.5112  -42.6527 H         1 UNK         0.3000 
    160 H160        5.8914  -19.0665  -40.3047 H         1 UNK         0.0600 
    161 H161        7.9467  -20.9722  -41.5460 H         1 UNK         0.0600 
    162 H162        7.8063  -20.6090  -39.8301 H         1 UNK         0.0600 
    163 H163        8.2646  -19.3407  -40.9538 H         1 UNK         0.0600 
    164 H164        6.7941  -19.2264  -42.9341 H         1 UNK         0.3000 
    165 H165        5.7670  -17.5942  -44.3698 H         1 UNK         0.0600 
    166 H166        4.9418  -18.9242  -46.3379 H         1 UNK         0.0600 
    167 H167        5.7969  -19.9540  -45.2026 H         1 UNK         0.0600 
    168 H168        4.0381  -19.9815  -45.2562 H         1 UNK         0.0600 
    169 H169        2.9584  -17.8119  -45.0756 H         1 UNK         0.3000 
    170 H170        1.6673  -15.9289  -45.1348 H         1 UNK         0.0600 
    171 H171        1.4223  -16.0136  -42.0715 H         1 UNK         0.0600 
    172 H172        0.0758  -15.9361  -43.2067 H         1 UNK         0.0600 
    173 H173        1.1015  -17.3612  -43.1540 H         1 UNK         0.0600 
    174 H174        1.7144  -13.8272  -43.1136 H         1 UNK         0.3000 
    175 H175        2.7985  -11.5379  -43.9912 H         1 UNK         0.0600 
    176 H176        1.3393  -11.2146  -46.6671 H         1 UNK         0.0600 
    177 H177        1.9448   -9.8961  -45.6668 H         1 UNK         0.0600 
    178 H178        3.0700  -11.0262  -46.4020 H         1 UNK         0.0600 
    179 H179       -0.0598  -11.3944  -44.6708 H         1 UNK         0.3000 
    180 H180       -1.1298  -11.8971  -41.2787 H         1 UNK         0.0600 
    181 H181       -2.4613   -9.9488  -42.0408 H         1 UNK         0.0600 
    182 H182       -1.3632   -9.6885  -43.3936 H         1 UNK         0.0600 
    183 H183       -0.7947   -9.4799  -41.7421 H         1 UNK         0.0600 
    184 H184       -2.1177  -11.9584  -44.0836 H         1 UNK         0.3000 
    185 H185       -2.8750  -15.3906  -43.9629 H         1 UNK         0.0600 
    186 H186       -5.2270  -14.7293  -44.4507 H         1 UNK         0.0600 
    187 H187       -4.8809  -14.5842  -42.7348 H         1 UNK         0.0600 
    188 H188       -4.9458  -13.1401  -43.7388 H         1 UNK         0.0600 
    189 H189       -3.5160  -13.2062  -45.7660 H         1 UNK         0.3000 
    190 H190       -2.3347  -19.0669  -43.9021 H         1 UNK         0.3000 
    191 H191       -4.4829  -17.1802  -44.2946 H         1 UNK         0.0600 
    192 H192       -5.1338  -17.9023  -42.0034 H         1 UNK         0.0600 
    193 H193       -3.4128  -17.5575  -42.0809 H         1 UNK         0.0600 
    194 H194       -3.9786  -19.2283  -42.0713 H         1 UNK         0.0600 
    195 H195       -4.1317  -20.5750  -44.9617 H         1 UNK         0.3000 
    196 H196       -7.0463  -20.9004  -45.5329 H         1 UNK         0.0600 
    197 H197       -4.8585  -23.0152  -45.1343 H         1 UNK         0.0600 
    198 H198       -6.0600  -22.5670  -43.9245 H         1 UNK         0.0600 
    199 H199       -6.5665  -23.3240  -45.4247 H         1 UNK         0.0600 
    200 H200       -4.6777  -19.5364  -47.0473 H         1 UNK         0.3000 
    201 H201       -3.8444  -19.2546  -49.0645 H         1 UNK         0.0600 
    202 H202       -6.3934  -20.6363  -50.0539 H         1 UNK         0.0600 
    203 H203       -5.3637  -19.5673  -50.9963 H         1 UNK         0.0600 
    204 H204       -6.2547  -18.9325  -49.6245 H         1 UNK         0.0600 
    205 H205       -3.0503  -21.7192  -47.6757 H         1 UNK         0.3000 
    206 H206       -1.8999  -23.5682  -47.8819 H         1 UNK         0.0600 
    207 H207       -0.2925  -22.2511  -49.1479 H         1 UNK         0.0600 
    208 H208       -0.3548  -23.8578  -49.8416 H         1 UNK         0.0600 
    209 H209       -1.1583  -22.5175  -50.6548 H         1 UNK         0.0600 
    210 H210       -4.7233  -23.6125  -48.5605 H         1 UNK         0.3000 
    211 H211       -6.3284  -25.0244  -49.0567 H         1 UNK         0.0600 
    212 H212       -5.8700  -27.4707  -48.7884 H         1 UNK         0.0600 
    213 H213       -5.1146  -26.5218  -47.5233 H         1 UNK         0.0600 
    214 H214       -4.1340  -27.1622  -48.8338 H         1 UNK         0.0600 
    215 H215       -4.7097  -27.4915  -50.7764 H         1 UNK         0.3000 
    216 H216       -6.2050  -27.0893  -53.1528 H         1 UNK         0.0600 
    217 H217       -3.7729  -28.8742  -52.6039 H         1 UNK         0.0600 
    218 H218       -4.8587  -29.0283  -53.9798 H         1 UNK         0.0600 
    219 H219       -5.4626  -29.3182  -52.3568 H         1 UNK         0.0600 
    220 H220       -3.0982  -25.7727  -52.2180 H         1 UNK         0.3000 
    221 H221       -2.1138  -25.2983  -54.9096 H         1 UNK         0.0600 
    222 H222       -0.5703  -25.6091  -52.9955 H         1 UNK         0.0600 
    223 H223       -1.2256  -24.1719  -52.2167 H         1 UNK         0.0600 
    224 H224       -0.3394  -24.0266  -53.7262 H         1 UNK         0.0600 
    225 H225       -4.5653  -23.7625  -53.0902 H         1 UNK         0.3000 
    226 H226       -4.2340  -21.0518  -53.5356 H         1 UNK         0.0600 
    227 H227       -6.8367  -22.6665  -53.4450 H         1 UNK         0.0600 
    228 H228       -5.9537  -22.0565  -52.0488 H         1 UNK         0.0600 
    229 H229       -6.6984  -20.9322  -53.1709 H         1 UNK         0.0600 
    230 H230       -5.0769  -23.4313  -55.9356 H         1 UNK         0.3000 
    231 H231       -6.1939  -21.5882  -57.8961 H         1 UNK         0.0600 
    232 H232       -5.1445  -24.4589  -58.1474 H         1 UNK         0.0600 
    233 H233       -6.0425  -23.5864  -59.3842 H         1 UNK         0.0600 
    234 H234       -6.8215  -23.9920  -57.8633 H         1 UNK         0.0600 
    235 H235       -2.9568  -22.4414  -56.8715 H         1 UNK         0.3000 
    236 H236       -1.7279  -21.6029  -59.4523 H         1 UNK         0.0600 
    237 H237       -1.0192  -23.8018  -58.5589 H         1 UNK         0.0600 
    238 H238        0.3107  -22.6543  -58.5289 H         1 UNK         0.0600 
    239 H239       -0.5303  -23.0580  -57.0386 H         1 UNK         0.0600 
    240 H240       -1.5283  -21.0052  -55.8803 H         1 UNK         0.3000 
    241 H241        0.1859  -18.6895  -56.2871 H         1 UNK         0.0600 
    242 H242       -1.9444  -15.8962  -55.5269 H         1 UNK         0.3800 
    243 H243       -0.3397  -16.4877  -55.2115 H         1 UNK         0.3800 
    244 H244        0.1455  -18.4334  -53.8208 H         1 UNK         0.0800 
    245 H245        0.6612  -19.9963  -54.3538 H         1 UNK         0.0800 
    246 H246       -2.5234  -18.0445  -52.9619 H         1 UNK         0.0800 
    247 H247       -2.9713  -19.1536  -51.6973 H         1 UNK         0.0800 
@<TRIPOS>BOND
     1    1    2 1    
     2    1  127 1    
     3    1  128 1    
     4    1  129 1    
     5    2    3 2    
     6    2    4 am   BACKBONE|DICT|INTERRES
     7    4    5 1    
     8    4  130 1    
     9    5    6 1    
    10    5   65 1    
    11    5  131 1    
    12    6    7 1    
    13    6  132 1    
    14    6  133 1    
    15    7    8 1    
    16    8    9 1    
    17    8  134 1    
    18    8  135 1    
    19    9   10 ar   
    20    9   14 ar   
    21   10   11 ar   
    22   10  136 1    
    23   11   12 ar   
    24   11  126 1    
    25   12   13 ar   
    26   12  137 1    
    27   13   14 ar   
    28   13   15 1    
    29   14  138 1    
    30   15   16 1    
    31   15  139 1    
    32   15  140 1    
    33   16   17 1    
    34   17   18 1    
    35   17  141 1    
    36   17  142 1    
    37   18   19 1    
    38   18   67 1    
    39   18  143 1    
    40   19   20 am   BACKBONE|DICT|INTERRES
    41   19  144 1    
    42   20   21 2    
    43   20   22 1    
    44   22   23 1    
    45   22   24 1    
    46   22  145 1    
    47   23  146 1    
    48   23  147 1    
    49   23  148 1    
    50   24   25 am   BACKBONE|DICT|INTERRES
    51   24  149 1    
    52   25   26 2    
    53   25   27 1    
    54   27   28 1    
    55   27   29 1    
    56   27  150 1    
    57   28  151 1    
    58   28  152 1    
    59   28  153 1    
    60   29   30 am   BACKBONE|DICT|INTERRES
    61   29  154 1    
    62   30   31 2    
    63   30   32 1    
    64   32   33 1    
    65   32   34 1    
    66   32  155 1    
    67   33  156 1    
    68   33  157 1    
    69   33  158 1    
    70   34   35 am   BACKBONE|DICT|INTERRES
    71   34  159 1    
    72   35   36 2    
    73   35   37 1    
    74   37   38 1    
    75   37   39 1    
    76   37  160 1    
    77   38  161 1    
    78   38  162 1    
    79   38  163 1    
    80   39   40 am   BACKBONE|DICT|INTERRES
    81   39  164 1    
    82   40   41 2    
    83   40   42 1    
    84   42   43 1    
    85   42   44 1    
    86   42  165 1    
    87   43  166 1    
    88   43  167 1    
    89   43  168 1    
    90   44   45 am   BACKBONE|DICT|INTERRES
    91   44  169 1    
    92   45   46 2    
    93   45   47 1    
    94   47   48 1    
    95   47   49 1    
    96   47  170 1    
    97   48  171 1    
    98   48  172 1    
    99   48  173 1    
   100   49   50 am   BACKBONE|DICT|INTERRES
   101   49  174 1    
   102   50   51 2    
   103   50   52 1    
   104   52   53 1    
   105   52   54 1    
   106   52  175 1    
   107   53  176 1    
   108   53  177 1    
   109   53  178 1    
   110   54   55 am   BACKBONE|DICT|INTERRES
   111   54  179 1    
   112   55   56 2    
   113   55   57 1    
   114   57   58 1    
   115   57   59 1    
   116   57  180 1    
   117   58  181 1    
   118   58  182 1    
   119   58  183 1    
   120   59   60 am   BACKBONE|DICT|INTERRES
   121   59  184 1    
   122   60   61 2    
   123   60   62 1    
   124   62   63 1    
   125   62   64 1    
   126   62  185 1    
   127   63  186 1    
   128   63  187 1    
   129   63  188 1    
   130   64   65 am   BACKBONE|DICT|INTERRES
   131   64  189 1    
   132   65   66 2    
   133   67   68 2    
   134   67   69 am   BACKBONE|DICT|INTERRES
   135   69   70 1    
   136   69  190 1    
   137   70   71 1    
   138   70   72 1    
   139   70  191 1    
   140   71  192 1    
   141   71  193 1    
   142   71  194 1    
   143   72   73 2    
   144   72   74 am   BACKBONE|DICT|INTERRES
   145   74   75 1    
   146   74  195 1    
   147   75   76 1    
   148   75   77 1    
   149   75  196 1    
   150   76  197 1    
   151   76  198 1    
   152   76  199 1    
   153   77   78 2    
   154   77   79 am   BACKBONE|DICT|INTERRES
   155   79   80 1    
   156   79  200 1    
   157   80   81 1    
   158   80   82 1    
   159   80  201 1    
   160   81  202 1    
   161   81  203 1    
   162   81  204 1    
   163   82   83 2    
   164   82   84 am   BACKBONE|DICT|INTERRES
   165   84   85 1    
   166   84  205 1    
   167   85   86 1    
   168   85   87 1    
   169   85  206 1    
   170   86  207 1    
   171   86  208 1    
   172   86  209 1    
   173   87   88 2    
   174   87   89 am   BACKBONE|DICT|INTERRES
   175   89   90 1    
   176   89  210 1    
   177   90   91 1    
   178   90   92 1    
   179   90  211 1    
   180   91  212 1    
   181   91  213 1    
   182   91  214 1    
   183   92   93 2    
   184   92   94 am   BACKBONE|DICT|INTERRES
   185   94   95 1    
   186   94  215 1    
   187   95   96 1    
   188   95   97 1    
   189   95  216 1    
   190   96  217 1    
   191   96  218 1    
   192   96  219 1    
   193   97   98 2    
   194   97   99 am   BACKBONE|DICT|INTERRES
   195   99  100 1    
   196   99  220 1    
   197  100  101 1    
   198  100  102 1    
   199  100  221 1    
   200  101  222 1    
   201  101  223 1    
   202  101  224 1    
   203  102  103 2    
   204  102  104 am   BACKBONE|DICT|INTERRES
   205  104  105 1    
   206  104  225 1    
   207  105  106 1    
   208  105  107 1    
   209  105  226 1    
   210  106  227 1    
   211  106  228 1    
   212  106  229 1    
   213  107  108 2    
   214  107  109 am   BACKBONE|DICT|INTERRES
   215  109  110 1    
   216  109  230 1    
   217  110  111 1    
   218  110  112 1    
   219  110  231 1    
   220  111  232 1    
   221  111  233 1    
   222  111  234 1    
   223  112  113 2    
   224  112  114 am   BACKBONE|DICT|INTERRES
   225  114  115 1    
   226  114  235 1    
   227  115  116 1    
   228  115  117 1    
   229  115  236 1    
   230  116  237 1    
   231  116  238 1    
   232  116  239 1    
   233  117  118 2    
   234  117  119 am   BACKBONE|DICT|INTERRES
   235  119  120 1    
   236  119  240 1    
   237  120  121 1    
   238  120  124 1    
   239  120  241 1    
   240  121  122 am   BACKBONE|DICT|INTERRES
   241  121  123 2    
   242  122  242 1    
   243  122  243 1    
   244  124  125 1    
   245  124  244 1    
   246  124  245 1    
   247  125  126 1    
   248  126  246 1    
   249  126  247 1    
@<TRIPOS>SUBSTRUCTURE
     1 UNK         1 GROUP             0       ****    0 ROOT    
