@<TRIPOS>MOLECULE
3R540
247   249    1
SMALL
USER_CHARGES


@<TRIPOS>ATOM
      1 CA         -3.5973  -11.7226  -49.1132 C.3       0 UNK        -0.1800 
      2 C          -2.7764  -12.6942  -48.2787 C.2       0 UNK         0.5000 
      3 O          -1.6427  -13.0089  -48.6392 O.2       0 UNK        -0.5000 
      4 N          -3.3298  -13.1545  -47.1486 N.am      1 UNK        -0.5000 
      5 CA         -2.7316  -14.1748  -46.2725 C.3       1 UNK         0.1400 
      6 C6         -3.7789  -14.8896  -45.3777 C.3       23 UNK        -0.0398 
      7 S7         -5.2004  -15.5553  -46.3193 S.3       23 UNK        -0.2404 
      8 C8         -4.6649  -17.2565  -46.7013 C.3       23 UNK        -0.0205 
      9 C9         -3.4212  -17.2706  -47.5764 C.ar      23 UNK        -0.0193 
     10 C10        -3.5015  -16.9244  -48.9277 C.ar      23 UNK        -0.1150 
     11 C11        -2.3476  -16.8645  -49.7149 C.ar      23 UNK        -0.0193 
     12 C12        -1.1075  -17.1673  -49.1438 C.ar      23 UNK        -0.1150 
     13 C13        -1.0174  -17.5302  -47.7970 C.ar      23 UNK        -0.0193 
     14 C14        -2.1787  -17.5831  -47.0213 C.ar      23 UNK        -0.1150 
     15 C15         0.3305  -17.8623  -47.1731 C.3       23 UNK        -0.0205 
     16 S16         0.8292  -19.5792  -47.5149 S.3       23 UNK        -0.2404 
     17 C17        -0.5963  -20.4977  -46.8457 C.3       23 UNK        -0.0398 
     18 CA         -0.2765  -21.9867  -46.5998 C.3       11 UNK         0.1400 
     19 N           0.6008  -22.1757  -45.4469 N.am      11 UNK        -0.5000 
     20 C           1.1717  -23.3347  -45.0964 C.2       10 UNK         0.5000 
     21 O           1.0924  -24.3696  -45.7580 O.2       10 UNK        -0.5000 
     22 CA          1.9186  -23.3446  -43.7527 C.3       10 UNK         0.1400 
     23 CB          3.3475  -22.8049  -43.9144 C.3       10 UNK        -0.1800 
     24 N           1.2128  -22.5683  -42.7317 N.am      10 UNK        -0.5000 
     25 C           0.0501  -22.9334  -42.1735 C.2       9 UNK         0.5000 
     26 O          -0.5415  -23.9792  -42.4443 O.2       9 UNK        -0.5000 
     27 CA         -0.5688  -21.9462  -41.1662 C.3       9 UNK         0.1400 
     28 CB          0.0836  -22.0993  -39.7841 C.3       9 UNK        -0.1800 
     29 N          -0.4676  -20.5509  -41.6007 N.am      9 UNK        -0.5000 
     30 C          -1.1258  -20.0445  -42.6520 C.2       8 UNK         0.5000 
     31 O          -1.8796  -20.7003  -43.3674 O.2       8 UNK        -0.5000 
     32 CA         -0.8679  -18.5703  -43.0005 C.3       8 UNK         0.1400 
     33 CB         -1.7511  -17.6380  -42.1593 C.3       8 UNK        -0.1800 
     34 N           0.5283  -18.1533  -42.8861 N.am      8 UNK        -0.5000 
     35 C           1.5711  -18.7022  -43.5223 C.2       7 UNK         0.5000 
     36 O           1.4905  -19.7557  -44.1546 O.2       7 UNK        -0.5000 
     37 CA          2.9144  -17.9386  -43.4626 C.3       7 UNK         0.1400 
     38 CB          3.8679  -18.3828  -44.5840 C.3       7 UNK        -0.1800 
     39 N           2.7525  -16.4802  -43.5302 N.am      7 UNK        -0.5000 
     40 C           2.3562  -15.6987  -42.5168 C.2       6 UNK         0.5000 
     41 O           2.0701  -16.1362  -41.4005 O.2       6 UNK        -0.5000 
     42 CA          2.2262  -14.1952  -42.8202 C.3       6 UNK         0.1400 
     43 CB          1.7759  -13.3604  -41.6041 C.3       6 UNK        -0.1800 
     44 N           3.4350  -13.6271  -43.4171 N.am      6 UNK        -0.5000 
     45 C           4.6733  -13.5962  -42.9054 C.2       5 UNK         0.5000 
     46 O           4.9821  -14.0515  -41.8026 O.2       5 UNK        -0.5000 
     47 CA          5.7360  -12.9347  -43.8077 C.3       5 UNK         0.1400 
     48 CB          7.1695  -13.0285  -43.2426 C.3       5 UNK        -0.1800 
     49 N           5.6719  -13.4357  -45.1861 N.am      5 UNK        -0.5000 
     50 C           5.8794  -14.6960  -45.6005 C.2       4 UNK         0.5000 
     51 O           6.2428  -15.6126  -44.8630 O.2       4 UNK        -0.5000 
     52 CA          5.6257  -14.9604  -47.1013 C.3       4 UNK         0.1400 
     53 CB          5.5524  -16.4588  -47.4594 C.3       4 UNK        -0.1800 
     54 N           4.4504  -14.2504  -47.6215 N.am      4 UNK        -0.5000 
     55 C           3.1841  -14.3498  -47.1899 C.2       3 UNK         0.5000 
     56 O           2.8121  -15.0923  -46.2755 O.2       3 UNK        -0.5000 
     57 CA          2.1676  -13.4522  -47.9257 C.3       3 UNK         0.1400 
     58 CB          1.5004  -14.2320  -49.0685 C.3       3 UNK        -0.1800 
     59 N           1.1244  -12.9039  -47.0579 N.am      3 UNK        -0.5000 
     60 C           1.3197  -12.2101  -45.9259 C.2       2 UNK         0.5000 
     61 O           2.4361  -11.9016  -45.5047 O.2       2 UNK        -0.5000 
     62 CA          0.0718  -11.7800  -45.1208 C.3       2 UNK         0.1400 
     63 CB         -0.0894  -10.2525  -45.1518 C.3       2 UNK        -0.1800 
     64 N          -1.1680  -12.3901  -45.6022 N.am      2 UNK        -0.5000 
     65 C          -1.5205  -13.6745  -45.4512 C.2       1 UNK         0.5000 
     66 O          -0.9065  -14.4637  -44.7330 O.2       1 UNK        -0.5000 
     67 C          -1.5688  -22.8153  -46.4642 C.2       11 UNK         0.5000 
     68 O          -1.8988  -23.5560  -47.3874 O.2       11 UNK        -0.5000 
     69 N          -2.2527  -22.7215  -45.3131 N.am      12 UNK        -0.5000 
     70 CA         -3.4943  -23.4448  -45.0182 C.3       12 UNK         0.1400 
     71 CB         -4.0489  -22.9979  -43.6579 C.3       12 UNK        -0.1800 
     72 C          -3.3438  -24.9758  -45.0590 C.2       12 UNK         0.5000 
     73 O          -4.2610  -25.6590  -45.5149 O.2       12 UNK        -0.5000 
     74 N          -2.1738  -25.4862  -44.6493 N.am      13 UNK        -0.5000 
     75 CA         -1.8025  -26.9016  -44.7413 C.3       13 UNK         0.1400 
     76 CB         -0.4851  -27.1266  -43.9840 C.3       13 UNK        -0.1800 
     77 C          -1.6973  -27.4297  -46.1899 C.2       13 UNK         0.5000 
     78 O          -1.8134  -28.6378  -46.3981 O.2       13 UNK        -0.5000 
     79 N          -1.5065  -26.5249  -47.1588 N.am      14 UNK        -0.5000 
     80 CA         -1.4822  -26.7955  -48.5968 C.3       14 UNK         0.1400 
     81 CB         -0.1820  -26.2059  -49.1711 C.3       14 UNK        -0.1800 
     82 C          -2.7208  -26.2063  -49.3068 C.2       14 UNK         0.5000 
     83 O          -2.7248  -26.1130  -50.5357 O.2       14 UNK        -0.5000 
     84 N          -3.7321  -25.7827  -48.5321 N.am      15 UNK        -0.5000 
     85 CA         -4.9430  -25.0384  -48.9019 C.3       15 UNK         0.1400 
     86 CB         -5.8150  -25.8156  -49.9054 C.3       15 UNK        -0.1800 
     87 C          -4.6644  -23.5996  -49.3829 C.2       15 UNK         0.5000 
     88 O          -5.2625  -22.6647  -48.8493 O.2       15 UNK        -0.5000 
     89 N          -3.7565  -23.4542  -50.3583 N.am      16 UNK        -0.5000 
     90 CA         -3.2272  -22.2293  -50.9660 C.3       16 UNK         0.1400 
     91 CB         -2.4235  -21.4018  -49.9462 C.3       16 UNK        -0.1800 
     92 C          -4.2854  -21.3739  -51.6826 C.2       16 UNK         0.5000 
     93 O          -4.2998  -21.3328  -52.9132 O.2       16 UNK        -0.5000 
     94 N          -5.1566  -20.7159  -50.9088 N.am      17 UNK        -0.5000 
     95 CA         -6.1945  -19.7980  -51.3822 C.3       17 UNK         0.1400 
     96 CB         -6.8751  -19.1439  -50.1715 C.3       17 UNK        -0.1800 
     97 C          -7.2332  -20.4681  -52.3007 C.2       17 UNK         0.5000 
     98 O          -7.7716  -19.8084  -53.1890 O.2       17 UNK        -0.5000 
     99 N          -7.4489  -21.7778  -52.1122 N.am      18 UNK        -0.5000 
    100 CA        -8.2874  -22.6264  -52.9616 C.3       18 UNK         0.1400 
    101 CB        -8.4413  -24.0002  -52.2923 C.3       18 UNK        -0.1800 
    102 C         -7.7429  -22.7908  -54.3961 C.2       18 UNK         0.5000 
    103 O         -8.5303  -23.0118  -55.3166 O.2       18 UNK        -0.5000 
    104 N         -6.4182  -22.6683  -54.5645 N.am      19 UNK        -0.5000 
    105 CA        -5.7329  -22.7059  -55.8578 C.3       19 UNK         0.1400 
    106 CB        -4.3645  -23.3836  -55.6731 C.3       19 UNK        -0.1800 
    107 C         -5.5633  -21.3016  -56.4714 C.2       19 UNK         0.5000 
    108 O         -5.0805  -21.1981  -57.5995 O.2       19 UNK        -0.5000 
    109 N         -5.9260  -20.2503  -55.7193 N.am      20 UNK        -0.5000 
    110 CA        -5.8735  -18.8122  -56.0208 C.3       20 UNK         0.1400 
    111 CB        -6.7452  -18.4663  -57.2424 C.3       20 UNK        -0.1800 
    112 C         -4.4554  -18.2224  -56.1662 C.2       20 UNK         0.5000 
    113 O         -4.2237  -17.0991  -55.7190 O.2       20 UNK        -0.5000 
    114 N         -3.5346  -18.9754  -56.7781 N.am      21 UNK        -0.5000 
    115 CA        -2.1315  -18.6092  -56.9726 C.3       21 UNK         0.1400 
    116 CB        -1.5356  -19.5068  -58.0680 C.3       21 UNK        -0.1800 
    117 C         -1.2935  -18.7072  -55.6832 C.2       21 UNK         0.5000 
    118 O         -0.2712  -18.0284  -55.5798 O.2       21 UNK        -0.5000 
    119 N         -1.7332  -19.5500  -54.7376 N.am      22 UNK        -0.5000 
    120 CA        -1.1108  -19.7895  -53.4217 C.3       22 UNK         0.1400 
    121 C          0.2820  -20.4908  -53.4668 C.2       22 UNK         0.5000 
    122 N          0.6729  -21.1147  -54.5714 N.am      22 UNK        -0.7600 
    123 O          1.0085  -20.5043  -52.4775 O.2       22 UNK        -0.5000 
    124 C124       -1.1222  -18.5375  -52.4990 C.3       23 UNK        -0.0398 
    125 S125       -2.7967  -17.8492  -52.2656 S.3       23 UNK        -0.2404 
    126 C126       -2.4457  -16.4398  -51.1716 C.3       23 UNK        -0.0205 
    127 H127       -3.0693  -10.7743  -49.2129 H         1 UNK         0.0600 
    128 H128       -4.5714  -11.5257  -48.6648 H         1 UNK         0.0600 
    129 H129       -3.7581  -12.1313  -50.1108 H         1 UNK         0.0600 
    130 H130       -4.2639  -12.8617  -46.8983 H         1 UNK         0.3000 
    131 H131       -2.3046  -14.9221  -46.9382 H         1 UNK         0.0600 
    132 H132       -4.1691  -14.1958  -44.6314 H         1 UNK         0.0800 
    133 H133       -3.3179  -15.7056  -44.8182 H         1 UNK         0.0800 
    134 H134       -5.4741  -17.7758  -47.2162 H         1 UNK         0.0800 
    135 H135       -4.4946  -17.8016  -45.7715 H         1 UNK         0.0800 
    136 H136       -4.4600  -16.6735  -49.3596 H         1 UNK         0.1150 
    137 H137       -0.2109  -17.1197  -49.7454 H         1 UNK         0.1150 
    138 H138       -2.1155  -17.8444  -45.9765 H         1 UNK         0.1150 
    139 H139        1.0962  -17.1882  -47.5592 H         1 UNK         0.0800 
    140 H140        0.3035  -17.6989  -46.0951 H         1 UNK         0.0800 
    141 H141       -1.4137  -20.3827  -47.5568 H         1 UNK         0.0800 
    142 H142       -0.9283  -20.0266  -45.9205 H         1 UNK         0.0800 
    143 H143        0.2492  -22.3695  -47.4776 H         1 UNK         0.0600 
    144 H144        0.7862  -21.3514  -44.8805 H         1 UNK         0.3000 
    145 H145        1.9817  -24.3805  -43.4121 H         1 UNK         0.0600 
    146 H146        3.8962  -22.8511  -42.9737 H         1 UNK         0.0600 
    147 H147        3.3518  -21.7696  -44.2558 H         1 UNK         0.0600 
    148 H148        3.9043  -23.3925  -44.6453 H         1 UNK         0.0600 
    149 H149        1.5956  -21.6619  -42.5061 H         1 UNK         0.3000 
    150 H150       -1.6280  -22.1941  -41.0696 H         1 UNK         0.0600 
    151 H151        0.0084  -23.1281  -39.4294 H         1 UNK         0.0600 
    152 H152        1.1417  -21.8354  -39.8045 H         1 UNK         0.0600 
    153 H153       -0.4065  -21.4655  -39.0448 H         1 UNK         0.0600 
    154 H154        0.1469  -19.9457  -41.0761 H         1 UNK         0.3000 
    155 H155       -1.1478  -18.4383  -44.0449 H         1 UNK         0.0600 
    156 H156       -1.4829  -17.6743  -41.1028 H         1 UNK         0.0600 
    157 H157       -2.8030  -17.9146  -42.2428 H         1 UNK         0.0600 
    158 H158       -1.6609  -16.6040  -42.4940 H         1 UNK         0.0600 
    159 H159        0.7125  -17.3241  -42.3337 H         1 UNK         0.3000 
    160 H160        3.3827  -18.1907  -42.5093 H         1 UNK         0.0600 
    161 H161        3.4192  -18.2303  -45.5662 H         1 UNK         0.0600 
    162 H162        4.1134  -19.4414  -44.4971 H         1 UNK         0.0600 
    163 H163        4.8075  -17.8330  -44.5483 H         1 UNK         0.0600 
    164 H164        2.9160  -16.0491  -44.4355 H         1 UNK         0.3000 
    165 H165        1.4485  -14.1165  -43.5784 H         1 UNK         0.0600 
    166 H166        1.6563  -12.3101  -41.8699 H         1 UNK         0.0600 
    167 H167        2.4920  -13.4194  -40.7838 H         1 UNK         0.0600 
    168 H168        0.8146  -13.7104  -41.2261 H         1 UNK         0.0600 
    169 H169        3.2959  -13.2033  -44.3295 H         1 UNK         0.3000 
    170 H170        5.4750  -11.8764  -43.8556 H         1 UNK         0.0600 
    171 H171        7.2365  -12.5362  -42.2718 H         1 UNK         0.0600 
    172 H172        7.4888  -14.0618  -43.1047 H         1 UNK         0.0600 
    173 H173        7.8863  -12.5409  -43.9032 H         1 UNK         0.0600 
    174 H174        5.3552  -12.7669  -45.8742 H         1 UNK         0.3000 
    175 H175        6.4902  -14.5464  -47.6221 H         1 UNK         0.0600 
    176 H176        4.6945  -16.9424  -46.9961 H         1 UNK         0.0600 
    177 H177        5.4696  -16.5999  -48.5369 H         1 UNK         0.0600 
    178 H178        6.4473  -16.9893  -47.1322 H         1 UNK         0.0600 
    179 H179        4.6429  -13.6090  -48.3787 H         1 UNK         0.3000 
    180 H180        2.7042  -12.6036  -48.3544 H         1 UNK         0.0600 
    181 H181        0.8578  -15.0246  -48.6859 H         1 UNK         0.0600 
    182 H182        2.2421  -14.6934  -49.7218 H         1 UNK         0.0600 
    183 H183        0.8869  -13.5768  -49.6871 H         1 UNK         0.0600 
    184 H184        0.1720  -13.0853  -47.3491 H         1 UNK         0.3000 
    185 H185        0.2266  -12.0845  -44.0844 H         1 UNK         0.0600 
    186 H186        0.7997   -9.7566  -44.7599 H         1 UNK         0.0600 
    187 H187       -0.2499   -9.8855  -46.1663 H         1 UNK         0.0600 
    188 H188       -0.9332   -9.9320  -44.5404 H         1 UNK         0.0600 
    189 H189       -1.7354  -11.8246  -46.2168 H         1 UNK         0.3000 
    190 H190       -1.9399  -22.0686  -44.5975 H         1 UNK         0.3000 
    191 H191       -4.2200  -23.1702  -45.7868 H         1 UNK         0.0600 
    192 H192       -4.9667  -23.5336  -43.4124 H         1 UNK         0.0600 
    193 H193       -4.2873  -21.9343  -43.6604 H         1 UNK         0.0600 
    194 H194       -3.3349  -23.1810  -42.8541 H         1 UNK         0.0600 
    195 H195       -1.4845  -24.8603  -44.2494 H         1 UNK         0.3000 
    196 H196       -2.5824  -27.4806  -44.2426 H         1 UNK         0.0600 
    197 H197        0.3364  -26.5661  -44.4298 H         1 UNK         0.0600 
    198 H198       -0.5719  -26.8210  -42.9411 H         1 UNK         0.0600 
    199 H199       -0.2047  -28.1806  -43.9912 H         1 UNK         0.0600 
    200 H200       -1.4409  -25.5444  -46.9060 H         1 UNK         0.3000 
    201 H201       -1.4852  -27.8703  -48.7868 H         1 UNK         0.0600 
    202 H202       -0.1507  -25.1212  -49.0580 H         1 UNK         0.0600 
    203 H203       -0.0804  -26.4306  -50.2335 H         1 UNK         0.0600 
    204 H204        0.6928  -26.6187  -48.6684 H         1 UNK         0.0600 
    205 H205       -3.6135  -25.8939  -47.5323 H         1 UNK         0.3000 
    206 H206       -5.5170  -24.9512  -47.9781 H         1 UNK         0.0600 
    207 H207       -6.0129  -26.8280  -49.5535 H         1 UNK         0.0600 
    208 H208       -6.7796  -25.3244  -50.0344 H         1 UNK         0.0600 
    209 H209       -5.3505  -25.8871  -50.8891 H         1 UNK         0.0600 
    210 H210       -3.3378  -24.3175  -50.6950 H         1 UNK         0.3000 
    211 H211       -2.5272  -22.5604  -51.7345 H         1 UNK         0.0600 
    212 H212       -2.0665  -20.4691  -50.3826 H         1 UNK         0.0600 
    213 H213       -1.5483  -21.9533  -49.6039 H         1 UNK         0.0600 
    214 H214       -3.0202  -21.1414  -49.0722 H         1 UNK         0.0600 
    215 H215       -5.1295  -20.9065  -49.9134 H         1 UNK         0.3000 
    216 H216       -5.7027  -19.0153  -51.9634 H         1 UNK         0.0600 
    217 H217       -7.3555  -19.8852  -49.5315 H         1 UNK         0.0600 
    218 H218       -7.6409  -18.4347  -50.4883 H         1 UNK         0.0600 
    219 H219       -6.1546  -18.5942  -49.5661 H         1 UNK         0.0600 
    220 H220       -6.9600  -22.2317  -51.3545 H         1 UNK         0.3000 
    221 H221       -9.2738  -22.1631  -53.0312 H         1 UNK         0.0600 
    222 H222       -8.8549  -23.9093  -51.2877 H         1 UNK         0.0600 
    223 H223       -7.4845  -24.5184  -52.2197 H         1 UNK         0.0600 
    224 H224       -9.1159  -24.6387  -52.8641 H         1 UNK         0.0600 
    225 H225       -5.8357  -22.4420  -53.7662 H         1 UNK         0.3000 
    226 H226       -6.3109  -23.3036  -56.5655 H         1 UNK         0.0600 
    227 H227       -3.7072  -22.8044  -55.0245 H         1 UNK         0.0600 
    228 H228       -4.4723  -24.3779  -55.2393 H         1 UNK         0.0600 
    229 H229       -3.8550  -23.5022  -56.6302 H         1 UNK         0.0600 
    230 H230       -6.3007  -20.4620  -54.8042 H         1 UNK         0.3000 
    231 H231       -6.3202  -18.3214  -55.1547 H         1 UNK         0.0600 
    232 H232       -6.3549  -18.9052  -58.1609 H         1 UNK         0.0600 
    233 H233       -6.7913  -17.3870  -57.3929 H         1 UNK         0.0600 
    234 H234       -7.7677  -18.8195  -57.1087 H         1 UNK         0.0600 
    235 H235       -3.8422  -19.8664  -57.1588 H         1 UNK         0.3000 
    236 H236       -2.0887  -17.5738  -57.3169 H         1 UNK         0.0600 
    237 H237       -2.0728  -19.3882  -59.0092 H         1 UNK         0.0600 
    238 H238       -0.4913  -19.2542  -58.2567 H         1 UNK         0.0600 
    239 H239       -1.5752  -20.5609  -57.7905 H         1 UNK         0.0600 
    240 H240       -2.5934  -20.0496  -54.9092 H         1 UNK         0.3000 
    241 H241       -1.7484  -20.5311  -52.9466 H         1 UNK         0.0600 
    242 H242        0.0887  -21.1230  -55.3914 H         1 UNK         0.3800 
    243 H243        1.5696  -21.5748  -54.5889 H         1 UNK         0.3800 
    244 H244       -0.4716  -17.7597  -52.9005 H         1 UNK         0.0800 
    245 H245       -0.7261  -18.7889  -51.5145 H         1 UNK         0.0800 
    246 H246       -1.5301  -15.9380  -51.4882 H         1 UNK         0.0800 
    247 H247       -3.2443  -15.7049  -51.2826 H         1 UNK         0.0800 
@<TRIPOS>BOND
     1    1    2 1    
     2    1  127 1    
     3    1  128 1    
     4    1  129 1    
     5    2    3 2    
     6    2    4 am   BACKBONE|DICT|INTERRES
     7    4    5 1    
     8    4  130 1    
     9    5    6 1    
    10    5   65 1    
    11    5  131 1    
    12    6    7 1    
    13    6  132 1    
    14    6  133 1    
    15    7    8 1    
    16    8    9 1    
    17    8  134 1    
    18    8  135 1    
    19    9   10 ar   
    20    9   14 ar   
    21   10   11 ar   
    22   10  136 1    
    23   11   12 ar   
    24   11  126 1    
    25   12   13 ar   
    26   12  137 1    
    27   13   14 ar   
    28   13   15 1    
    29   14  138 1    
    30   15   16 1    
    31   15  139 1    
    32   15  140 1    
    33   16   17 1    
    34   17   18 1    
    35   17  141 1    
    36   17  142 1    
    37   18   19 1    
    38   18   67 1    
    39   18  143 1    
    40   19   20 am   BACKBONE|DICT|INTERRES
    41   19  144 1    
    42   20   21 2    
    43   20   22 1    
    44   22   23 1    
    45   22   24 1    
    46   22  145 1    
    47   23  146 1    
    48   23  147 1    
    49   23  148 1    
    50   24   25 am   BACKBONE|DICT|INTERRES
    51   24  149 1    
    52   25   26 2    
    53   25   27 1    
    54   27   28 1    
    55   27   29 1    
    56   27  150 1    
    57   28  151 1    
    58   28  152 1    
    59   28  153 1    
    60   29   30 am   BACKBONE|DICT|INTERRES
    61   29  154 1    
    62   30   31 2    
    63   30   32 1    
    64   32   33 1    
    65   32   34 1    
    66   32  155 1    
    67   33  156 1    
    68   33  157 1    
    69   33  158 1    
    70   34   35 am   BACKBONE|DICT|INTERRES
    71   34  159 1    
    72   35   36 2    
    73   35   37 1    
    74   37   38 1    
    75   37   39 1    
    76   37  160 1    
    77   38  161 1    
    78   38  162 1    
    79   38  163 1    
    80   39   40 am   BACKBONE|DICT|INTERRES
    81   39  164 1    
    82   40   41 2    
    83   40   42 1    
    84   42   43 1    
    85   42   44 1    
    86   42  165 1    
    87   43  166 1    
    88   43  167 1    
    89   43  168 1    
    90   44   45 am   BACKBONE|DICT|INTERRES
    91   44  169 1    
    92   45   46 2    
    93   45   47 1    
    94   47   48 1    
    95   47   49 1    
    96   47  170 1    
    97   48  171 1    
    98   48  172 1    
    99   48  173 1    
   100   49   50 am   BACKBONE|DICT|INTERRES
   101   49  174 1    
   102   50   51 2    
   103   50   52 1    
   104   52   53 1    
   105   52   54 1    
   106   52  175 1    
   107   53  176 1    
   108   53  177 1    
   109   53  178 1    
   110   54   55 am   BACKBONE|DICT|INTERRES
   111   54  179 1    
   112   55   56 2    
   113   55   57 1    
   114   57   58 1    
   115   57   59 1    
   116   57  180 1    
   117   58  181 1    
   118   58  182 1    
   119   58  183 1    
   120   59   60 am   BACKBONE|DICT|INTERRES
   121   59  184 1    
   122   60   61 2    
   123   60   62 1    
   124   62   63 1    
   125   62   64 1    
   126   62  185 1    
   127   63  186 1    
   128   63  187 1    
   129   63  188 1    
   130   64   65 am   BACKBONE|DICT|INTERRES
   131   64  189 1    
   132   65   66 2    
   133   67   68 2    
   134   67   69 am   BACKBONE|DICT|INTERRES
   135   69   70 1    
   136   69  190 1    
   137   70   71 1    
   138   70   72 1    
   139   70  191 1    
   140   71  192 1    
   141   71  193 1    
   142   71  194 1    
   143   72   73 2    
   144   72   74 am   BACKBONE|DICT|INTERRES
   145   74   75 1    
   146   74  195 1    
   147   75   76 1    
   148   75   77 1    
   149   75  196 1    
   150   76  197 1    
   151   76  198 1    
   152   76  199 1    
   153   77   78 2    
   154   77   79 am   BACKBONE|DICT|INTERRES
   155   79   80 1    
   156   79  200 1    
   157   80   81 1    
   158   80   82 1    
   159   80  201 1    
   160   81  202 1    
   161   81  203 1    
   162   81  204 1    
   163   82   83 2    
   164   82   84 am   BACKBONE|DICT|INTERRES
   165   84   85 1    
   166   84  205 1    
   167   85   86 1    
   168   85   87 1    
   169   85  206 1    
   170   86  207 1    
   171   86  208 1    
   172   86  209 1    
   173   87   88 2    
   174   87   89 am   BACKBONE|DICT|INTERRES
   175   89   90 1    
   176   89  210 1    
   177   90   91 1    
   178   90   92 1    
   179   90  211 1    
   180   91  212 1    
   181   91  213 1    
   182   91  214 1    
   183   92   93 2    
   184   92   94 am   BACKBONE|DICT|INTERRES
   185   94   95 1    
   186   94  215 1    
   187   95   96 1    
   188   95   97 1    
   189   95  216 1    
   190   96  217 1    
   191   96  218 1    
   192   96  219 1    
   193   97   98 2    
   194   97   99 am   BACKBONE|DICT|INTERRES
   195   99  100 1    
   196   99  220 1    
   197  100  101 1    
   198  100  102 1    
   199  100  221 1    
   200  101  222 1    
   201  101  223 1    
   202  101  224 1    
   203  102  103 2    
   204  102  104 am   BACKBONE|DICT|INTERRES
   205  104  105 1    
   206  104  225 1    
   207  105  106 1    
   208  105  107 1    
   209  105  226 1    
   210  106  227 1    
   211  106  228 1    
   212  106  229 1    
   213  107  108 2    
   214  107  109 am   BACKBONE|DICT|INTERRES
   215  109  110 1    
   216  109  230 1    
   217  110  111 1    
   218  110  112 1    
   219  110  231 1    
   220  111  232 1    
   221  111  233 1    
   222  111  234 1    
   223  112  113 2    
   224  112  114 am   BACKBONE|DICT|INTERRES
   225  114  115 1    
   226  114  235 1    
   227  115  116 1    
   228  115  117 1    
   229  115  236 1    
   230  116  237 1    
   231  116  238 1    
   232  116  239 1    
   233  117  118 2    
   234  117  119 am   BACKBONE|DICT|INTERRES
   235  119  120 1    
   236  119  240 1    
   237  120  121 1    
   238  120  124 1    
   239  120  241 1    
   240  121  122 am   BACKBONE|DICT|INTERRES
   241  121  123 2    
   242  122  242 1    
   243  122  243 1    
   244  124  125 1    
   245  124  244 1    
   246  124  245 1    
   247  125  126 1    
   248  126  246 1    
   249  126  247 1    
@<TRIPOS>SUBSTRUCTURE
     1 UNK         1 GROUP             0       ****    0 ROOT    
