@<TRIPOS>MOLECULE
3R540
247   249    1
SMALL
USER_CHARGES


@<TRIPOS>ATOM
      1 CA         -5.2437  -16.3253  -48.7702 C.3       0 UNK        -0.1800 
      2 C          -4.8185  -17.2858  -47.6617 C.2       0 UNK         0.5000 
      3 O          -5.4585  -18.3185  -47.4801 O.2       0 UNK        -0.5000 
      4 N          -3.7422  -17.0105  -46.9133 N.am      1 UNK        -0.5000 
      5 CA         -2.9086  -15.8029  -46.9595 C.3       1 UNK         0.1400 
      6 C6         -1.5387  -16.0205  -46.2677 C.3       23 UNK        -0.0398 
      7 S7         -0.5947  -17.3818  -47.0279 S.3       23 UNK        -0.2404 
      8 C8          0.3732  -16.4829  -48.2870 C.3       23 UNK        -0.0205 
      9 C9          1.0668  -17.4210  -49.2678 C.ar      23 UNK        -0.0193 
     10 C10         0.9552  -17.2073  -50.6455 C.ar      23 UNK        -0.1150 
     11 C11         1.5744  -18.0713  -51.5553 C.ar      23 UNK        -0.0193 
     12 C12         2.2933  -19.1707  -51.0757 C.ar      23 UNK        -0.1150 
     13 C13         2.3913  -19.4093  -49.7038 C.ar      23 UNK        -0.0193 
     14 C14         1.8123  -18.5088  -48.8060 C.ar      23 UNK        -0.1150 
     15 C15         3.0661  -20.6716  -49.1854 C.3       23 UNK        -0.0205 
     16 S16         2.0486  -22.1638  -49.4578 S.3       23 UNK        -0.2404 
     17 C17         0.4111  -21.6129  -48.8696 C.3       23 UNK        -0.0398 
     18 CA         -0.3674  -22.6735  -48.0678 C.3       11 UNK         0.1400 
     19 N           0.3157  -23.0558  -46.8283 N.am      11 UNK        -0.5000 
     20 C          -0.0246  -24.1155  -46.0799 C.2       10 UNK         0.5000 
     21 O          -0.9346  -24.8903  -46.3718 O.2       10 UNK        -0.5000 
     22 CA          0.7306  -24.3035  -44.7495 C.3       10 UNK         0.1400 
     23 CB          2.0398  -25.0731  -44.9769 C.3       10 UNK        -0.1800 
     24 N           1.0247  -23.0376  -44.0750 N.am      10 UNK        -0.5000 
     25 C           0.1086  -22.1326  -43.7035 C.2       9 UNK         0.5000 
     26 O          -1.1026  -22.3187  -43.8143 O.2       9 UNK        -0.5000 
     27 CA          0.6100  -20.7800  -43.1609 C.3       9 UNK         0.1400 
     28 CB          0.3034  -20.6511  -41.6615 C.3       9 UNK        -0.1800 
     29 N           2.0358  -20.5206  -43.3744 N.am      9 UNK        -0.5000 
     30 C           2.6543  -20.3727  -44.5530 C.2       8 UNK         0.5000 
     31 O           2.0889  -20.5134  -45.6395 O.2       8 UNK        -0.5000 
     32 CA          4.1547  -20.0139  -44.4791 C.3       8 UNK         0.1400 
     33 CB          4.8129  -19.8853  -45.8619 C.3       8 UNK        -0.1800 
     34 N           4.3829  -18.7724  -43.7397 N.am      8 UNK        -0.5000 
     35 C           4.3615  -18.6199  -42.4113 C.2       7 UNK         0.5000 
     36 O           4.1379  -19.5473  -41.6314 O.2       7 UNK        -0.5000 
     37 CA          4.5978  -17.2039  -41.8509 C.3       7 UNK         0.1400 
     38 CB          6.1008  -16.9235  -41.6663 C.3       7 UNK        -0.1800 
     39 N           3.9391  -16.1201  -42.5933 N.am      7 UNK        -0.5000 
     40 C           4.1811  -15.6602  -43.8322 C.2       6 UNK         0.5000 
     41 O           5.0075  -16.1572  -44.5980 O.2       6 UNK        -0.5000 
     42 CA          3.3525  -14.4489  -44.3118 C.3       6 UNK         0.1400 
     43 CB          2.2060  -14.9235  -45.2168 C.3       6 UNK        -0.1800 
     44 N           2.7926  -13.6512  -43.2198 N.am      6 UNK        -0.5000 
     45 C           3.5105  -12.9593  -42.3214 C.2       5 UNK         0.5000 
     46 O           4.7281  -12.7954  -42.4059 O.2       5 UNK        -0.5000 
     47 CA          2.7562  -12.3821  -41.1039 C.3       5 UNK         0.1400 
     48 CB          2.5988  -10.8598  -41.2428 C.3       5 UNK        -0.1800 
     49 N           1.4323  -12.9685  -40.8739 N.am      5 UNK        -0.5000 
     50 C           1.1537  -14.2603  -40.6394 C.2       4 UNK         0.5000 
     51 O           2.0129  -15.1374  -40.5444 O.2       4 UNK        -0.5000 
     52 CA         -0.3381  -14.6438  -40.5501 C.3       4 UNK         0.1400 
     53 CB         -0.7476  -14.8732  -39.0876 C.3       4 UNK        -0.1800 
     54 N          -1.2331  -13.6455  -41.1475 N.am      4 UNK        -0.5000 
     55 C          -1.3009  -13.3604  -42.4547 C.2       3 UNK         0.5000 
     56 O          -0.6389  -13.9382  -43.3223 O.2       3 UNK        -0.5000 
     57 CA         -2.2134  -12.1904  -42.8414 C.3       3 UNK         0.1400 
     58 CB         -1.5071  -10.8441  -42.5949 C.3       3 UNK        -0.1800 
     59 N          -2.5637  -12.3161  -44.2494 N.am      3 UNK        -0.5000 
     60 C          -3.6462  -11.7903  -44.8324 C.2       2 UNK         0.5000 
     61 O          -4.4587  -11.0746  -44.2451 O.2       2 UNK        -0.5000 
     62 CA         -3.8709  -12.1232  -46.3214 C.3       2 UNK         0.1400 
     63 CB         -3.3405  -10.9867  -47.2092 C.3       2 UNK        -0.1800 
     64 N          -3.2650  -13.3872  -46.7552 N.am      2 UNK        -0.5000 
     65 C          -3.6427  -14.6006  -46.3300 C.2       1 UNK         0.5000 
     66 O          -4.5215  -14.7858  -45.4849 O.2       1 UNK        -0.5000 
     67 C          -1.7943  -22.1494  -47.8070 C.2       11 UNK         0.5000 
     68 O          -2.6612  -22.3273  -48.6618 O.2       11 UNK        -0.5000 
     69 N          -2.0178  -21.5094  -46.6511 N.am      12 UNK        -0.5000 
     70 CA         -3.3318  -21.0309  -46.2240 C.3       12 UNK         0.1400 
     71 CB         -3.1698  -19.9670  -45.1264 C.3       12 UNK        -0.1800 
     72 C          -4.2106  -22.1977  -45.7449 C.2       12 UNK         0.5000 
     73 O          -5.3793  -22.2721  -46.1215 O.2       12 UNK        -0.5000 
     74 N          -3.6157  -23.1157  -44.9689 N.am      13 UNK        -0.5000 
     75 CA         -4.2465  -24.3402  -44.4714 C.3       13 UNK         0.1400 
     76 CB         -3.2968  -25.0345  -43.4837 C.3       13 UNK        -0.1800 
     77 C          -4.6622  -25.3036  -45.5995 C.2       13 UNK         0.5000 
     78 O          -5.7495  -25.8784  -45.5396 O.2       13 UNK        -0.5000 
     79 N          -3.8083  -25.4312  -46.6246 N.am      14 UNK        -0.5000 
     80 CA         -4.0744  -26.1994  -47.8435 C.3       14 UNK         0.1400 
     81 CB         -2.7363  -26.4857  -48.5443 C.3       14 UNK        -0.1800 
     82 C          -5.0379  -25.4926  -48.8198 C.2       14 UNK         0.5000 
     83 O          -5.4962  -26.1272  -49.7699 O.2       14 UNK        -0.5000 
     84 N          -5.2891  -24.1930  -48.5970 N.am      15 UNK        -0.5000 
     85 CA         -6.0528  -23.2575  -49.4326 C.3       15 UNK         0.1400 
     86 CB         -7.5228  -23.6988  -49.5791 C.3       15 UNK        -0.1800 
     87 C          -5.3911  -22.9512  -50.7934 C.2       15 UNK         0.5000 
     88 O          -6.0245  -22.3436  -51.6561 O.2       15 UNK        -0.5000 
     89 N          -4.1132  -23.3199  -50.9493 N.am      16 UNK        -0.5000 
     90 CA         -3.2778  -23.0463  -52.1161 C.3       16 UNK         0.1400 
     91 CB         -1.9408  -23.7859  -51.9614 C.3       16 UNK        -0.1800 
     92 C          -3.0406  -21.5421  -52.3213 C.2       16 UNK         0.5000 
     93 O          -3.0654  -21.0760  -53.4593 O.2       16 UNK        -0.5000 
     94 N          -2.8671  -20.8071  -51.2141 N.am      17 UNK        -0.5000 
     95 CA         -2.7266  -19.3506  -51.2074 C.3       17 UNK         0.1400 
     96 CB         -2.2794  -18.8888  -49.8141 C.3       17 UNK        -0.1800 
     97 C          -4.0189  -18.6259  -51.6284 C.2       17 UNK         0.5000 
     98 O          -3.9463  -17.5965  -52.2985 O.2       17 UNK        -0.5000 
     99 N          -5.1750  -19.1843  -51.2432 N.am      18 UNK        -0.5000 
    100 CA        -6.5004  -18.6728  -51.5937 C.3       18 UNK         0.1400 
    101 CB        -7.5435  -19.2509  -50.6248 C.3       18 UNK        -0.1800 
    102 C         -6.8730  -18.9839  -53.0535 C.2       18 UNK         0.5000 
    103 O         -7.4299  -18.1246  -53.7372 O.2       18 UNK        -0.5000 
    104 N         -6.5397  -20.1989  -53.5090 N.am      19 UNK        -0.5000 
    105 CA        -6.7615  -20.6739  -54.8758 C.3       19 UNK         0.1400 
    106 CB        -6.6241  -22.2049  -54.8884 C.3       19 UNK        -0.1800 
    107 C         -5.8060  -20.0523  -55.9138 C.2       19 UNK         0.5000 
    108 O         -6.0819  -20.1514  -57.1100 O.2       19 UNK        -0.5000 
    109 N         -4.6962  -19.4614  -55.4439 N.am      20 UNK        -0.5000 
    110 CA        -3.5452  -18.9847  -56.2194 C.3       20 UNK         0.1400 
    111 CB        -3.9320  -17.8148  -57.1477 C.3       20 UNK        -0.1800 
    112 C         -2.8369  -20.1465  -56.9493 C.2       20 UNK         0.5000 
    113 O         -2.4405  -20.0185  -58.1088 O.2       20 UNK        -0.5000 
    114 N         -2.7011  -21.2662  -56.2317 N.am      21 UNK        -0.5000 
    115 CA        -2.0782  -22.5169  -56.6576 C.3       21 UNK         0.1400 
    116 CB        -3.1254  -23.6411  -56.5595 C.3       21 UNK        -0.1800 
    117 C         -0.8317  -22.7930  -55.7944 C.2       21 UNK         0.5000 
    118 O         -0.5634  -23.9412  -55.4383 O.2       21 UNK        -0.5000 
    119 N         -0.1215  -21.7130  -55.4475 N.am      22 UNK        -0.5000 
    120 CA         1.0793  -21.6540  -54.6038 C.3       22 UNK         0.1400 
    121 C          2.2156  -22.6139  -55.0575 C.2       22 UNK         0.5000 
    122 N          2.8715  -23.2938  -54.1268 N.am      22 UNK        -0.7600 
    123 O          2.5395  -22.7069  -56.2397 O.2       22 UNK        -0.5000 
    124 C124        1.6155  -20.2022  -54.5422 C.3       23 UNK        -0.0398 
    125 S125        0.3897  -19.0114  -53.8920 S.3       23 UNK        -0.2404 
    126 C126        1.4670  -17.8069  -53.0509 C.3       23 UNK        -0.0205 
    127 H127       -6.1351  -16.6993  -49.2721 H         1 UNK         0.0600 
    128 H128       -4.4580  -16.2229  -49.5185 H         1 UNK         0.0600 
    129 H129       -5.4853  -15.3409  -48.3717 H         1 UNK         0.0600 
    130 H130       -3.4948  -17.6616  -46.1849 H         1 UNK         0.3000 
    131 H131       -2.7173  -15.5650  -48.0075 H         1 UNK         0.0600 
    132 H132       -0.9308  -15.1142  -46.2978 H         1 UNK         0.0800 
    133 H133       -1.6751  -16.2540  -45.2100 H         1 UNK         0.0800 
    134 H134        1.1223  -15.8602  -47.8007 H         1 UNK         0.0800 
    135 H135       -0.2936  -15.8068  -48.8236 H         1 UNK         0.0800 
    136 H136        0.3854  -16.3650  -51.0117 H         1 UNK         0.1150 
    137 H137        2.7555  -19.8622  -51.7629 H         1 UNK         0.1150 
    138 H138        1.8926  -18.6879  -47.7425 H         1 UNK         0.1150 
    139 H139        3.2583  -20.5828  -48.1183 H         1 UNK         0.0800 
    140 H140        4.0360  -20.7990  -49.6677 H         1 UNK         0.0800 
    141 H141       -0.1484  -21.3073  -49.7557 H         1 UNK         0.0800 
    142 H142        0.5201  -20.7248  -48.2478 H         1 UNK         0.0800 
    143 H143       -0.4609  -23.5671  -48.6885 H         1 UNK         0.0600 
    144 H144        1.0593  -22.4449  -46.5135 H         1 UNK         0.3000 
    145 H145        0.0949  -24.8935  -44.0867 H         1 UNK         0.0600 
    146 H146        1.8494  -26.0310  -45.4628 H         1 UNK         0.0600 
    147 H147        2.5432  -25.2832  -44.0331 H         1 UNK         0.0600 
    148 H148        2.7308  -24.5150  -45.6102 H         1 UNK         0.0600 
    149 H149        1.9978  -22.8043  -43.9474 H         1 UNK         0.3000 
    150 H150        0.0538  -20.0034  -43.6899 H         1 UNK         0.0600 
    151 H151        0.8533  -21.3882  -41.0751 H         1 UNK         0.0600 
    152 H152       -0.7592  -20.7988  -41.4635 H         1 UNK         0.0600 
    153 H153        0.5669  -19.6609  -41.2887 H         1 UNK         0.0600 
    154 H154        2.5973  -20.3711  -42.5415 H         1 UNK         0.3000 
    155 H155        4.6553  -20.8282  -43.9513 H         1 UNK         0.0600 
    156 H156        5.8682  -19.6267  -45.7733 H         1 UNK         0.0600 
    157 H157        4.3314  -19.1169  -46.4684 H         1 UNK         0.0600 
    158 H158        4.7604  -20.8297  -46.4039 H         1 UNK         0.0600 
    159 H159        4.5776  -17.9413  -44.2920 H         1 UNK         0.3000 
    160 H160        4.1424  -17.1873  -40.8594 H         1 UNK         0.0600 
    161 H161        6.6401  -16.9437  -42.6136 H         1 UNK         0.0600 
    162 H162        6.5580  -17.6708  -41.0167 H         1 UNK         0.0600 
    163 H163        6.2654  -15.9486  -41.2071 H         1 UNK         0.0600 
    164 H164        3.2123  -15.6513  -42.0610 H         1 UNK         0.3000 
    165 H165        4.0144  -13.8078  -44.8974 H         1 UNK         0.0600 
    166 H166        1.6620  -14.0808  -45.6438 H         1 UNK         0.0600 
    167 H167        2.5918  -15.5184  -46.0451 H         1 UNK         0.0600 
    168 H168        1.4911  -15.5432  -44.6732 H         1 UNK         0.0600 
    169 H169        1.7922  -13.7163  -43.0863 H         1 UNK         0.3000 
    170 H170        3.3651  -12.5876  -40.2214 H         1 UNK         0.0600 
    171 H171        2.1470  -10.4257  -40.3507 H         1 UNK         0.0600 
    172 H172        1.9749  -10.5971  -42.0982 H         1 UNK         0.0600 
    173 H173        3.5668  -10.3764  -41.3818 H         1 UNK         0.0600 
    174 H174        0.6530  -12.3309  -40.9297 H         1 UNK         0.3000 
    175 H175       -0.4653  -15.5825  -41.0936 H         1 UNK         0.0600 
    176 H176       -0.1200  -15.6335  -38.6205 H         1 UNK         0.0600 
    177 H177       -0.6547  -13.9618  -38.4956 H         1 UNK         0.0600 
    178 H178       -1.7794  -15.2177  -39.0160 H         1 UNK         0.0600 
    179 H179       -1.8082  -13.1218  -40.5028 H         1 UNK         0.3000 
    180 H180       -3.1212  -12.2480  -42.2369 H         1 UNK         0.0600 
    181 H181       -0.5928  -10.7576  -43.1835 H         1 UNK         0.0600 
    182 H182       -1.2362  -10.7258  -41.5452 H         1 UNK         0.0600 
    183 H183       -2.1516  -10.0046  -42.8559 H         1 UNK         0.0600 
    184 H184       -1.9526  -12.9248  -44.7778 H         1 UNK         0.3000 
    185 H185       -4.9493  -12.1999  -46.4765 H         1 UNK         0.0600 
    186 H186       -3.5734  -11.1635  -48.2594 H         1 UNK         0.0600 
    187 H187       -3.7925  -10.0325  -46.9347 H         1 UNK         0.0600 
    188 H188       -2.2594  -10.8756  -47.1172 H         1 UNK         0.0600 
    189 H189       -2.5366  -13.3101  -47.4506 H         1 UNK         0.3000 
    190 H190       -1.2680  -21.4371  -45.9789 H         1 UNK         0.3000 
    191 H191       -3.8246  -20.5616  -47.0782 H         1 UNK         0.0600 
    192 H192       -2.4769  -19.1846  -45.4328 H         1 UNK         0.0600 
    193 H193       -4.1275  -19.4934  -44.9075 H         1 UNK         0.0600 
    194 H194       -2.7984  -20.3901  -44.1934 H         1 UNK         0.0600 
    195 H195       -2.6597  -22.9438  -44.6676 H         1 UNK         0.3000 
    196 H196       -5.1499  -24.0512  -43.9306 H         1 UNK         0.0600 
    197 H197       -3.7579  -25.9278  -43.0607 H         1 UNK         0.0600 
    198 H198       -3.0398  -24.3756  -42.6540 H         1 UNK         0.0600 
    199 H199       -2.3685  -25.3409  -43.9664 H         1 UNK         0.0600 
    200 H200       -2.8949  -24.9914  -46.5585 H         1 UNK         0.3000 
    201 H201       -4.5274  -27.1531  -47.5651 H         1 UNK         0.0600 
    202 H202       -2.8819  -27.0883  -49.4418 H         1 UNK         0.0600 
    203 H203       -2.0595  -27.0369  -47.8912 H         1 UNK         0.0600 
    204 H204       -2.2350  -25.5646  -48.8446 H         1 UNK         0.0600 
    205 H205       -4.8719  -23.7760  -47.7751 H         1 UNK         0.3000 
    206 H206       -6.0511  -22.3120  -48.8885 H         1 UNK         0.0600 
    207 H207       -7.9713  -23.9028  -48.6068 H         1 UNK         0.0600 
    208 H208       -8.1192  -22.9182  -50.0528 H         1 UNK         0.0600 
    209 H209       -7.6201  -24.5959  -50.1906 H         1 UNK         0.0600 
    210 H210       -3.6475  -23.7146  -50.1443 H         1 UNK         0.3000 
    211 H211       -3.7902  -23.4314  -52.9996 H         1 UNK         0.0600 
    212 H212       -1.4008  -23.4632  -51.0708 H         1 UNK         0.0600 
    213 H213       -1.2921  -23.6053  -52.8186 H         1 UNK         0.0600 
    214 H214       -2.0922  -24.8631  -51.8900 H         1 UNK         0.0600 
    215 H215       -2.8721  -21.2804  -50.3157 H         1 UNK         0.3000 
    216 H216       -1.9473  -19.0783  -51.9219 H         1 UNK         0.0600 
    217 H217       -2.2310  -17.8007  -49.7574 H         1 UNK         0.0600 
    218 H218       -1.2852  -19.2622  -49.5750 H         1 UNK         0.0600 
    219 H219       -2.9610  -19.2305  -49.0353 H         1 UNK         0.0600 
    220 H220       -5.1444  -20.0454  -50.7192 H         1 UNK         0.3000 
    221 H221       -6.4955  -17.5871  -51.4783 H         1 UNK         0.0600 
    222 H222       -7.6064  -20.3371  -50.6954 H         1 UNK         0.0600 
    223 H223       -7.3067  -18.9968  -49.5915 H         1 UNK         0.0600 
    224 H224       -8.5357  -18.8515  -50.8382 H         1 UNK         0.0600 
    225 H225       -6.1548  -20.8769  -52.8564 H         1 UNK         0.3000 
    226 H226       -7.7811  -20.4172  -55.1701 H         1 UNK         0.0600 
    227 H227       -6.8117  -22.6096  -55.8837 H         1 UNK         0.0600 
    228 H228       -5.6231  -22.5185  -54.5896 H         1 UNK         0.0600 
    229 H229       -7.3374  -22.6710  -54.2084 H         1 UNK         0.0600 
    230 H230       -4.5600  -19.4813  -54.4422 H         1 UNK         0.3000 
    231 H231       -2.8286  -18.6019  -55.4909 H         1 UNK         0.0600 
    232 H232       -4.5917  -18.1332  -57.9550 H         1 UNK         0.0600 
    233 H233       -3.0460  -17.3752  -57.6070 H         1 UNK         0.0600 
    234 H234       -4.4367  -17.0235  -56.5934 H         1 UNK         0.0600 
    235 H235       -2.9811  -21.2331  -55.2519 H         1 UNK         0.3000 
    236 H236       -1.7433  -22.4454  -57.6940 H         1 UNK         0.0600 
    237 H237       -3.4518  -23.7963  -55.5307 H         1 UNK         0.0600 
    238 H238       -4.0069  -23.4101  -57.1578 H         1 UNK         0.0600 
    239 H239       -2.7234  -24.5864  -56.9258 H         1 UNK         0.0600 
    240 H240       -0.4504  -20.8196  -55.7807 H         1 UNK         0.3000 
    241 H241        0.7685  -21.9470  -53.5991 H         1 UNK         0.0600 
    242 H242        3.6212  -23.9068  -54.4079 H         1 UNK         0.3800 
    243 H243        2.6299  -23.2271  -53.1501 H         1 UNK         0.3800 
    244 H244        1.9153  -19.8658  -55.5365 H         1 UNK         0.0800 
    245 H245        2.5179  -20.1627  -53.9329 H         1 UNK         0.0800 
    246 H246        2.4616  -17.8047  -53.4987 H         1 UNK         0.0800 
    247 H247        1.0609  -16.8098  -53.2270 H         1 UNK         0.0800 
@<TRIPOS>BOND
     1    1    2 1    
     2    1  127 1    
     3    1  128 1    
     4    1  129 1    
     5    2    3 2    
     6    2    4 am   BACKBONE|DICT|INTERRES
     7    4    5 1    
     8    4  130 1    
     9    5    6 1    
    10    5   65 1    
    11    5  131 1    
    12    6    7 1    
    13    6  132 1    
    14    6  133 1    
    15    7    8 1    
    16    8    9 1    
    17    8  134 1    
    18    8  135 1    
    19    9   10 ar   
    20    9   14 ar   
    21   10   11 ar   
    22   10  136 1    
    23   11   12 ar   
    24   11  126 1    
    25   12   13 ar   
    26   12  137 1    
    27   13   14 ar   
    28   13   15 1    
    29   14  138 1    
    30   15   16 1    
    31   15  139 1    
    32   15  140 1    
    33   16   17 1    
    34   17   18 1    
    35   17  141 1    
    36   17  142 1    
    37   18   19 1    
    38   18   67 1    
    39   18  143 1    
    40   19   20 am   BACKBONE|DICT|INTERRES
    41   19  144 1    
    42   20   21 2    
    43   20   22 1    
    44   22   23 1    
    45   22   24 1    
    46   22  145 1    
    47   23  146 1    
    48   23  147 1    
    49   23  148 1    
    50   24   25 am   BACKBONE|DICT|INTERRES
    51   24  149 1    
    52   25   26 2    
    53   25   27 1    
    54   27   28 1    
    55   27   29 1    
    56   27  150 1    
    57   28  151 1    
    58   28  152 1    
    59   28  153 1    
    60   29   30 am   BACKBONE|DICT|INTERRES
    61   29  154 1    
    62   30   31 2    
    63   30   32 1    
    64   32   33 1    
    65   32   34 1    
    66   32  155 1    
    67   33  156 1    
    68   33  157 1    
    69   33  158 1    
    70   34   35 am   BACKBONE|DICT|INTERRES
    71   34  159 1    
    72   35   36 2    
    73   35   37 1    
    74   37   38 1    
    75   37   39 1    
    76   37  160 1    
    77   38  161 1    
    78   38  162 1    
    79   38  163 1    
    80   39   40 am   BACKBONE|DICT|INTERRES
    81   39  164 1    
    82   40   41 2    
    83   40   42 1    
    84   42   43 1    
    85   42   44 1    
    86   42  165 1    
    87   43  166 1    
    88   43  167 1    
    89   43  168 1    
    90   44   45 am   BACKBONE|DICT|INTERRES
    91   44  169 1    
    92   45   46 2    
    93   45   47 1    
    94   47   48 1    
    95   47   49 1    
    96   47  170 1    
    97   48  171 1    
    98   48  172 1    
    99   48  173 1    
   100   49   50 am   BACKBONE|DICT|INTERRES
   101   49  174 1    
   102   50   51 2    
   103   50   52 1    
   104   52   53 1    
   105   52   54 1    
   106   52  175 1    
   107   53  176 1    
   108   53  177 1    
   109   53  178 1    
   110   54   55 am   BACKBONE|DICT|INTERRES
   111   54  179 1    
   112   55   56 2    
   113   55   57 1    
   114   57   58 1    
   115   57   59 1    
   116   57  180 1    
   117   58  181 1    
   118   58  182 1    
   119   58  183 1    
   120   59   60 am   BACKBONE|DICT|INTERRES
   121   59  184 1    
   122   60   61 2    
   123   60   62 1    
   124   62   63 1    
   125   62   64 1    
   126   62  185 1    
   127   63  186 1    
   128   63  187 1    
   129   63  188 1    
   130   64   65 am   BACKBONE|DICT|INTERRES
   131   64  189 1    
   132   65   66 2    
   133   67   68 2    
   134   67   69 am   BACKBONE|DICT|INTERRES
   135   69   70 1    
   136   69  190 1    
   137   70   71 1    
   138   70   72 1    
   139   70  191 1    
   140   71  192 1    
   141   71  193 1    
   142   71  194 1    
   143   72   73 2    
   144   72   74 am   BACKBONE|DICT|INTERRES
   145   74   75 1    
   146   74  195 1    
   147   75   76 1    
   148   75   77 1    
   149   75  196 1    
   150   76  197 1    
   151   76  198 1    
   152   76  199 1    
   153   77   78 2    
   154   77   79 am   BACKBONE|DICT|INTERRES
   155   79   80 1    
   156   79  200 1    
   157   80   81 1    
   158   80   82 1    
   159   80  201 1    
   160   81  202 1    
   161   81  203 1    
   162   81  204 1    
   163   82   83 2    
   164   82   84 am   BACKBONE|DICT|INTERRES
   165   84   85 1    
   166   84  205 1    
   167   85   86 1    
   168   85   87 1    
   169   85  206 1    
   170   86  207 1    
   171   86  208 1    
   172   86  209 1    
   173   87   88 2    
   174   87   89 am   BACKBONE|DICT|INTERRES
   175   89   90 1    
   176   89  210 1    
   177   90   91 1    
   178   90   92 1    
   179   90  211 1    
   180   91  212 1    
   181   91  213 1    
   182   91  214 1    
   183   92   93 2    
   184   92   94 am   BACKBONE|DICT|INTERRES
   185   94   95 1    
   186   94  215 1    
   187   95   96 1    
   188   95   97 1    
   189   95  216 1    
   190   96  217 1    
   191   96  218 1    
   192   96  219 1    
   193   97   98 2    
   194   97   99 am   BACKBONE|DICT|INTERRES
   195   99  100 1    
   196   99  220 1    
   197  100  101 1    
   198  100  102 1    
   199  100  221 1    
   200  101  222 1    
   201  101  223 1    
   202  101  224 1    
   203  102  103 2    
   204  102  104 am   BACKBONE|DICT|INTERRES
   205  104  105 1    
   206  104  225 1    
   207  105  106 1    
   208  105  107 1    
   209  105  226 1    
   210  106  227 1    
   211  106  228 1    
   212  106  229 1    
   213  107  108 2    
   214  107  109 am   BACKBONE|DICT|INTERRES
   215  109  110 1    
   216  109  230 1    
   217  110  111 1    
   218  110  112 1    
   219  110  231 1    
   220  111  232 1    
   221  111  233 1    
   222  111  234 1    
   223  112  113 2    
   224  112  114 am   BACKBONE|DICT|INTERRES
   225  114  115 1    
   226  114  235 1    
   227  115  116 1    
   228  115  117 1    
   229  115  236 1    
   230  116  237 1    
   231  116  238 1    
   232  116  239 1    
   233  117  118 2    
   234  117  119 am   BACKBONE|DICT|INTERRES
   235  119  120 1    
   236  119  240 1    
   237  120  121 1    
   238  120  124 1    
   239  120  241 1    
   240  121  122 am   BACKBONE|DICT|INTERRES
   241  121  123 2    
   242  122  242 1    
   243  122  243 1    
   244  124  125 1    
   245  124  244 1    
   246  124  245 1    
   247  125  126 1    
   248  126  246 1    
   249  126  247 1    
@<TRIPOS>SUBSTRUCTURE
     1 UNK         1 GROUP             0       ****    0 ROOT    
