@<TRIPOS>MOLECULE
3R540
247   249    1
SMALL
USER_CHARGES


@<TRIPOS>ATOM
      1 CA         -3.6273  -13.4100  -49.7292 C.3       0 UNK        -0.1800 
      2 C          -2.4560  -13.6639  -48.7912 C.2       0 UNK         0.5000 
      3 O          -2.1278  -12.8002  -47.9769 O.2       0 UNK        -0.5000 
      4 N          -1.8281  -14.8410  -48.9052 N.am      1 UNK        -0.5000 
      5 CA         -0.6866  -15.3395  -48.1243 C.3       1 UNK         0.1400 
      6 C6         -0.9355  -15.4052  -46.5910 C.3       23 UNK        -0.0398 
      7 S7         -1.9163  -16.8721  -46.1674 S.3       23 UNK        -0.2404 
      8 C8         -3.5536  -16.1806  -45.8042 C.3       23 UNK        -0.0205 
      9 C9         -4.5993  -17.2834  -45.8420 C.ar      23 UNK        -0.0193 
     10 C10        -5.4833  -17.3779  -46.9204 C.ar      23 UNK        -0.1150 
     11 C11        -6.4134  -18.4186  -46.9875 C.ar      23 UNK        -0.0193 
     12 C12        -6.4565  -19.3695  -45.9638 C.ar      23 UNK        -0.1150 
     13 C13        -5.5802  -19.2850  -44.8778 C.ar      23 UNK        -0.0193 
     14 C14        -4.6622  -18.2322  -44.8167 C.ar      23 UNK        -0.1150 
     15 C15        -5.6431  -20.3191  -43.7619 C.3       23 UNK        -0.0205 
     16 S16        -4.0885  -21.2484  -43.5603 S.3       23 UNK        -0.2404 
     17 C17        -3.9449  -22.1588  -45.1340 C.3       23 UNK        -0.0398 
     18 CA         -2.6710  -21.7655  -45.9385 C.3       11 UNK         0.1400 
     19 N          -1.4289  -21.9681  -45.1803 N.am      11 UNK        -0.5000 
     20 C          -0.8801  -23.1391  -44.8256 C.2       10 UNK         0.5000 
     21 O          -1.3439  -24.2374  -45.1377 O.2       10 UNK        -0.5000 
     22 CA          0.4106  -23.0834  -43.9882 C.3       10 UNK         0.1400 
     23 CB          1.6333  -22.8410  -44.8811 C.3       10 UNK        -0.1800 
     24 N           0.3890  -22.0605  -42.9442 N.am      10 UNK        -0.5000 
     25 C          -0.2958  -22.1496  -41.7966 C.2       9 UNK         0.5000 
     26 O          -1.0230  -23.0996  -41.5044 O.2       9 UNK        -0.5000 
     27 CA         -0.1105  -20.9985  -40.7906 C.3       9 UNK         0.1400 
     28 CB          1.1468  -21.2293  -39.9382 C.3       9 UNK        -0.1800 
     29 N          -0.0074  -19.7022  -41.4580 N.am      9 UNK        -0.5000 
     30 C          -1.0605  -18.9829  -41.8665 C.2       8 UNK         0.5000 
     31 O          -2.2253  -19.2693  -41.5938 O.2       8 UNK        -0.5000 
     32 CA         -0.7808  -17.7320  -42.7218 C.3       8 UNK         0.1400 
     33 CB         -0.8090  -16.4640  -41.8588 C.3       8 UNK        -0.1800 
     34 N           0.4759  -17.7852  -43.4752 N.am      8 UNK        -0.5000 
     35 C           0.7233  -18.6554  -44.4659 C.2       7 UNK         0.5000 
     36 O          -0.0646  -19.5288  -44.8259 O.2       7 UNK        -0.5000 
     37 CA          2.1009  -18.5721  -45.1415 C.3       7 UNK         0.1400 
     38 CB          2.1197  -17.4999  -46.2362 C.3       7 UNK        -0.1800 
     39 N           3.1800  -18.3361  -44.1843 N.am      7 UNK        -0.5000 
     40 C           3.5598  -19.2362  -43.2664 C.2       6 UNK         0.5000 
     41 O           3.0624  -20.3579  -43.1589 O.2       6 UNK        -0.5000 
     42 CA          4.6282  -18.7790  -42.2604 C.3       6 UNK         0.1400 
     43 CB          6.0080  -18.6631  -42.9264 C.3       6 UNK        -0.1800 
     44 N           4.2742  -17.5063  -41.6335 N.am      6 UNK        -0.5000 
     45 C           3.2050  -17.3191  -40.8461 C.2       5 UNK         0.5000 
     46 O           2.4199  -18.2130  -40.5350 O.2       5 UNK        -0.5000 
     47 CA          2.9553  -15.8919  -40.3286 C.3       5 UNK         0.1400 
     48 CB          3.5858  -15.7103  -38.9398 C.3       5 UNK        -0.1800 
     49 N           3.4519  -14.8426  -41.2178 N.am      5 UNK        -0.5000 
     50 C           3.0418  -14.6070  -42.4721 C.2       4 UNK         0.5000 
     51 O           2.1815  -15.2791  -43.0485 O.2       4 UNK        -0.5000 
     52 CA          3.6949  -13.3975  -43.1809 C.3       4 UNK         0.1400 
     53 CB          5.0427  -12.9695  -42.5558 C.3       4 UNK        -0.1800 
     54 N           3.8732  -13.5558  -44.6254 N.am      4 UNK        -0.5000 
     55 C           4.4691  -14.5560  -45.2873 C.2       3 UNK         0.5000 
     56 O           4.8253  -15.6168  -44.7675 O.2       3 UNK        -0.5000 
     57 CA          4.7293  -14.2906  -46.7872 C.3       3 UNK         0.1400 
     58 CB          5.3539  -15.4901  -47.5210 C.3       3 UNK        -0.1800 
     59 N           3.5343  -13.8516  -47.5137 N.am      3 UNK        -0.5000 
     60 C           3.0185  -12.6164  -47.5221 C.2       2 UNK         0.5000 
     61 O           3.4707  -11.6950  -46.8411 O.2       2 UNK        -0.5000 
     62 CA          1.7889  -12.3584  -48.4182 C.3       2 UNK         0.1400 
     63 CB          2.1926  -12.2625  -49.9017 C.3       2 UNK        -0.1800 
     64 N           0.6765  -13.2982  -48.2274 N.am      2 UNK        -0.5000 
     65 C           0.6313  -14.6163  -48.4589 C.2       1 UNK         0.5000 
     66 O           1.5745  -15.2685  -48.9086 O.2       1 UNK        -0.5000 
     67 C          -2.5794  -22.4594  -47.3192 C.2       11 UNK         0.5000 
     68 O          -1.8429  -21.9891  -48.1900 O.2       11 UNK        -0.5000 
     69 N          -3.2787  -23.5935  -47.4766 N.am      12 UNK        -0.5000 
     70 CA         -3.2723  -24.4536  -48.6597 C.3       12 UNK         0.1400 
     71 CB         -4.2288  -25.6316  -48.4227 C.3       12 UNK        -0.1800 
     72 C          -1.8764  -24.9827  -49.0327 C.2       12 UNK         0.5000 
     73 O          -1.5732  -25.1006  -50.2196 O.2       12 UNK        -0.5000 
     74 N          -1.0418  -25.2649  -48.0210 N.am      13 UNK        -0.5000 
     75 CA          0.3160  -25.7846  -48.1982 C.3       13 UNK         0.1400 
     76 CB          0.8130  -26.3772  -46.8708 C.3       13 UNK        -0.1800 
     77 C           1.3067  -24.7405  -48.7505 C.2       13 UNK         0.5000 
     78 O           2.3126  -25.1269  -49.3464 O.2       13 UNK        -0.5000 
     79 N           1.0024  -23.4477  -48.5686 N.am      14 UNK        -0.5000 
     80 CA          1.7585  -22.3324  -49.1430 C.3       14 UNK         0.1400 
     81 CB          1.7707  -21.1638  -48.1426 C.3       14 UNK        -0.1800 
     82 C           1.1924  -21.8715  -50.4987 C.2       14 UNK         0.5000 
     83 O           1.8362  -21.0576  -51.1617 O.2       14 UNK        -0.5000 
     84 N           0.0016  -22.3692  -50.8714 N.am      15 UNK        -0.5000 
     85 CA         -0.8355  -21.9164  -51.9861 C.3       15 UNK         0.1400 
     86 CB         -0.1950  -22.2564  -53.3471 C.3       15 UNK        -0.1800 
     87 C          -1.1873  -20.4232  -51.8293 C.2       15 UNK         0.5000 
     88 O          -0.8928  -19.6119  -52.7084 O.2       15 UNK        -0.5000 
     89 N          -1.7765  -20.0945  -50.6719 N.am      16 UNK        -0.5000 
     90 CA         -2.0586  -18.7467  -50.1756 C.3       16 UNK         0.1400 
     91 CB         -2.8191  -18.8690  -48.8515 C.3       16 UNK        -0.1800 
     92 C          -2.8142  -17.8043  -51.1316 C.2       16 UNK         0.5000 
     93 O          -2.5924  -16.5947  -51.0645 O.2       16 UNK        -0.5000 
     94 N          -3.6686  -18.3625  -51.9968 N.am      17 UNK        -0.5000 
     95 CA         -4.4165  -17.6364  -53.0260 C.3       17 UNK         0.1400 
     96 CB         -5.9233  -17.7701  -52.7543 C.3       17 UNK        -0.1800 
     97 C          -4.0249  -18.0934  -54.4445 C.2       17 UNK         0.5000 
     98 O          -4.8592  -18.0572  -55.3511 O.2       17 UNK        -0.5000 
     99 N          -2.7661  -18.5239  -54.6184 N.am      18 UNK        -0.5000 
    100 CA        -2.1292  -18.9257  -55.8759 C.3       18 UNK         0.1400 
    101 CB        -1.8979  -17.6921  -56.7772 C.3       18 UNK        -0.1800 
    102 C         -2.8930  -20.0729  -56.5653 C.2       18 UNK         0.5000 
    103 O         -2.8721  -21.1926  -56.0554 O.2       18 UNK        -0.5000 
    104 N         -3.5743  -19.7765  -57.6804 N.am      19 UNK        -0.5000 
    105 CA        -4.3918  -20.7187  -58.4468 C.3       19 UNK         0.1400 
    106 CB        -4.8106  -20.0582  -59.7690 C.3       19 UNK        -0.1800 
    107 C         -5.6292  -21.2312  -57.6835 C.2       19 UNK         0.5000 
    108 O         -6.0417  -22.3698  -57.9079 O.2       19 UNK        -0.5000 
    109 N         -6.1894  -20.4025  -56.7890 N.am      20 UNK        -0.5000 
    110 CA        -7.2865  -20.7901  -55.8963 C.3       20 UNK         0.1400 
    111 CB        -8.0795  -19.5400  -55.4899 C.3       20 UNK        -0.1800 
    112 C         -6.7827  -21.5538  -54.6556 C.2       20 UNK         0.5000 
    113 O         -7.5520  -22.2991  -54.0491 O.2       20 UNK        -0.5000 
    114 N         -5.4997  -21.3597  -54.3175 N.am      21 UNK        -0.5000 
    115 CA        -4.6633  -22.0374  -53.3197 C.3       21 UNK         0.1400 
    116 CB        -4.4540  -23.5122  -53.7066 C.3       21 UNK        -0.1800 
    117 C         -5.0873  -21.9277  -51.8417 C.2       21 UNK         0.5000 
    118 O         -4.2028  -21.9333  -50.9901 O.2       21 UNK        -0.5000 
    119 N         -6.3912  -21.8438  -51.5593 N.am      22 UNK        -0.5000 
    120 CA        -7.0203  -21.9675  -50.2281 C.3       22 UNK         0.1400 
    121 C         -7.1136  -23.4363  -49.7129 C.2       22 UNK         0.5000 
    122 N         -6.8854  -24.4481  -50.5424 N.am      22 UNK        -0.7600 
    123 O         -7.4327  -23.6706  -48.5507 O.2       22 UNK        -0.5000 
    124 C124       -6.4573  -21.0042  -49.1425 C.3       23 UNK        -0.0398 
    125 S125       -6.5759  -19.2501  -49.6237 S.3       23 UNK        -0.2404 
    126 C126       -7.3712  -18.5073  -48.1661 C.3       23 UNK        -0.0205 
    127 H127       -3.8397  -14.2746  -50.3584 H         1 UNK         0.0600 
    128 H128       -3.4111  -12.5612  -50.3778 H         1 UNK         0.0600 
    129 H129       -4.5247  -13.1822  -49.1539 H         1 UNK         0.0600 
    130 H130       -2.1345  -15.4687  -49.6459 H         1 UNK         0.3000 
    131 H131       -0.5364  -16.3615  -48.4767 H         1 UNK         0.0600 
    132 H132        0.0007  -15.4924  -46.0388 H         1 UNK         0.0800 
    133 H133       -1.4141  -14.5052  -46.2057 H         1 UNK         0.0800 
    134 H134       -3.5423  -15.7067  -44.8218 H         1 UNK         0.0800 
    135 H135       -3.7925  -15.4018  -46.5299 H         1 UNK         0.0800 
    136 H136       -5.4371  -16.6522  -47.7204 H         1 UNK         0.1150 
    137 H137       -7.1764  -20.1743  -46.0105 H         1 UNK         0.1150 
    138 H138       -3.9780  -18.1680  -43.9822 H         1 UNK         0.1150 
    139 H139       -5.8652  -19.8073  -42.8246 H         1 UNK         0.0800 
    140 H140       -6.4594  -21.0243  -43.9255 H         1 UNK         0.0800 
    141 H141       -4.8417  -21.9832  -45.7307 H         1 UNK         0.0800 
    142 H142       -3.9405  -23.2210  -44.8857 H         1 UNK         0.0800 
    143 H143       -2.7292  -20.6947  -46.1408 H         1 UNK         0.0600 
    144 H144       -0.9420  -21.1106  -44.9232 H         1 UNK         0.3000 
    145 H145        0.5320  -24.0587  -43.5122 H         1 UNK         0.0600 
    146 H146        2.5600  -22.9898  -44.3267 H         1 UNK         0.0600 
    147 H147        1.6357  -21.8208  -45.2592 H         1 UNK         0.0600 
    148 H148        1.6535  -23.5136  -45.7374 H         1 UNK         0.0600 
    149 H149        0.9802  -21.2529  -43.0944 H         1 UNK         0.3000 
    150 H150       -0.9737  -20.9935  -40.1215 H         1 UNK         0.0600 
    151 H151        1.1026  -22.1917  -39.4269 H         1 UNK         0.0600 
    152 H152        1.2497  -20.4588  -39.1739 H         1 UNK         0.0600 
    153 H153        2.0530  -21.2190  -40.5456 H         1 UNK         0.0600 
    154 H154        0.9256  -19.3494  -41.6341 H         1 UNK         0.3000 
    155 H155       -1.5946  -17.6600  -43.4434 H         1 UNK         0.0600 
    156 H156       -1.7809  -16.3424  -41.3792 H         1 UNK         0.0600 
    157 H157       -0.6264  -15.5710  -42.4571 H         1 UNK         0.0600 
    158 H158       -0.0599  -16.5056  -41.0704 H         1 UNK         0.0600 
    159 H159        1.1698  -17.0770  -43.2590 H         1 UNK         0.3000 
    160 H160        2.2836  -19.5338  -45.6235 H         1 UNK         0.0600 
    161 H161        2.1162  -16.4932  -45.8182 H         1 UNK         0.0600 
    162 H162        1.2557  -17.5953  -46.8952 H         1 UNK         0.0600 
    163 H163        3.0054  -17.6072  -46.8584 H         1 UNK         0.0600 
    164 H164        3.6217  -17.4236  -44.1981 H         1 UNK         0.3000 
    165 H165        4.6920  -19.5354  -41.4752 H         1 UNK         0.0600 
    166 H166        6.7788  -18.4204  -42.1948 H         1 UNK         0.0600 
    167 H167        6.2930  -19.6043  -43.3981 H         1 UNK         0.0600 
    168 H168        6.0238  -17.8917  -43.6972 H         1 UNK         0.0600 
    169 H169        4.8482  -16.7084  -41.8634 H         1 UNK         0.3000 
    170 H170        1.8786  -15.7562  -40.2279 H         1 UNK         0.0600 
    171 H171        4.6721  -15.8024  -38.9752 H         1 UNK         0.0600 
    172 H172        3.3441  -14.7335  -38.5203 H         1 UNK         0.0600 
    173 H173        3.2154  -16.4622  -38.2415 H         1 UNK         0.0600 
    174 H174        4.1622  -14.2371  -40.8328 H         1 UNK         0.3000 
    175 H175        2.9954  -12.5699  -43.0566 H         1 UNK         0.0600 
    176 H176        5.7711  -13.7816  -42.5717 H         1 UNK         0.0600 
    177 H177        5.4758  -12.1301  -43.1005 H         1 UNK         0.0600 
    178 H178        4.9245  -12.6407  -41.5228 H         1 UNK         0.0600 
    179 H179        3.6041  -12.7529  -45.1851 H         1 UNK         0.3000 
    180 H180        5.4637  -13.4834  -46.8255 H         1 UNK         0.0600 
    181 H181        5.6343  -15.2215  -48.5396 H         1 UNK         0.0600 
    182 H182        4.6689  -16.3330  -47.5789 H         1 UNK         0.0600 
    183 H183        6.2590  -15.8332  -47.0184 H         1 UNK         0.0600 
    184 H184        3.0504  -14.5545  -48.0677 H         1 UNK         0.3000 
    185 H185        1.3947  -11.3829  -48.1289 H         1 UNK         0.0600 
    186 H186        1.3380  -11.9997  -50.5252 H         1 UNK         0.0600 
    187 H187        2.9509  -11.4925  -50.0486 H         1 UNK         0.0600 
    188 H188        2.6050  -13.1994  -50.2768 H         1 UNK         0.0600 
    189 H189       -0.1887  -12.8784  -47.8971 H         1 UNK         0.3000 
    190 H190       -3.8133  -23.9379  -46.6937 H         1 UNK         0.3000 
    191 H191       -3.6469  -23.8711  -49.4999 H         1 UNK         0.0600 
    192 H192       -5.2302  -25.2865  -48.1687 H         1 UNK         0.0600 
    193 H193       -3.8839  -26.2742  -47.6115 H         1 UNK         0.0600 
    194 H194       -4.3151  -26.2488  -49.3179 H         1 UNK         0.0600 
    195 H195       -1.3471  -25.0972  -47.0678 H         1 UNK         0.3000 
    196 H196        0.2728  -26.5973  -48.9266 H         1 UNK         0.0600 
    197 H197        0.1753  -27.1998  -46.5466 H         1 UNK         0.0600 
    198 H198        0.8280  -25.6365  -46.0732 H         1 UNK         0.0600 
    199 H199        1.8246  -26.7724  -46.9718 H         1 UNK         0.0600 
    200 H200        0.1380  -23.2092  -48.1000 H         1 UNK         0.3000 
    201 H201        2.7945  -22.6297  -49.3183 H         1 UNK         0.0600 
    202 H202        2.4189  -21.3941  -47.2997 H         1 UNK         0.0600 
    203 H203        0.7734  -20.9379  -47.7621 H         1 UNK         0.0600 
    204 H204        2.1629  -20.2515  -48.5942 H         1 UNK         0.0600 
    205 H205       -0.4302  -23.0501  -50.2618 H         1 UNK         0.3000 
    206 H206       -1.7687  -22.4754  -51.9154 H         1 UNK         0.0600 
    207 H207        0.7342  -21.7105  -53.5115 H         1 UNK         0.0600 
    208 H208        0.0231  -23.3216  -53.4231 H         1 UNK         0.0600 
    209 H209       -0.8704  -22.0036  -54.1654 H         1 UNK         0.0600 
    210 H210       -1.9747  -20.8428  -50.0157 H         1 UNK         0.3000 
    211 H211       -1.0947  -18.2775  -49.9716 H         1 UNK         0.0600 
    212 H212       -3.6741  -19.5386  -48.9373 H         1 UNK         0.0600 
    213 H213       -3.1970  -17.9009  -48.5251 H         1 UNK         0.0600 
    214 H214       -2.1719  -19.2508  -48.0625 H         1 UNK         0.0600 
    215 H215       -3.7910  -19.3635  -51.9594 H         1 UNK         0.3000 
    216 H216       -4.1758  -16.5723  -52.9895 H         1 UNK         0.0600 
    217 H217       -6.5103  -17.2266  -53.4950 H         1 UNK         0.0600 
    218 H218       -6.1784  -17.3451  -51.7844 H         1 UNK         0.0600 
    219 H219       -6.2464  -18.8115  -52.7647 H         1 UNK         0.0600 
    220 H220       -2.1673  -18.6061  -53.8012 H         1 UNK         0.3000 
    221 H221       -1.1502  -19.3285  -55.6115 H         1 UNK         0.0600 
    222 H222       -2.8282  -17.1875  -57.0401 H         1 UNK         0.0600 
    223 H223       -1.2619  -16.9624  -56.2758 H         1 UNK         0.0600 
    224 H224       -1.3943  -17.9702  -57.7040 H         1 UNK         0.0600 
    225 H225       -3.5603  -18.8215  -58.0079 H         1 UNK         0.3000 
    226 H226       -3.7698  -21.5853  -58.6806 H         1 UNK         0.0600 
    227 H227       -3.9408  -19.7682  -60.3586 H         1 UNK         0.0600 
    228 H228       -5.4007  -20.7439  -60.3786 H         1 UNK         0.0600 
    229 H229       -5.4153  -19.1664  -59.5994 H         1 UNK         0.0600 
    230 H230       -5.7814  -19.4855  -56.6396 H         1 UNK         0.3000 
    231 H231       -7.9680  -21.4544  -56.4321 H         1 UNK         0.0600 
    232 H232       -8.8953  -19.7951  -54.8122 H         1 UNK         0.0600 
    233 H233       -8.5203  -19.0553  -56.3611 H         1 UNK         0.0600 
    234 H234       -7.4501  -18.8087  -54.9864 H         1 UNK         0.0600 
    235 H235       -4.9860  -20.7337  -54.9214 H         1 UNK         0.3000 
    236 H236       -3.6917  -21.5466  -53.3889 H         1 UNK         0.0600 
    237 H237       -5.3907  -24.0700  -53.7041 H         1 UNK         0.0600 
    238 H238       -4.0169  -23.5963  -54.7019 H         1 UNK         0.0600 
    239 H239       -3.7743  -24.0083  -53.0120 H         1 UNK         0.0600 
    240 H240       -7.0291  -21.8883  -52.3501 H         1 UNK         0.3000 
    241 H241       -8.0599  -21.6804  -50.3883 H         1 UNK         0.0600 
    242 H242       -6.6660  -24.2798  -51.5102 H         1 UNK         0.3800 
    243 H243       -6.9742  -25.3927  -50.2039 H         1 UNK         0.3800 
    244 H244       -7.0094  -21.1393  -48.2126 H         1 UNK         0.0800 
    245 H245       -5.4211  -21.2383  -48.8995 H         1 UNK         0.0800 
    246 H246       -8.2654  -19.0738  -47.9015 H         1 UNK         0.0800 
    247 H247       -7.7145  -17.5056  -48.4283 H         1 UNK         0.0800 
@<TRIPOS>BOND
     1    1    2 1    
     2    1  127 1    
     3    1  128 1    
     4    1  129 1    
     5    2    3 2    
     6    2    4 am   BACKBONE|DICT|INTERRES
     7    4    5 1    
     8    4  130 1    
     9    5    6 1    
    10    5   65 1    
    11    5  131 1    
    12    6    7 1    
    13    6  132 1    
    14    6  133 1    
    15    7    8 1    
    16    8    9 1    
    17    8  134 1    
    18    8  135 1    
    19    9   10 ar   
    20    9   14 ar   
    21   10   11 ar   
    22   10  136 1    
    23   11   12 ar   
    24   11  126 1    
    25   12   13 ar   
    26   12  137 1    
    27   13   14 ar   
    28   13   15 1    
    29   14  138 1    
    30   15   16 1    
    31   15  139 1    
    32   15  140 1    
    33   16   17 1    
    34   17   18 1    
    35   17  141 1    
    36   17  142 1    
    37   18   19 1    
    38   18   67 1    
    39   18  143 1    
    40   19   20 am   BACKBONE|DICT|INTERRES
    41   19  144 1    
    42   20   21 2    
    43   20   22 1    
    44   22   23 1    
    45   22   24 1    
    46   22  145 1    
    47   23  146 1    
    48   23  147 1    
    49   23  148 1    
    50   24   25 am   BACKBONE|DICT|INTERRES
    51   24  149 1    
    52   25   26 2    
    53   25   27 1    
    54   27   28 1    
    55   27   29 1    
    56   27  150 1    
    57   28  151 1    
    58   28  152 1    
    59   28  153 1    
    60   29   30 am   BACKBONE|DICT|INTERRES
    61   29  154 1    
    62   30   31 2    
    63   30   32 1    
    64   32   33 1    
    65   32   34 1    
    66   32  155 1    
    67   33  156 1    
    68   33  157 1    
    69   33  158 1    
    70   34   35 am   BACKBONE|DICT|INTERRES
    71   34  159 1    
    72   35   36 2    
    73   35   37 1    
    74   37   38 1    
    75   37   39 1    
    76   37  160 1    
    77   38  161 1    
    78   38  162 1    
    79   38  163 1    
    80   39   40 am   BACKBONE|DICT|INTERRES
    81   39  164 1    
    82   40   41 2    
    83   40   42 1    
    84   42   43 1    
    85   42   44 1    
    86   42  165 1    
    87   43  166 1    
    88   43  167 1    
    89   43  168 1    
    90   44   45 am   BACKBONE|DICT|INTERRES
    91   44  169 1    
    92   45   46 2    
    93   45   47 1    
    94   47   48 1    
    95   47   49 1    
    96   47  170 1    
    97   48  171 1    
    98   48  172 1    
    99   48  173 1    
   100   49   50 am   BACKBONE|DICT|INTERRES
   101   49  174 1    
   102   50   51 2    
   103   50   52 1    
   104   52   53 1    
   105   52   54 1    
   106   52  175 1    
   107   53  176 1    
   108   53  177 1    
   109   53  178 1    
   110   54   55 am   BACKBONE|DICT|INTERRES
   111   54  179 1    
   112   55   56 2    
   113   55   57 1    
   114   57   58 1    
   115   57   59 1    
   116   57  180 1    
   117   58  181 1    
   118   58  182 1    
   119   58  183 1    
   120   59   60 am   BACKBONE|DICT|INTERRES
   121   59  184 1    
   122   60   61 2    
   123   60   62 1    
   124   62   63 1    
   125   62   64 1    
   126   62  185 1    
   127   63  186 1    
   128   63  187 1    
   129   63  188 1    
   130   64   65 am   BACKBONE|DICT|INTERRES
   131   64  189 1    
   132   65   66 2    
   133   67   68 2    
   134   67   69 am   BACKBONE|DICT|INTERRES
   135   69   70 1    
   136   69  190 1    
   137   70   71 1    
   138   70   72 1    
   139   70  191 1    
   140   71  192 1    
   141   71  193 1    
   142   71  194 1    
   143   72   73 2    
   144   72   74 am   BACKBONE|DICT|INTERRES
   145   74   75 1    
   146   74  195 1    
   147   75   76 1    
   148   75   77 1    
   149   75  196 1    
   150   76  197 1    
   151   76  198 1    
   152   76  199 1    
   153   77   78 2    
   154   77   79 am   BACKBONE|DICT|INTERRES
   155   79   80 1    
   156   79  200 1    
   157   80   81 1    
   158   80   82 1    
   159   80  201 1    
   160   81  202 1    
   161   81  203 1    
   162   81  204 1    
   163   82   83 2    
   164   82   84 am   BACKBONE|DICT|INTERRES
   165   84   85 1    
   166   84  205 1    
   167   85   86 1    
   168   85   87 1    
   169   85  206 1    
   170   86  207 1    
   171   86  208 1    
   172   86  209 1    
   173   87   88 2    
   174   87   89 am   BACKBONE|DICT|INTERRES
   175   89   90 1    
   176   89  210 1    
   177   90   91 1    
   178   90   92 1    
   179   90  211 1    
   180   91  212 1    
   181   91  213 1    
   182   91  214 1    
   183   92   93 2    
   184   92   94 am   BACKBONE|DICT|INTERRES
   185   94   95 1    
   186   94  215 1    
   187   95   96 1    
   188   95   97 1    
   189   95  216 1    
   190   96  217 1    
   191   96  218 1    
   192   96  219 1    
   193   97   98 2    
   194   97   99 am   BACKBONE|DICT|INTERRES
   195   99  100 1    
   196   99  220 1    
   197  100  101 1    
   198  100  102 1    
   199  100  221 1    
   200  101  222 1    
   201  101  223 1    
   202  101  224 1    
   203  102  103 2    
   204  102  104 am   BACKBONE|DICT|INTERRES
   205  104  105 1    
   206  104  225 1    
   207  105  106 1    
   208  105  107 1    
   209  105  226 1    
   210  106  227 1    
   211  106  228 1    
   212  106  229 1    
   213  107  108 2    
   214  107  109 am   BACKBONE|DICT|INTERRES
   215  109  110 1    
   216  109  230 1    
   217  110  111 1    
   218  110  112 1    
   219  110  231 1    
   220  111  232 1    
   221  111  233 1    
   222  111  234 1    
   223  112  113 2    
   224  112  114 am   BACKBONE|DICT|INTERRES
   225  114  115 1    
   226  114  235 1    
   227  115  116 1    
   228  115  117 1    
   229  115  236 1    
   230  116  237 1    
   231  116  238 1    
   232  116  239 1    
   233  117  118 2    
   234  117  119 am   BACKBONE|DICT|INTERRES
   235  119  120 1    
   236  119  240 1    
   237  120  121 1    
   238  120  124 1    
   239  120  241 1    
   240  121  122 am   BACKBONE|DICT|INTERRES
   241  121  123 2    
   242  122  242 1    
   243  122  243 1    
   244  124  125 1    
   245  124  244 1    
   246  124  245 1    
   247  125  126 1    
   248  126  246 1    
   249  126  247 1    
@<TRIPOS>SUBSTRUCTURE
     1 UNK         1 GROUP             0       ****    0 ROOT    
