@<TRIPOS>MOLECULE
3R540
247   249    1
SMALL
USER_CHARGES


@<TRIPOS>ATOM
      1 CA          1.0989  -13.9870  -52.3780 C.3       0 UNK        -0.1800 
      2 C           1.3571  -13.0267  -51.2266 C.2       0 UNK         0.5000 
      3 O           1.2575  -11.8114  -51.4014 O.2       0 UNK        -0.5000 
      4 N           1.6942  -13.5643  -50.0489 N.am      1 UNK        -0.5000 
      5 CA          1.9671  -12.8220  -48.8159 C.3       1 UNK         0.1400 
      6 C6          2.9747  -13.5576  -47.8859 C.3       23 UNK        -0.0398 
      7 S7          2.6322  -15.3320  -47.6114 S.3       23 UNK        -0.2404 
      8 C8          3.7341  -16.0877  -48.8439 C.3       23 UNK        -0.0205 
      9 C9          3.2904  -17.4948  -49.2106 C.ar      23 UNK        -0.0193 
     10 C10         2.1946  -17.6843  -50.0598 C.ar      23 UNK        -0.1150 
     11 C11         1.8192  -18.9701  -50.4646 C.ar      23 UNK        -0.0193 
     12 C12         2.5561  -20.0656  -50.0075 C.ar      23 UNK        -0.1150 
     13 C13         3.6279  -19.8961  -49.1264 C.ar      23 UNK        -0.0193 
     14 C14         3.9916  -18.6055  -48.7321 C.ar      23 UNK        -0.1150 
     15 C15         4.4021  -21.1071  -48.6200 C.3       23 UNK        -0.0205 
     16 S16         3.6314  -21.8622  -47.1496 S.3       23 UNK        -0.2404 
     17 C17         2.1016  -22.5401  -47.8721 C.3       23 UNK        -0.0398 
     18 CA          1.3365  -23.5039  -46.9376 C.3       11 UNK         0.1400 
     19 N           0.9029  -22.8541  -45.6979 N.am      11 UNK        -0.5000 
     20 C           0.4322  -23.5050  -44.6258 C.2       10 UNK         0.5000 
     21 O           0.3950  -24.7324  -44.5316 O.2       10 UNK        -0.5000 
     22 CA         -0.1360  -22.6392  -43.4851 C.3       10 UNK         0.1400 
     23 CB          0.9864  -22.1381  -42.5642 C.3       10 UNK        -0.1800 
     24 N          -0.9226  -21.5024  -43.9699 N.am      10 UNK        -0.5000 
     25 C          -2.0531  -21.6164  -44.6826 C.2       9 UNK         0.5000 
     26 O          -2.5670  -22.6936  -44.9785 O.2       9 UNK        -0.5000 
     27 CA         -2.7047  -20.3166  -45.1836 C.3       9 UNK         0.1400 
     28 CB         -3.5915  -19.7029  -44.0909 C.3       9 UNK        -0.1800 
     29 N          -1.7365  -19.3254  -45.6493 N.am      9 UNK        -0.5000 
     30 C          -0.8596  -19.4966  -46.6496 C.2       8 UNK         0.5000 
     31 O          -0.7740  -20.5242  -47.3186 O.2       8 UNK        -0.5000 
     32 CA          0.1192  -18.3388  -46.9069 C.3       8 UNK         0.1400 
     33 CB         -0.5727  -17.1995  -47.6708 C.3       8 UNK        -0.1800 
     34 N           0.6806  -17.8249  -45.6597 N.am      8 UNK        -0.5000 
     35 C           1.4878  -18.5221  -44.8482 C.2       7 UNK         0.5000 
     36 O           1.8677  -19.6704  -45.0743 O.2       7 UNK        -0.5000 
     37 CA          1.8900  -17.8328  -43.5338 C.3       7 UNK         0.1400 
     38 CB          3.0439  -16.8456  -43.7672 C.3       7 UNK        -0.1800 
     39 N           0.7581  -17.1353  -42.9214 N.am      7 UNK        -0.5000 
     40 C          -0.2991  -17.7573  -42.3754 C.2       6 UNK         0.5000 
     41 O          -0.3947  -18.9811  -42.2804 O.2       6 UNK        -0.5000 
     42 CA         -1.4674  -16.8704  -41.8967 C.3       6 UNK         0.1400 
     43 CB         -1.2484  -16.4286  -40.4424 C.3       6 UNK        -0.1800 
     44 N          -1.6683  -15.6874  -42.7345 N.am      6 UNK        -0.5000 
     45 C          -1.9617  -15.7186  -44.0412 C.2       5 UNK         0.5000 
     46 O          -2.2182  -16.7541  -44.6515 O.2       5 UNK        -0.5000 
     47 CA         -1.9212  -14.3925  -44.8198 C.3       5 UNK         0.1400 
     48 CB         -3.3434  -13.9219  -45.1580 C.3       5 UNK        -0.1800 
     49 N          -1.2038  -13.2942  -44.1676 N.am      5 UNK        -0.5000 
     50 C           0.0842  -13.2751  -43.7908 C.2       4 UNK         0.5000 
     51 O           0.8018  -14.2769  -43.7784 O.2       4 UNK        -0.5000 
     52 CA          0.6594  -11.9042  -43.3653 C.3       4 UNK         0.1400 
     53 CB          2.1649  -11.7993  -43.6651 C.3       4 UNK        -0.1800 
     54 N          -0.0266  -10.8033  -44.0460 N.am      4 UNK        -0.5000 
     55 C          -1.1272  -10.1674  -43.6289 C.2       3 UNK         0.5000 
     56 O          -1.6360  -10.3488  -42.5233 O.2       3 UNK        -0.5000 
     57 CA         -1.8365   -9.2515  -44.6495 C.3       3 UNK         0.1400 
     58 CB         -1.2523   -7.8257  -44.6367 C.3       3 UNK        -0.1800 
     59 N          -1.8955   -9.8223  -46.0080 N.am      3 UNK        -0.5000 
     60 C          -0.8929  -10.0093  -46.8783 C.2       2 UNK         0.5000 
     61 O           0.2630   -9.6245  -46.6831 O.2       2 UNK        -0.5000 
     62 CA         -1.2370  -10.7911  -48.1633 C.3       2 UNK         0.1400 
     63 CB         -1.8390   -9.8590  -49.2249 C.3       2 UNK        -0.1800 
     64 N          -0.0610  -11.4547  -48.7293 N.am      2 UNK        -0.5000 
     65 C           0.6472  -12.4181  -48.1250 C.2       1 UNK         0.5000 
     66 O           0.2881  -12.9696  -47.0858 O.2       1 UNK        -0.5000 
     67 C           0.1314  -24.1022  -47.6914 C.2       11 UNK         0.5000 
     68 O           0.1686  -25.2650  -48.0968 O.2       11 UNK        -0.5000 
     69 N          -0.9213  -23.2913  -47.8596 N.am      12 UNK        -0.5000 
     70 CA         -2.1306  -23.6209  -48.6091 C.3       12 UNK         0.1400 
     71 CB         -3.0160  -22.3799  -48.7028 C.3       12 UNK        -0.1800 
     72 C          -2.9246  -24.8035  -48.0348 C.2       12 UNK         0.5000 
     73 O          -3.5114  -25.5572  -48.8089 O.2       12 UNK        -0.5000 
     74 N          -2.9021  -24.9725  -46.7065 N.am      13 UNK        -0.5000 
     75 CA         -3.4981  -26.1070  -46.0008 C.3       13 UNK         0.1400 
     76 CB         -3.4265  -25.8583  -44.4867 C.3       13 UNK        -0.1800 
     77 C          -2.8399  -27.4533  -46.3577 C.2       13 UNK         0.5000 
     78 O          -3.5374  -28.4655  -46.4290 O.2       13 UNK        -0.5000 
     79 N          -1.5209  -27.4397  -46.5962 N.am      14 UNK        -0.5000 
     80 CA         -0.7568  -28.6036  -47.0438 C.3       14 UNK         0.1400 
     81 CB          0.7220  -28.4217  -46.6678 C.3       14 UNK        -0.1800 
     82 C          -0.9153  -28.8404  -48.5563 C.2       14 UNK         0.5000 
     83 O          -1.0160  -29.9909  -48.9839 O.2       14 UNK        -0.5000 
     84 N          -0.9447  -27.7503  -49.3360 N.am      15 UNK        -0.5000 
     85 CA         -1.0946  -27.7711  -50.7936 C.3       15 UNK         0.1400 
     86 CB         -0.6617  -26.4075  -51.3537 C.3       15 UNK        -0.1800 
     87 C          -2.5208  -28.1109  -51.2749 C.2       15 UNK         0.5000 
     88 O          -2.6791  -28.5139  -52.4277 O.2       15 UNK        -0.5000 
     89 N          -3.5197  -27.9179  -50.4005 N.am      16 UNK        -0.5000 
     90 CA         -4.9635  -27.9748  -50.6553 C.3       16 UNK         0.1400 
     91 CB         -5.4100  -29.3901  -51.0788 C.3       16 UNK        -0.1800 
     92 C          -5.4023  -26.8641  -51.6335 C.2       16 UNK         0.5000 
     93 O          -6.0757  -27.1336  -52.6304 O.2       16 UNK        -0.5000 
     94 N          -4.9746  -25.6338  -51.3304 N.am      17 UNK        -0.5000 
     95 CA         -5.1843  -24.4263  -52.1271 C.3       17 UNK         0.1400 
     96 CB         -3.8061  -23.9422  -52.6158 C.3       17 UNK        -0.1800 
     97 C          -5.8861  -23.3374  -51.2936 C.2       17 UNK         0.5000 
     98 O          -6.1730  -23.5441  -50.1115 O.2       17 UNK        -0.5000 
     99 N          -6.1295  -22.1798  -51.9221 N.am      18 UNK        -0.5000 
    100 CA        -6.5003  -20.9333  -51.2469 C.3       18 UNK         0.1400 
    101 CB        -7.1503  -19.9871  -52.2682 C.3       18 UNK        -0.1800 
    102 C         -5.2532  -20.2777  -50.6223 C.2       18 UNK         0.5000 
    103 O         -4.1518  -20.4934  -51.1283 O.2       18 UNK        -0.5000 
    104 N         -5.4533  -19.5015  -49.5468 N.am      19 UNK        -0.5000 
    105 CA        -4.4101  -18.8678  -48.7322 C.3       19 UNK         0.1400 
    106 CB        -5.0408  -18.3248  -47.4351 C.3       19 UNK        -0.1800 
    107 C         -3.5851  -17.8105  -49.4954 C.2       19 UNK         0.5000 
    108 O         -2.6703  -18.1734  -50.2303 O.2       19 UNK        -0.5000 
    109 N         -3.8884  -16.5183  -49.3012 N.am      20 UNK        -0.5000 
    110 CA        -3.1169  -15.3904  -49.8448 C.3       20 UNK         0.1400 
    111 CB        -3.6435  -14.0792  -49.2422 C.3       20 UNK        -0.1800 
    112 C         -3.0900  -15.3121  -51.3852 C.2       20 UNK         0.5000 
    113 O         -2.1761  -14.7065  -51.9432 O.2       20 UNK        -0.5000 
    114 N         -4.0796  -15.9316  -52.0411 N.am      21 UNK        -0.5000 
    115 CA        -4.1461  -16.0830  -53.4941 C.3       21 UNK         0.1400 
    116 CB        -5.6061  -16.3552  -53.8905 C.3       21 UNK        -0.1800 
    117 C         -3.2272  -17.1995  -54.0337 C.2       21 UNK         0.5000 
    118 O         -2.9343  -17.2004  -55.2297 O.2       21 UNK        -0.5000 
    119 N         -2.8178  -18.1370  -53.1664 N.am      22 UNK        -0.5000 
    120 CA        -1.9999  -19.3264  -53.4674 C.3       22 UNK         0.1400 
    121 C         -2.6702  -20.3769  -54.4089 C.2       22 UNK         0.5000 
    122 N         -3.9671  -20.2998  -54.6833 N.am      22 UNK        -0.7600 
    123 O         -2.0111  -21.2975  -54.8845 O.2       22 UNK        -0.5000 
    124 C124       -0.5489  -18.9794  -53.9109 C.3       23 UNK        -0.0398 
    125 S125        0.3903  -17.9927  -52.6938 S.3       23 UNK        -0.2404 
    126 C126        0.6045  -19.2160  -51.3559 C.3       23 UNK        -0.0205 
    127 H127        0.2085  -13.6844  -52.9292 H         1 UNK         0.0600 
    128 H128        0.9433  -15.0061  -52.0244 H         1 UNK         0.0600 
    129 H129        1.9438  -13.9861  -53.0663 H         1 UNK         0.0600 
    130 H130        1.7197  -14.5681  -49.9479 H         1 UNK         0.3000 
    131 H131        2.4542  -11.8833  -49.0896 H         1 UNK         0.0600 
    132 H132        3.9786  -13.4620  -48.3015 H         1 UNK         0.0800 
    133 H133        3.0256  -13.0662  -46.9129 H         1 UNK         0.0800 
    134 H134        4.7527  -16.0926  -48.4531 H         1 UNK         0.0800 
    135 H135        3.7598  -15.4812  -49.7500 H         1 UNK         0.0800 
    136 H136        1.6353  -16.8283  -50.4070 H         1 UNK         0.1150 
    137 H137        2.2799  -21.0614  -50.3230 H         1 UNK         0.1150 
    138 H138        4.8296  -18.4657  -48.0638 H         1 UNK         0.1150 
    139 H139        4.4922  -21.8529  -49.4112 H         1 UNK         0.0800 
    140 H140        5.4220  -20.8142  -48.3663 H         1 UNK         0.0800 
    141 H141        2.3653  -23.0487  -48.8014 H         1 UNK         0.0800 
    142 H142        1.4597  -21.7017  -48.1437 H         1 UNK         0.0800 
    143 H143        2.0045  -24.3273  -46.6754 H         1 UNK         0.0600 
    144 H144        0.9197  -21.8419  -45.6875 H         1 UNK         0.3000 
    145 H145       -0.8012  -23.2713  -42.8932 H         1 UNK         0.0600 
    146 H146        0.5823  -21.5919  -41.7118 H         1 UNK         0.0600 
    147 H147        1.5690  -22.9716  -42.1700 H         1 UNK         0.0600 
    148 H148        1.6749  -21.4760  -43.0894 H         1 UNK         0.0600 
    149 H149       -0.5854  -20.5774  -43.7295 H         1 UNK         0.3000 
    150 H150       -3.3460  -20.5667  -46.0283 H         1 UNK         0.0600 
    151 H151       -4.3561  -20.4100  -43.7671 H         1 UNK         0.0600 
    152 H152       -4.1051  -18.8111  -44.4495 H         1 UNK         0.0600 
    153 H153       -3.0099  -19.4242  -43.2126 H         1 UNK         0.0600 
    154 H154       -1.7664  -18.4193  -45.1852 H         1 UNK         0.3000 
    155 H155        0.9471  -18.7122  -47.5130 H         1 UNK         0.0600 
    156 H156       -1.5576  -16.9665  -47.2656 H         1 UNK         0.0600 
    157 H157        0.0072  -16.2798  -47.6555 H         1 UNK         0.0600 
    158 H158       -0.6972  -17.4761  -48.7165 H         1 UNK         0.0600 
    159 H159        0.4082  -16.8933  -45.3848 H         1 UNK         0.3000 
    160 H160        2.2350  -18.6030  -42.8406 H         1 UNK         0.0600 
    161 H161        2.7630  -16.0514  -44.4601 H         1 UNK         0.0600 
    162 H162        3.9115  -17.3544  -44.1891 H         1 UNK         0.0600 
    163 H163        3.3597  -16.3792  -42.8341 H         1 UNK         0.0600 
    164 H164        0.7449  -16.1239  -43.0159 H         1 UNK         0.3000 
    165 H165       -2.3796  -17.4682  -41.9390 H         1 UNK         0.0600 
    166 H166       -2.1038  -15.8663  -40.0676 H         1 UNK         0.0600 
    167 H167       -1.1162  -17.2917  -39.7885 H         1 UNK         0.0600 
    168 H168       -0.3621  -15.8009  -40.3414 H         1 UNK         0.0600 
    169 H169       -1.4616  -14.7921  -42.3175 H         1 UNK         0.3000 
    170 H170       -1.4030  -14.6013  -45.7576 H         1 UNK         0.0600 
    171 H171       -3.9031  -14.7033  -45.6743 H         1 UNK         0.0600 
    172 H172       -3.9022  -13.6570  -44.2596 H         1 UNK         0.0600 
    173 H173       -3.3253  -13.0507  -45.8130 H         1 UNK         0.0600 
    174 H174       -1.7076  -12.4236  -44.0998 H         1 UNK         0.3000 
    175 H175        0.5192  -11.8127  -42.2866 H         1 UNK         0.0600 
    176 H176        2.3690  -11.9287  -44.7287 H         1 UNK         0.0600 
    177 H177        2.5605  -10.8295  -43.3630 H         1 UNK         0.0600 
    178 H178        2.7294  -12.5608  -43.1256 H         1 UNK         0.0600 
    179 H179        0.3006  -10.5847  -44.9825 H         1 UNK         0.3000 
    180 H180       -2.8753   -9.1735  -44.3245 H         1 UNK         0.0600 
    181 H181       -0.1889   -7.8124  -44.8757 H         1 UNK         0.0600 
    182 H182       -1.3651   -7.3725  -43.6512 H         1 UNK         0.0600 
    183 H183       -1.7660   -7.1823  -45.3510 H         1 UNK         0.0600 
    184 H184       -2.8064  -10.1747  -46.2684 H         1 UNK         0.3000 
    185 H185       -1.9689  -11.5620  -47.9133 H         1 UNK         0.0600 
    186 H186       -2.7396   -9.3686  -48.8532 H         1 UNK         0.0600 
    187 H187       -1.1364   -9.0776  -49.5177 H         1 UNK         0.0600 
    188 H188       -2.1185  -10.4123  -50.1219 H         1 UNK         0.0600 
    189 H189        0.2912  -11.0915  -49.6068 H         1 UNK         0.3000 
    190 H190       -0.8611  -22.3339  -47.5171 H         1 UNK         0.3000 
    191 H191       -1.8231  -23.8875  -49.6203 H         1 UNK         0.0600 
    192 H192       -3.3519  -22.0522  -47.7210 H         1 UNK         0.0600 
    193 H193       -3.9025  -22.5837  -49.2975 H         1 UNK         0.0600 
    194 H194       -2.4872  -21.5556  -49.1814 H         1 UNK         0.0600 
    195 H195       -2.4753  -24.2516  -46.1310 H         1 UNK         0.3000 
    196 H196       -4.5496  -26.1657  -46.2894 H         1 UNK         0.0600 
    197 H197       -3.8521  -26.6943  -43.9304 H         1 UNK         0.0600 
    198 H198       -3.9861  -24.9652  -44.2082 H         1 UNK         0.0600 
    199 H199       -2.3972  -25.7263  -44.1499 H         1 UNK         0.0600 
    200 H200       -1.0247  -26.5593  -46.5494 H         1 UNK         0.3000 
    201 H201       -1.1261  -29.4906  -46.5245 H         1 UNK         0.0600 
    202 H202        0.8410  -28.2874  -45.5925 H         1 UNK         0.0600 
    203 H203        1.1653  -27.5575  -47.1630 H         1 UNK         0.0600 
    204 H204        1.3061  -29.2974  -46.9533 H         1 UNK         0.0600 
    205 H205       -0.7887  -26.8449  -48.9049 H         1 UNK         0.3000 
    206 H206       -0.4214  -28.5320  -51.1941 H         1 UNK         0.0600 
    207 H207        0.3438  -26.1427  -51.0261 H         1 UNK         0.0600 
    208 H208       -0.6577  -26.4175  -52.4444 H         1 UNK         0.0600 
    209 H209       -1.3393  -25.6147  -51.0395 H         1 UNK         0.0600 
    210 H210       -3.2677  -27.4943  -49.5152 H         1 UNK         0.3000 
    211 H211       -5.4475  -27.7521  -49.7031 H         1 UNK         0.0600 
    212 H212       -5.0194  -29.6688  -52.0576 H         1 UNK         0.0600 
    213 H213       -6.4973  -29.4519  -51.1344 H         1 UNK         0.0600 
    214 H214       -5.0783  -30.1386  -50.3593 H         1 UNK         0.0600 
    215 H215       -4.4882  -25.5004  -50.4470 H         1 UNK         0.3000 
    216 H216       -5.8150  -24.6398  -52.9923 H         1 UNK         0.0600 
    217 H217       -3.8972  -23.0939  -53.2945 H         1 UNK         0.0600 
    218 H218       -3.2806  -24.7295  -53.1568 H         1 UNK         0.0600 
    219 H219       -3.1727  -23.6288  -51.7851 H         1 UNK         0.0600 
    220 H220       -5.8227  -22.0811  -52.8784 H         1 UNK         0.3000 
    221 H221       -7.2225  -21.1509  -50.4571 H         1 UNK         0.0600 
    222 H222       -6.4689  -19.7443  -53.0837 H         1 UNK         0.0600 
    223 H223       -8.0456  -20.4326  -52.7023 H         1 UNK         0.0600 
    224 H224       -7.4499  -19.0488  -51.7997 H         1 UNK         0.0600 
    225 H225       -6.4008  -19.3676  -49.2249 H         1 UNK         0.3000 
    226 H226       -3.7012  -19.6430  -48.4402 H         1 UNK         0.0600 
    227 H227       -5.4609  -19.1352  -46.8390 H         1 UNK         0.0600 
    228 H228       -4.2953  -17.8267  -46.8126 H         1 UNK         0.0600 
    229 H229       -5.8424  -17.6125  -47.6331 H         1 UNK         0.0600 
    230 H230       -4.6572  -16.2860  -48.6897 H         1 UNK         0.3000 
    231 H231       -2.0814  -15.5123  -49.5214 H         1 UNK         0.0600 
    232 H232       -3.0776  -13.2235  -49.6133 H         1 UNK         0.0600 
    233 H233       -3.5499  -14.0800  -48.1568 H         1 UNK         0.0600 
    234 H234       -4.6921  -13.9139  -49.4920 H         1 UNK         0.0600 
    235 H235       -4.7943  -16.3937  -51.4993 H         1 UNK         0.3000 
    236 H236       -3.8352  -15.1462  -53.9616 H         1 UNK         0.0600 
    237 H237       -6.2566  -15.5359  -53.5838 H         1 UNK         0.0600 
    238 H238       -5.7060  -16.4594  -54.9717 H         1 UNK         0.0600 
    239 H239       -5.9835  -17.2714  -53.4356 H         1 UNK         0.0600 
    240 H240       -3.0556  -18.0418  -52.1845 H         1 UNK         0.3000 
    241 H241       -1.9231  -19.8527  -52.5163 H         1 UNK         0.0600 
    242 H242       -4.5171  -19.5459  -54.3093 H         1 UNK         0.3800 
    243 H243       -4.3814  -20.9734  -55.3069 H         1 UNK         0.3800 
    244 H244        0.0253  -19.8867  -54.1051 H         1 UNK         0.0800 
    245 H245       -0.5628  -18.4330  -54.8546 H         1 UNK         0.0800 
    246 H246        0.6722  -20.2106  -51.7989 H         1 UNK         0.0800 
    247 H247       -0.2883  -19.2189  -50.7301 H         1 UNK         0.0800 
@<TRIPOS>BOND
     1    1    2 1    
     2    1  127 1    
     3    1  128 1    
     4    1  129 1    
     5    2    3 2    
     6    2    4 am   BACKBONE|DICT|INTERRES
     7    4    5 1    
     8    4  130 1    
     9    5    6 1    
    10    5   65 1    
    11    5  131 1    
    12    6    7 1    
    13    6  132 1    
    14    6  133 1    
    15    7    8 1    
    16    8    9 1    
    17    8  134 1    
    18    8  135 1    
    19    9   10 ar   
    20    9   14 ar   
    21   10   11 ar   
    22   10  136 1    
    23   11   12 ar   
    24   11  126 1    
    25   12   13 ar   
    26   12  137 1    
    27   13   14 ar   
    28   13   15 1    
    29   14  138 1    
    30   15   16 1    
    31   15  139 1    
    32   15  140 1    
    33   16   17 1    
    34   17   18 1    
    35   17  141 1    
    36   17  142 1    
    37   18   19 1    
    38   18   67 1    
    39   18  143 1    
    40   19   20 am   BACKBONE|DICT|INTERRES
    41   19  144 1    
    42   20   21 2    
    43   20   22 1    
    44   22   23 1    
    45   22   24 1    
    46   22  145 1    
    47   23  146 1    
    48   23  147 1    
    49   23  148 1    
    50   24   25 am   BACKBONE|DICT|INTERRES
    51   24  149 1    
    52   25   26 2    
    53   25   27 1    
    54   27   28 1    
    55   27   29 1    
    56   27  150 1    
    57   28  151 1    
    58   28  152 1    
    59   28  153 1    
    60   29   30 am   BACKBONE|DICT|INTERRES
    61   29  154 1    
    62   30   31 2    
    63   30   32 1    
    64   32   33 1    
    65   32   34 1    
    66   32  155 1    
    67   33  156 1    
    68   33  157 1    
    69   33  158 1    
    70   34   35 am   BACKBONE|DICT|INTERRES
    71   34  159 1    
    72   35   36 2    
    73   35   37 1    
    74   37   38 1    
    75   37   39 1    
    76   37  160 1    
    77   38  161 1    
    78   38  162 1    
    79   38  163 1    
    80   39   40 am   BACKBONE|DICT|INTERRES
    81   39  164 1    
    82   40   41 2    
    83   40   42 1    
    84   42   43 1    
    85   42   44 1    
    86   42  165 1    
    87   43  166 1    
    88   43  167 1    
    89   43  168 1    
    90   44   45 am   BACKBONE|DICT|INTERRES
    91   44  169 1    
    92   45   46 2    
    93   45   47 1    
    94   47   48 1    
    95   47   49 1    
    96   47  170 1    
    97   48  171 1    
    98   48  172 1    
    99   48  173 1    
   100   49   50 am   BACKBONE|DICT|INTERRES
   101   49  174 1    
   102   50   51 2    
   103   50   52 1    
   104   52   53 1    
   105   52   54 1    
   106   52  175 1    
   107   53  176 1    
   108   53  177 1    
   109   53  178 1    
   110   54   55 am   BACKBONE|DICT|INTERRES
   111   54  179 1    
   112   55   56 2    
   113   55   57 1    
   114   57   58 1    
   115   57   59 1    
   116   57  180 1    
   117   58  181 1    
   118   58  182 1    
   119   58  183 1    
   120   59   60 am   BACKBONE|DICT|INTERRES
   121   59  184 1    
   122   60   61 2    
   123   60   62 1    
   124   62   63 1    
   125   62   64 1    
   126   62  185 1    
   127   63  186 1    
   128   63  187 1    
   129   63  188 1    
   130   64   65 am   BACKBONE|DICT|INTERRES
   131   64  189 1    
   132   65   66 2    
   133   67   68 2    
   134   67   69 am   BACKBONE|DICT|INTERRES
   135   69   70 1    
   136   69  190 1    
   137   70   71 1    
   138   70   72 1    
   139   70  191 1    
   140   71  192 1    
   141   71  193 1    
   142   71  194 1    
   143   72   73 2    
   144   72   74 am   BACKBONE|DICT|INTERRES
   145   74   75 1    
   146   74  195 1    
   147   75   76 1    
   148   75   77 1    
   149   75  196 1    
   150   76  197 1    
   151   76  198 1    
   152   76  199 1    
   153   77   78 2    
   154   77   79 am   BACKBONE|DICT|INTERRES
   155   79   80 1    
   156   79  200 1    
   157   80   81 1    
   158   80   82 1    
   159   80  201 1    
   160   81  202 1    
   161   81  203 1    
   162   81  204 1    
   163   82   83 2    
   164   82   84 am   BACKBONE|DICT|INTERRES
   165   84   85 1    
   166   84  205 1    
   167   85   86 1    
   168   85   87 1    
   169   85  206 1    
   170   86  207 1    
   171   86  208 1    
   172   86  209 1    
   173   87   88 2    
   174   87   89 am   BACKBONE|DICT|INTERRES
   175   89   90 1    
   176   89  210 1    
   177   90   91 1    
   178   90   92 1    
   179   90  211 1    
   180   91  212 1    
   181   91  213 1    
   182   91  214 1    
   183   92   93 2    
   184   92   94 am   BACKBONE|DICT|INTERRES
   185   94   95 1    
   186   94  215 1    
   187   95   96 1    
   188   95   97 1    
   189   95  216 1    
   190   96  217 1    
   191   96  218 1    
   192   96  219 1    
   193   97   98 2    
   194   97   99 am   BACKBONE|DICT|INTERRES
   195   99  100 1    
   196   99  220 1    
   197  100  101 1    
   198  100  102 1    
   199  100  221 1    
   200  101  222 1    
   201  101  223 1    
   202  101  224 1    
   203  102  103 2    
   204  102  104 am   BACKBONE|DICT|INTERRES
   205  104  105 1    
   206  104  225 1    
   207  105  106 1    
   208  105  107 1    
   209  105  226 1    
   210  106  227 1    
   211  106  228 1    
   212  106  229 1    
   213  107  108 2    
   214  107  109 am   BACKBONE|DICT|INTERRES
   215  109  110 1    
   216  109  230 1    
   217  110  111 1    
   218  110  112 1    
   219  110  231 1    
   220  111  232 1    
   221  111  233 1    
   222  111  234 1    
   223  112  113 2    
   224  112  114 am   BACKBONE|DICT|INTERRES
   225  114  115 1    
   226  114  235 1    
   227  115  116 1    
   228  115  117 1    
   229  115  236 1    
   230  116  237 1    
   231  116  238 1    
   232  116  239 1    
   233  117  118 2    
   234  117  119 am   BACKBONE|DICT|INTERRES
   235  119  120 1    
   236  119  240 1    
   237  120  121 1    
   238  120  124 1    
   239  120  241 1    
   240  121  122 am   BACKBONE|DICT|INTERRES
   241  121  123 2    
   242  122  242 1    
   243  122  243 1    
   244  124  125 1    
   245  124  244 1    
   246  124  245 1    
   247  125  126 1    
   248  126  246 1    
   249  126  247 1    
@<TRIPOS>SUBSTRUCTURE
     1 UNK         1 GROUP             0       ****    0 ROOT    
