@<TRIPOS>MOLECULE
3R540
247   249    1
SMALL
USER_CHARGES


@<TRIPOS>ATOM
      1 CA         -1.5168   -9.5408  -50.5400 C.3       0 UNK        -0.1800 
      2 C          -1.6273  -10.8630  -49.7936 C.2       0 UNK         0.5000 
      3 O          -0.7874  -11.7433  -49.9806 O.2       0 UNK        -0.5000 
      4 N          -2.6619  -11.0065  -48.9567 N.am      1 UNK        -0.5000 
      5 CA         -2.9082  -12.1780  -48.1118 C.3       1 UNK         0.1400 
      6 C6         -4.3098  -12.1291  -47.4562 C.3       23 UNK        -0.0398 
      7 S7         -5.6429  -12.4272  -48.6640 S.3       23 UNK        -0.2404 
      8 C8         -6.1363  -14.1299  -48.2403 C.3       23 UNK        -0.0205 
      9 C9         -5.0872  -15.1517  -48.6563 C.ar      23 UNK        -0.0193 
     10 C10        -5.1039  -15.6828  -49.9489 C.ar      23 UNK        -0.1150 
     11 C11        -4.1614  -16.6394  -50.3371 C.ar      23 UNK        -0.0193 
     12 C12        -3.1774  -17.0413  -49.4300 C.ar      23 UNK        -0.1150 
     13 C13        -3.1560  -16.5276  -48.1299 C.ar      23 UNK        -0.0193 
     14 C14        -4.1178  -15.5880  -47.7473 C.ar      23 UNK        -0.1150 
     15 C15        -2.1050  -16.9934  -47.1329 C.3       23 UNK        -0.0205 
     16 S16        -2.6227  -18.5070  -46.2689 S.3       23 UNK        -0.2404 
     17 C17        -2.3586  -19.7510  -47.5736 C.3       23 UNK        -0.0398 
     18 CA         -1.9842  -21.1654  -47.0810 C.3       11 UNK         0.1400 
     19 N          -0.6902  -21.2428  -46.3925 N.am      11 UNK        -0.5000 
     20 C          -0.0208  -22.3973  -46.2481 C.2       10 UNK         0.5000 
     21 O          -0.4377  -23.4768  -46.6649 O.2       10 UNK        -0.5000 
     22 CA          1.3101  -22.3692  -45.4817 C.3       10 UNK         0.1400 
     23 CB          2.4247  -21.7465  -46.3351 C.3       10 UNK        -0.1800 
     24 N           1.2092  -21.6871  -44.1939 N.am      10 UNK        -0.5000 
     25 C           0.4234  -22.0849  -43.1826 C.2       9 UNK         0.5000 
     26 O          -0.2977  -23.0824  -43.2261 O.2       9 UNK        -0.5000 
     27 CA          0.4154  -21.2007  -41.9223 C.3       9 UNK         0.1400 
     28 CB          1.6277  -21.5067  -41.0304 C.3       9 UNK        -0.1800 
     29 N           0.3857  -19.7727  -42.2380 N.am      9 UNK        -0.5000 
     30 C          -0.6249  -19.1609  -42.8721 C.2       8 UNK         0.5000 
     31 O          -1.6628  -19.7298  -43.2087 O.2       8 UNK        -0.5000 
     32 CA         -0.4188  -17.6765  -43.2257 C.3       8 UNK         0.1400 
     33 CB         -0.6321  -16.7896  -41.9888 C.3       8 UNK        -0.1800 
     34 N           0.9022  -17.4196  -43.8030 N.am      8 UNK        -0.5000 
     35 C           1.3566  -17.9658  -44.9417 C.2       7 UNK         0.5000 
     36 O           0.6869  -18.6936  -45.6745 O.2       7 UNK        -0.5000 
     37 CA          2.8291  -17.6987  -45.2944 C.3       7 UNK         0.1400 
     38 CB          2.9954  -16.3392  -45.9851 C.3       7 UNK        -0.1800 
     39 N           3.6953  -17.7652  -44.1179 N.am      7 UNK        -0.5000 
     40 C           3.9827  -18.8955  -43.4567 C.2       6 UNK         0.5000 
     41 O           3.5697  -20.0052  -43.7886 O.2       6 UNK        -0.5000 
     42 CA          4.8417  -18.7559  -42.1876 C.3       6 UNK         0.1400 
     43 CB          6.3348  -18.7168  -42.5450 C.3       6 UNK        -0.1800 
     44 N           4.4968  -17.5658  -41.4102 N.am      6 UNK        -0.5000 
     45 C           3.3237  -17.3810  -40.7883 C.2       5 UNK         0.5000 
     46 O           2.4224  -18.2189  -40.7654 O.2       5 UNK        -0.5000 
     47 CA          3.1066  -16.0067  -40.1283 C.3       5 UNK         0.1400 
     48 CB          3.6574  -16.0016  -38.6947 C.3       5 UNK        -0.1800 
     49 N           3.7115  -14.9077  -40.8888 N.am      5 UNK        -0.5000 
     50 C           3.3206  -14.5393  -42.1150 C.2       4 UNK         0.5000 
     51 O           2.4092  -15.0923  -42.7373 O.2       4 UNK        -0.5000 
     52 CA          4.1020  -13.3988  -42.7779 C.3       4 UNK         0.1400 
     53 CB          5.3010  -13.9566  -43.5674 C.3       4 UNK        -0.1800 
     54 N           3.1881  -12.6907  -43.6651 N.am      4 UNK        -0.5000 
     55 C           3.3730  -11.4852  -44.2155 C.2       3 UNK         0.5000 
     56 O           4.3959  -10.8178  -44.0535 O.2       3 UNK        -0.5000 
     57 CA          2.2076  -10.9024  -45.0485 C.3       3 UNK         0.1400 
     58 CB          2.6901  -10.2001  -46.3351 C.3       3 UNK        -0.1800 
     59 N           1.1331  -11.8653  -45.3280 N.am      3 UNK        -0.5000 
     60 C           1.1662  -12.9357  -46.1349 C.2       2 UNK         0.5000 
     61 O           2.1198  -13.2339  -46.8526 O.2       2 UNK        -0.5000 
     62 CA         -0.0659  -13.8606  -46.0992 C.3       2 UNK         0.1400 
     63 CB         -0.6220  -14.0556  -44.6715 C.3       2 UNK        -0.1800 
     64 N          -1.1211  -13.4504  -47.0284 N.am      2 UNK        -0.5000 
     65 C          -1.8199  -12.3067  -47.0285 C.2       1 UNK         0.5000 
     66 O          -1.6686  -11.3934  -46.2141 O.2       1 UNK        -0.5000 
     67 C          -3.1241  -21.8484  -46.2989 C.2       11 UNK         0.5000 
     68 O          -4.0086  -22.4273  -46.9282 O.2       11 UNK        -0.5000 
     69 N          -3.0663  -21.8305  -44.9584 N.am      12 UNK        -0.5000 
     70 CA         -3.9943  -22.5654  -44.0959 C.3       12 UNK         0.1400 
     71 CB         -3.7793  -22.1637  -42.6294 C.3       12 UNK        -0.1800 
     72 C          -3.8798  -24.0921  -44.2702 C.2       12 UNK         0.5000 
     73 O          -4.9037  -24.7757  -44.3011 O.2       12 UNK        -0.5000 
     74 N          -2.6445  -24.5928  -44.4100 N.am      13 UNK        -0.5000 
     75 CA         -2.3510  -25.9985  -44.6852 C.3       13 UNK         0.1400 
     76 CB         -0.8716  -26.2793  -44.3791 C.3       13 UNK        -0.1800 
     77 C          -2.6984  -26.4023  -46.1308 C.2       13 UNK         0.5000 
     78 O          -3.2878  -27.4634  -46.3394 O.2       13 UNK        -0.5000 
     79 N          -2.3224  -25.5565  -47.0999 N.am      14 UNK        -0.5000 
     80 CA         -2.5118  -25.7894  -48.5337 C.3       14 UNK         0.1400 
     81 CB         -1.5806  -24.8530  -49.3133 C.3       14 UNK        -0.1800 
     82 C          -3.9715  -25.6375  -49.0081 C.2       14 UNK         0.5000 
     83 O          -4.3365  -26.2373  -50.0195 O.2       14 UNK        -0.5000 
     84 N          -4.7753  -24.8648  -48.2651 N.am      15 UNK        -0.5000 
     85 CA         -6.2060  -24.6221  -48.4508 C.3       15 UNK         0.1400 
     86 CB         -7.0152  -25.9252  -48.2554 C.3       15 UNK        -0.1800 
     87 C          -6.5112  -23.8603  -49.7583 C.2       15 UNK         0.5000 
     88 O          -5.9693  -22.7703  -49.9541 O.2       15 UNK        -0.5000 
     89 N          -7.4026  -24.4094  -50.5975 N.am      16 UNK        -0.5000 
     90 CA         -7.9404  -23.8095  -51.8223 C.3       16 UNK         0.1400 
     91 CB         -8.8485  -24.8309  -52.5242 C.3       16 UNK        -0.1800 
     92 C          -6.8503  -23.3005  -52.7834 C.2       16 UNK         0.5000 
     93 O          -5.9761  -24.0753  -53.1781 O.2       16 UNK        -0.5000 
     94 N          -6.9063  -21.9957  -53.0946 N.am      17 UNK        -0.5000 
     95 CA         -5.9703  -21.2312  -53.9349 C.3       17 UNK         0.1400 
     96 CB         -6.0609  -21.7088  -55.3984 C.3       17 UNK        -0.1800 
     97 C          -4.5122  -21.2272  -53.4199 C.2       17 UNK         0.5000 
     98 O          -3.5938  -20.9276  -54.1904 O.2       17 UNK        -0.5000 
     99 N          -4.3246  -21.5896  -52.1390 N.am      18 UNK        -0.5000 
    100 CA        -3.0544  -21.9166  -51.4893 C.3       18 UNK         0.1400 
    101 CB        -2.2520  -20.6368  -51.2015 C.3       18 UNK        -0.1800 
    102 C         -2.2726  -22.9886  -52.2778 C.2       18 UNK         0.5000 
    103 O         -1.0706  -22.8389  -52.5113 O.2       18 UNK        -0.5000 
    104 N         -3.0078  -24.0179  -52.7300 N.am      19 UNK        -0.5000 
    105 CA        -2.6382  -25.0890  -53.6605 C.3       19 UNK         0.1400 
    106 CB        -1.5133  -25.9849  -53.1062 C.3       19 UNK        -0.1800 
    107 C         -2.3182  -24.5658  -55.0724 C.2       19 UNK         0.5000 
    108 O         -3.0105  -24.9202  -56.0274 O.2       19 UNK        -0.5000 
    109 N         -1.2868  -23.7237  -55.1694 N.am      20 UNK        -0.5000 
    110 CA        -0.8396  -23.0575  -56.3880 C.3       20 UNK         0.1400 
    111 CB         0.0625  -24.0122  -57.1938 C.3       20 UNK        -0.1800 
    112 C         -0.1313  -21.7183  -56.1056 C.2       20 UNK         0.5000 
    113 O          0.2984  -21.0722  -57.0627 O.2       20 UNK        -0.5000 
    114 N          0.0104  -21.3131  -54.8306 N.am      21 UNK        -0.5000 
    115 CA         0.7163  -20.0833  -54.4560 C.3       21 UNK         0.1400 
    116 CB         1.1051  -20.1250  -52.9716 C.3       21 UNK        -0.1800 
    117 C         -0.0705  -18.8047  -54.8029 C.2       21 UNK         0.5000 
    118 O          0.5521  -17.8060  -55.1680 O.2       21 UNK        -0.5000 
    119 N         -1.4070  -18.8671  -54.7311 N.am      22 UNK        -0.5000 
    120 CA        -2.3060  -17.8608  -55.3200 C.3       22 UNK         0.1400 
    121 C         -2.8766  -18.3595  -56.6741 C.2       22 UNK         0.5000 
    122 N         -3.2532  -19.6280  -56.7914 N.am      22 UNK        -0.7600 
    123 O         -2.9719  -17.5924  -57.6280 O.2       22 UNK        -0.5000 
    124 C124       -3.4654  -17.4527  -54.3789 C.3       23 UNK        -0.0398 
    125 S125       -2.9061  -16.7027  -52.8140 S.3       23 UNK        -0.2404 
    126 C126       -4.2382  -17.2728  -51.7173 C.3       23 UNK        -0.0205 
    127 H127       -1.5429   -9.7139  -51.6158 H         1 UNK         0.0600 
    128 H128       -0.5749   -9.0499  -50.2951 H         1 UNK         0.0600 
    129 H129       -2.3306   -8.8616  -50.2850 H         1 UNK         0.0600 
    130 H130       -3.3137  -10.2438  -48.8423 H         1 UNK         0.3000 
    131 H131       -2.8603  -13.0622  -48.7517 H         1 UNK         0.0600 
    132 H132       -4.3961  -12.8592  -46.6502 H         1 UNK         0.0800 
    133 H133       -4.4787  -11.1587  -46.9860 H         1 UNK         0.0800 
    134 H134       -7.0801  -14.3533  -48.7399 H         1 UNK         0.0800 
    135 H135       -6.3403  -14.2025  -47.1709 H         1 UNK         0.0800 
    136 H136       -5.8636  -15.3612  -50.6476 H         1 UNK         0.1150 
    137 H137       -2.4392  -17.7679  -49.7356 H         1 UNK         0.1150 
    138 H138       -4.1121  -15.2010  -46.7384 H         1 UNK         0.1150 
    139 H139       -1.1442  -17.1497  -47.6257 H         1 UNK         0.0800 
    140 H140       -1.9384  -16.2204  -46.3852 H         1 UNK         0.0800 
    141 H141       -3.2648  -19.7951  -48.1802 H         1 UNK         0.0800 
    142 H142       -1.5690  -19.4020  -48.2395 H         1 UNK         0.0800 
    143 H143       -1.8722  -21.7550  -47.9932 H         1 UNK         0.0600 
    144 H144       -0.3021  -20.3768  -46.0264 H         1 UNK         0.3000 
    145 H145        1.5900  -23.4048  -45.2776 H         1 UNK         0.0600 
    146 H146        3.3904  -21.8176  -45.8350 H         1 UNK         0.0600 
    147 H147        2.5170  -22.2625  -47.2916 H         1 UNK         0.0600 
    148 H148        2.2334  -20.6955  -46.5484 H         1 UNK         0.0600 
    149 H149        1.8138  -20.8830  -44.0593 H         1 UNK         0.3000 
    150 H150       -0.4890  -21.4363  -41.3576 H         1 UNK         0.0600 
    151 H151        1.6595  -22.5639  -40.7640 H         1 UNK         0.0600 
    152 H152        1.5865  -20.9375  -40.1016 H         1 UNK         0.0600 
    153 H153        2.5667  -21.2644  -41.5285 H         1 UNK         0.0600 
    154 H154        1.1875  -19.2224  -41.9455 H         1 UNK         0.3000 
    155 H155       -1.1651  -17.3996  -43.9713 H         1 UNK         0.0600 
    156 H156        0.0745  -17.0252  -41.1938 H         1 UNK         0.0600 
    157 H157       -1.6355  -16.9259  -41.5839 H         1 UNK         0.0600 
    158 H158       -0.5207  -15.7331  -42.2274 H         1 UNK         0.0600 
    159 H159        1.5122  -16.7944  -43.2864 H         1 UNK         0.3000 
    160 H160        3.1494  -18.4716  -45.9960 H         1 UNK         0.0600 
    161 H161        2.7121  -15.5156  -45.3308 H         1 UNK         0.0600 
    162 H162        2.3739  -16.2771  -46.8792 H         1 UNK         0.0600 
    163 H163        4.0272  -16.1780  -46.2972 H         1 UNK         0.0600 
    164 H164        4.0344  -16.8891  -43.7515 H         1 UNK         0.3000 
    165 H165        4.6612  -19.6341  -41.5641 H         1 UNK         0.0600 
    166 H166        6.9542  -18.6926  -41.6482 H         1 UNK         0.0600 
    167 H167        6.6226  -19.6022  -43.1136 H         1 UNK         0.0600 
    168 H168        6.5837  -17.8433  -43.1491 H         1 UNK         0.0600 
    169 H169        5.1833  -16.8272  -41.3733 H         1 UNK         0.3000 
    170 H170        2.0300  -15.8303  -40.0802 H         1 UNK         0.0600 
    171 H171        3.2084  -16.7997  -38.1018 H         1 UNK         0.0600 
    172 H172        4.7382  -16.1471  -38.6763 H         1 UNK         0.0600 
    173 H173        3.4360  -15.0607  -38.1907 H         1 UNK         0.0600 
    174 H174        4.4690  -14.4115  -40.4413 H         1 UNK         0.3000 
    175 H175        4.4527  -12.7118  -42.0051 H         1 UNK         0.0600 
    176 H176        4.9791  -14.6115  -44.3776 H         1 UNK         0.0600 
    177 H177        5.8962  -13.1556  -44.0056 H         1 UNK         0.0600 
    178 H178        5.9648  -14.5322  -42.9212 H         1 UNK         0.0600 
    179 H179        2.3143  -13.1750  -43.8219 H         1 UNK         0.3000 
    180 H180        1.7529  -10.1374  -44.4178 H         1 UNK         0.0600 
    181 H181        3.2572  -10.8724  -46.9790 H         1 UNK         0.0600 
    182 H182        3.3393   -9.3565  -46.0983 H         1 UNK         0.0600 
    183 H183        1.8504   -9.8104  -46.9109 H         1 UNK         0.0600 
    184 H184        0.2627  -11.6897  -44.8427 H         1 UNK         0.3000 
    185 H185        0.2758  -14.8381  -46.4429 H         1 UNK         0.0600 
    186 H186        0.1722  -14.3588  -43.9904 H         1 UNK         0.0600 
    187 H187       -1.0710  -13.1493  -44.2656 H         1 UNK         0.0600 
    188 H188       -1.3824  -14.8344  -44.6425 H         1 UNK         0.0600 
    189 H189       -1.2930  -14.0975  -47.7849 H         1 UNK         0.3000 
    190 H190       -2.3420  -21.2888  -44.4990 H         1 UNK         0.3000 
    191 H191       -5.0092  -22.2768  -44.3773 H         1 UNK         0.0600 
    192 H192       -2.7652  -22.3821  -42.2949 H         1 UNK         0.0600 
    193 H193       -4.4649  -22.7001  -41.9724 H         1 UNK         0.0600 
    194 H194       -3.9576  -21.0982  -42.4837 H         1 UNK         0.0600 
    195 H195       -1.8494  -23.9685  -44.3237 H         1 UNK         0.3000 
    196 H196       -2.9545  -26.6124  -44.0132 H         1 UNK         0.0600 
    197 H197       -0.6262  -27.3262  -44.5614 H         1 UNK         0.0600 
    198 H198       -0.6394  -26.0668  -43.3353 H         1 UNK         0.0600 
    199 H199       -0.2082  -25.6729  -44.9966 H         1 UNK         0.0600 
    200 H200       -1.7824  -24.7320  -46.8457 H         1 UNK         0.3000 
    201 H201       -2.2077  -26.8159  -48.7493 H         1 UNK         0.0600 
    202 H202       -0.5412  -24.9884  -49.0137 H         1 UNK         0.0600 
    203 H203       -1.8406  -23.8067  -49.1588 H         1 UNK         0.0600 
    204 H204       -1.6332  -25.0563  -50.3802 H         1 UNK         0.0600 
    205 H205       -4.3500  -24.3146  -47.5262 H         1 UNK         0.3000 
    206 H206       -6.4926  -23.9443  -47.6454 H         1 UNK         0.0600 
    207 H207       -6.7800  -26.3849  -47.2951 H         1 UNK         0.0600 
    208 H208       -8.0880  -25.7284  -48.2581 H         1 UNK         0.0600 
    209 H209       -6.8078  -26.6630  -49.0312 H         1 UNK         0.0600 
    210 H210       -7.7636  -25.3217  -50.3613 H         1 UNK         0.3000 
    211 H211       -8.5595  -22.9639  -51.5164 H         1 UNK         0.0600 
    212 H212       -8.2982  -25.7294  -52.8069 H         1 UNK         0.0600 
    213 H213       -9.2796  -24.4106  -53.4339 H         1 UNK         0.0600 
    214 H214       -9.6768  -25.1318  -51.8825 H         1 UNK         0.0600 
    215 H215       -7.6530  -21.4484  -52.6888 H         1 UNK         0.3000 
    216 H216       -6.3053  -20.1937  -53.9015 H         1 UNK         0.0600 
    217 H217       -5.5361  -21.0280  -56.0674 H         1 UNK         0.0600 
    218 H218       -7.0961  -21.7534  -55.7367 H         1 UNK         0.0600 
    219 H219       -5.6220  -22.6989  -55.5286 H         1 UNK         0.0600 
    220 H220       -5.1442  -21.8232  -51.5875 H         1 UNK         0.3000 
    221 H221       -3.3034  -22.3698  -50.5289 H         1 UNK         0.0600 
    222 H222       -2.0230  -20.0888  -52.1146 H         1 UNK         0.0600 
    223 H223       -2.8165  -19.9710  -50.5523 H         1 UNK         0.0600 
    224 H224       -1.3150  -20.8645  -50.6927 H         1 UNK         0.0600 
    225 H225       -4.0056  -23.9828  -52.5456 H         1 UNK         0.3000 
    226 H226       -3.5284  -25.7130  -53.7563 H         1 UNK         0.0600 
    227 H227       -1.8355  -26.4986  -52.2008 H         1 UNK         0.0600 
    228 H228       -1.2400  -26.7548  -53.8288 H         1 UNK         0.0600 
    229 H229       -0.6085  -25.4237  -52.8731 H         1 UNK         0.0600 
    230 H230       -0.8140  -23.4780  -54.3063 H         1 UNK         0.3000 
    231 H231       -1.7155  -22.8122  -56.9925 H         1 UNK         0.0600 
    232 H232        0.3972  -23.5503  -58.1235 H         1 UNK         0.0600 
    233 H233       -0.4667  -24.9262  -57.4634 H         1 UNK         0.0600 
    234 H234        0.9506  -24.2939  -56.6270 H         1 UNK         0.0600 
    235 H235       -0.3827  -21.8518  -54.0673 H         1 UNK         0.3000 
    236 H236        1.6472  -20.0491  -55.0266 H         1 UNK         0.0600 
    237 H237        1.7111  -21.0029  -52.7470 H         1 UNK         0.0600 
    238 H238        1.6907  -19.2463  -52.6988 H         1 UNK         0.0600 
    239 H239        0.2338  -20.1475  -52.3234 H         1 UNK         0.0600 
    240 H240       -1.8467  -19.7289  -54.4332 H         1 UNK         0.3000 
    241 H241       -1.7461  -16.9493  -55.5379 H         1 UNK         0.0600 
    242 H242       -3.6139  -19.9544  -57.6734 H         1 UNK         0.3800 
    243 H243       -3.2562  -20.2410  -55.9834 H         1 UNK         0.3800 
    244 H244       -4.1135  -16.7255  -54.8716 H         1 UNK         0.0800 
    245 H245       -4.0943  -18.3157  -54.1610 H         1 UNK         0.0800 
    246 H246       -4.1921  -18.3580  -51.6233 H         1 UNK         0.0800 
    247 H247       -5.2005  -17.0482  -52.1803 H         1 UNK         0.0800 
@<TRIPOS>BOND
     1    1    2 1    
     2    1  127 1    
     3    1  128 1    
     4    1  129 1    
     5    2    3 2    
     6    2    4 am   BACKBONE|DICT|INTERRES
     7    4    5 1    
     8    4  130 1    
     9    5    6 1    
    10    5   65 1    
    11    5  131 1    
    12    6    7 1    
    13    6  132 1    
    14    6  133 1    
    15    7    8 1    
    16    8    9 1    
    17    8  134 1    
    18    8  135 1    
    19    9   10 ar   
    20    9   14 ar   
    21   10   11 ar   
    22   10  136 1    
    23   11   12 ar   
    24   11  126 1    
    25   12   13 ar   
    26   12  137 1    
    27   13   14 ar   
    28   13   15 1    
    29   14  138 1    
    30   15   16 1    
    31   15  139 1    
    32   15  140 1    
    33   16   17 1    
    34   17   18 1    
    35   17  141 1    
    36   17  142 1    
    37   18   19 1    
    38   18   67 1    
    39   18  143 1    
    40   19   20 am   BACKBONE|DICT|INTERRES
    41   19  144 1    
    42   20   21 2    
    43   20   22 1    
    44   22   23 1    
    45   22   24 1    
    46   22  145 1    
    47   23  146 1    
    48   23  147 1    
    49   23  148 1    
    50   24   25 am   BACKBONE|DICT|INTERRES
    51   24  149 1    
    52   25   26 2    
    53   25   27 1    
    54   27   28 1    
    55   27   29 1    
    56   27  150 1    
    57   28  151 1    
    58   28  152 1    
    59   28  153 1    
    60   29   30 am   BACKBONE|DICT|INTERRES
    61   29  154 1    
    62   30   31 2    
    63   30   32 1    
    64   32   33 1    
    65   32   34 1    
    66   32  155 1    
    67   33  156 1    
    68   33  157 1    
    69   33  158 1    
    70   34   35 am   BACKBONE|DICT|INTERRES
    71   34  159 1    
    72   35   36 2    
    73   35   37 1    
    74   37   38 1    
    75   37   39 1    
    76   37  160 1    
    77   38  161 1    
    78   38  162 1    
    79   38  163 1    
    80   39   40 am   BACKBONE|DICT|INTERRES
    81   39  164 1    
    82   40   41 2    
    83   40   42 1    
    84   42   43 1    
    85   42   44 1    
    86   42  165 1    
    87   43  166 1    
    88   43  167 1    
    89   43  168 1    
    90   44   45 am   BACKBONE|DICT|INTERRES
    91   44  169 1    
    92   45   46 2    
    93   45   47 1    
    94   47   48 1    
    95   47   49 1    
    96   47  170 1    
    97   48  171 1    
    98   48  172 1    
    99   48  173 1    
   100   49   50 am   BACKBONE|DICT|INTERRES
   101   49  174 1    
   102   50   51 2    
   103   50   52 1    
   104   52   53 1    
   105   52   54 1    
   106   52  175 1    
   107   53  176 1    
   108   53  177 1    
   109   53  178 1    
   110   54   55 am   BACKBONE|DICT|INTERRES
   111   54  179 1    
   112   55   56 2    
   113   55   57 1    
   114   57   58 1    
   115   57   59 1    
   116   57  180 1    
   117   58  181 1    
   118   58  182 1    
   119   58  183 1    
   120   59   60 am   BACKBONE|DICT|INTERRES
   121   59  184 1    
   122   60   61 2    
   123   60   62 1    
   124   62   63 1    
   125   62   64 1    
   126   62  185 1    
   127   63  186 1    
   128   63  187 1    
   129   63  188 1    
   130   64   65 am   BACKBONE|DICT|INTERRES
   131   64  189 1    
   132   65   66 2    
   133   67   68 2    
   134   67   69 am   BACKBONE|DICT|INTERRES
   135   69   70 1    
   136   69  190 1    
   137   70   71 1    
   138   70   72 1    
   139   70  191 1    
   140   71  192 1    
   141   71  193 1    
   142   71  194 1    
   143   72   73 2    
   144   72   74 am   BACKBONE|DICT|INTERRES
   145   74   75 1    
   146   74  195 1    
   147   75   76 1    
   148   75   77 1    
   149   75  196 1    
   150   76  197 1    
   151   76  198 1    
   152   76  199 1    
   153   77   78 2    
   154   77   79 am   BACKBONE|DICT|INTERRES
   155   79   80 1    
   156   79  200 1    
   157   80   81 1    
   158   80   82 1    
   159   80  201 1    
   160   81  202 1    
   161   81  203 1    
   162   81  204 1    
   163   82   83 2    
   164   82   84 am   BACKBONE|DICT|INTERRES
   165   84   85 1    
   166   84  205 1    
   167   85   86 1    
   168   85   87 1    
   169   85  206 1    
   170   86  207 1    
   171   86  208 1    
   172   86  209 1    
   173   87   88 2    
   174   87   89 am   BACKBONE|DICT|INTERRES
   175   89   90 1    
   176   89  210 1    
   177   90   91 1    
   178   90   92 1    
   179   90  211 1    
   180   91  212 1    
   181   91  213 1    
   182   91  214 1    
   183   92   93 2    
   184   92   94 am   BACKBONE|DICT|INTERRES
   185   94   95 1    
   186   94  215 1    
   187   95   96 1    
   188   95   97 1    
   189   95  216 1    
   190   96  217 1    
   191   96  218 1    
   192   96  219 1    
   193   97   98 2    
   194   97   99 am   BACKBONE|DICT|INTERRES
   195   99  100 1    
   196   99  220 1    
   197  100  101 1    
   198  100  102 1    
   199  100  221 1    
   200  101  222 1    
   201  101  223 1    
   202  101  224 1    
   203  102  103 2    
   204  102  104 am   BACKBONE|DICT|INTERRES
   205  104  105 1    
   206  104  225 1    
   207  105  106 1    
   208  105  107 1    
   209  105  226 1    
   210  106  227 1    
   211  106  228 1    
   212  106  229 1    
   213  107  108 2    
   214  107  109 am   BACKBONE|DICT|INTERRES
   215  109  110 1    
   216  109  230 1    
   217  110  111 1    
   218  110  112 1    
   219  110  231 1    
   220  111  232 1    
   221  111  233 1    
   222  111  234 1    
   223  112  113 2    
   224  112  114 am   BACKBONE|DICT|INTERRES
   225  114  115 1    
   226  114  235 1    
   227  115  116 1    
   228  115  117 1    
   229  115  236 1    
   230  116  237 1    
   231  116  238 1    
   232  116  239 1    
   233  117  118 2    
   234  117  119 am   BACKBONE|DICT|INTERRES
   235  119  120 1    
   236  119  240 1    
   237  120  121 1    
   238  120  124 1    
   239  120  241 1    
   240  121  122 am   BACKBONE|DICT|INTERRES
   241  121  123 2    
   242  122  242 1    
   243  122  243 1    
   244  124  125 1    
   245  124  244 1    
   246  124  245 1    
   247  125  126 1    
   248  126  246 1    
   249  126  247 1    
@<TRIPOS>SUBSTRUCTURE
     1 UNK         1 GROUP             0       ****    0 ROOT    
