@<TRIPOS>MOLECULE
3R540
247   249    1
SMALL
USER_CHARGES


@<TRIPOS>ATOM
      1 CA          2.1581   -8.7631  -45.7383 C.3       0 UNK        -0.1800 
      2 C           2.4103  -10.2620  -45.7971 C.2       0 UNK         0.5000 
      3 O           2.4727  -10.9110  -44.7529 O.2       0 UNK        -0.5000 
      4 N           2.5710  -10.8130  -47.0090 N.am      1 UNK        -0.5000 
      5 CA          2.8079  -12.2293  -47.3308 C.3       1 UNK         0.1400 
      6 C6          1.6810  -13.1603  -46.8063 C.3       23 UNK        -0.0398 
      7 S7          1.7502  -14.8601  -47.4599 S.3       23 UNK        -0.2404 
      8 C8          0.9814  -14.6575  -49.0979 C.3       23 UNK        -0.0205 
      9 C9          0.5043  -15.9866  -49.6675 C.ar      23 UNK        -0.0193 
     10 C10        -0.8315  -16.1486  -50.0452 C.ar      23 UNK        -0.1150 
     11 C11        -1.2813  -17.3652  -50.5637 C.ar      23 UNK        -0.0193 
     12 C12        -0.3806  -18.4224  -50.7170 C.ar      23 UNK        -0.1150 
     13 C13         0.9552  -18.2838  -50.3248 C.ar      23 UNK        -0.0193 
     14 C14         1.3918  -17.0573  -49.8159 C.ar      23 UNK        -0.1150 
     15 C15         1.9394  -19.4447  -50.4419 C.3       23 UNK        -0.0205 
     16 S16         1.2938  -21.0374  -49.8239 S.3       23 UNK        -0.2404 
     17 C17         0.6879  -20.5883  -48.1619 C.3       23 UNK        -0.0398 
     18 CA          0.2633  -21.8101  -47.3116 C.3       11 UNK         0.1400 
     19 N           0.0724  -21.4435  -45.9073 N.am      11 UNK        -0.5000 
     20 C          -0.0961  -22.3148  -44.9029 C.2       10 UNK         0.5000 
     21 O          -0.0266  -23.5365  -45.0371 O.2       10 UNK        -0.5000 
     22 CA         -0.4346  -21.7232  -43.5216 C.3       10 UNK         0.1400 
     23 CB          0.8458  -21.3162  -42.7776 C.3       10 UNK        -0.1800 
     24 N          -1.3473  -20.5794  -43.5964 N.am      10 UNK        -0.5000 
     25 C          -2.6067  -20.6405  -44.0539 C.2       9 UNK         0.5000 
     26 O          -3.1453  -21.6801  -44.4280 O.2       9 UNK        -0.5000 
     27 CA         -3.3791  -19.3141  -44.1687 C.3       9 UNK         0.1400 
     28 CB         -3.9090  -18.8619  -42.8004 C.3       9 UNK        -0.1800 
     29 N          -2.5736  -18.2499  -44.7646 N.am      9 UNK        -0.5000 
     30 C          -2.0678  -18.2807  -46.0061 C.2       8 UNK         0.5000 
     31 O          -2.2700  -19.1912  -46.8094 O.2       8 UNK        -0.5000 
     32 CA         -1.1301  -17.1247  -46.3868 C.3       8 UNK         0.1400 
     33 CB         -1.9353  -15.8816  -46.7982 C.3       8 UNK        -0.1800 
     34 N          -0.2191  -16.7938  -45.2899 N.am      8 UNK        -0.5000 
     35 C           0.7709  -17.5926  -44.8653 C.2       7 UNK         0.5000 
     36 O           1.0404  -18.6779  -45.3801 O.2       7 UNK        -0.5000 
     37 CA          1.5546  -17.1278  -43.6235 C.3       7 UNK         0.1400 
     38 CB          2.6821  -16.1613  -44.0124 C.3       7 UNK        -0.1800 
     39 N           0.6914  -16.4953  -42.6249 N.am      7 UNK        -0.5000 
     40 C          -0.2289  -17.1550  -41.9037 C.2       6 UNK         0.5000 
     41 O          -0.3986  -18.3713  -41.9716 O.2       6 UNK        -0.5000 
     42 CA         -1.1514  -16.3185  -40.9928 C.3       6 UNK         0.1400 
     43 CB         -0.5429  -16.1853  -39.5893 C.3       6 UNK        -0.1800 
     44 N          -1.4262  -14.9834  -41.5234 N.am      6 UNK        -0.5000 
     45 C          -1.9857  -14.7260  -42.7136 C.2       5 UNK         0.5000 
     46 O          -2.4653  -15.6010  -43.4342 O.2       5 UNK        -0.5000 
     47 CA         -1.9535  -13.2654  -43.2134 C.3       5 UNK         0.1400 
     48 CB         -3.3626  -12.6556  -43.1764 C.3       5 UNK        -0.1800 
     49 N          -1.0325  -12.3830  -42.4838 N.am      5 UNK        -0.5000 
     50 C           0.2951  -12.5390  -42.3822 C.2       4 UNK         0.5000 
     51 O           0.9173  -13.4793  -42.8874 O.2       4 UNK        -0.5000 
     52 CA          1.0299  -11.5107  -41.5098 C.3       4 UNK         0.1400 
     53 CB          0.6315  -11.6564  -40.0276 C.3       4 UNK        -0.1800 
     54 N           2.4653  -11.7134  -41.6555 N.am      4 UNK        -0.5000 
     55 C           3.4148  -10.8075  -41.3936 C.2       3 UNK         0.5000 
     56 O           3.1882   -9.6809  -40.9503 O.2       3 UNK        -0.5000 
     57 CA          4.8594  -11.2256  -41.6995 C.3       3 UNK         0.1400 
     58 CB          5.4247  -12.1036  -40.5662 C.3       3 UNK        -0.1800 
     59 N           4.9170  -11.9236  -42.9826 N.am      3 UNK        -0.5000 
     60 C           6.0281  -12.1449  -43.6975 C.2       2 UNK         0.5000 
     61 O           7.1538  -11.7978  -43.3381 O.2       2 UNK        -0.5000 
     62 CA          5.8583  -12.8588  -45.0478 C.3       2 UNK         0.1400 
     63 CB          6.0150  -14.3812  -44.8769 C.3       2 UNK        -0.1800 
     64 N           4.5662  -12.5361  -45.6501 N.am      2 UNK        -0.5000 
     65 C           4.2232  -12.7053  -46.9289 C.2       1 UNK         0.5000 
     66 O           4.9744  -13.1789  -47.7829 O.2       1 UNK        -0.5000 
     67 C          -0.9846  -22.5259  -47.8775 C.2       11 UNK         0.5000 
     68 O          -0.8526  -23.5957  -48.4715 O.2       11 UNK        -0.5000 
     69 N          -2.1781  -21.9595  -47.6441 N.am      12 UNK        -0.5000 
     70 CA         -3.4608  -22.5416  -48.0492 C.3       12 UNK         0.1400 
     71 CB         -4.5873  -21.5294  -47.8002 C.3       12 UNK        -0.1800 
     72 C          -3.7591  -23.8873  -47.3601 C.2       12 UNK         0.5000 
     73 O          -4.2497  -24.8086  -48.0137 O.2       12 UNK        -0.5000 
     74 N          -3.4069  -23.9993  -46.0712 N.am      13 UNK        -0.5000 
     75 CA         -3.5468  -25.2055  -45.2495 C.3       13 UNK         0.1400 
     76 CB         -3.2331  -24.8652  -43.7846 C.3       13 UNK        -0.1800 
     77 C          -2.6970  -26.4044  -45.7185 C.2       13 UNK         0.5000 
     78 O          -3.0017  -27.5351  -45.3367 O.2       13 UNK        -0.5000 
     79 N          -1.6778  -26.1613  -46.5568 N.am      14 UNK        -0.5000 
     80 CA         -0.8958  -27.2025  -47.2302 C.3       14 UNK         0.1400 
     81 CB          0.4093  -26.5941  -47.7666 C.3       14 UNK        -0.1800 
     82 C          -1.6748  -27.9085  -48.3625 C.2       14 UNK         0.5000 
     83 O          -1.2166  -28.9447  -48.8448 O.2       14 UNK        -0.5000 
     84 N          -2.8277  -27.3450  -48.7609 N.am      15 UNK        -0.5000 
     85 CA         -3.7796  -27.8510  -49.7549 C.3       15 UNK         0.1400 
     86 CB         -4.3627  -29.2139  -49.3259 C.3       15 UNK        -0.1800 
     87 C          -3.2392  -27.8530  -51.1993 C.2       15 UNK         0.5000 
     88 O          -3.7418  -28.5996  -52.0415 O.2       15 UNK        -0.5000 
     89 N          -2.2504  -26.9925  -51.4772 N.am      16 UNK        -0.5000 
     90 CA         -1.7794  -26.6872  -52.8258 C.3       16 UNK         0.1400 
     91 CB         -0.4438  -25.9333  -52.7346 C.3       16 UNK        -0.1800 
     92 C          -2.8342  -25.8343  -53.5470 C.2       16 UNK         0.5000 
     93 O          -3.2822  -24.8378  -52.9772 O.2       16 UNK        -0.5000 
     94 N          -3.2119  -26.2202  -54.7728 N.am      17 UNK        -0.5000 
     95 CA         -4.2964  -25.6018  -55.5468 C.3       17 UNK         0.1400 
     96 CB         -4.4523  -26.3377  -56.8859 C.3       17 UNK        -0.1800 
     97 C          -4.1206  -24.0893  -55.7777 C.2       17 UNK         0.5000 
     98 O          -5.0892  -23.3384  -55.6690 O.2       17 UNK        -0.5000 
     99 N          -2.8736  -23.6698  -56.0269 N.am      18 UNK        -0.5000 
    100 CA        -2.4805  -22.2726  -56.2159 C.3       18 UNK         0.1400 
    101 CB        -1.0523  -22.2365  -56.7820 C.3       18 UNK        -0.1800 
    102 C         -2.5745  -21.4124  -54.9388 C.2       18 UNK         0.5000 
    103 O         -2.6026  -20.1878  -55.0513 O.2       18 UNK        -0.5000 
    104 N         -2.6070  -22.0512  -53.7616 N.am      19 UNK        -0.5000 
    105 CA        -2.7541  -21.3949  -52.4646 C.3       19 UNK         0.1400 
    106 CB        -1.7717  -22.0267  -51.4716 C.3       19 UNK        -0.1800 
    107 C         -4.1951  -21.5105  -51.9440 C.2       19 UNK         0.5000 
    108 O         -4.7019  -20.5602  -51.3510 O.2       19 UNK        -0.5000 
    109 N         -4.8394  -22.6614  -52.1814 N.am      20 UNK        -0.5000 
    110 CA        -6.2364  -22.9252  -51.8366 C.3       20 UNK         0.1400 
    111 CB        -6.5396  -24.4145  -52.0584 C.3       20 UNK        -0.1800 
    112 C         -7.2134  -22.0370  -52.6300 C.2       20 UNK         0.5000 
    113 O         -8.1813  -21.5360  -52.0571 O.2       20 UNK        -0.5000 
    114 N         -6.9128  -21.8219  -53.9165 N.am      21 UNK        -0.5000 
    115 CA        -7.5821  -20.8702  -54.7969 C.3       21 UNK         0.1400 
    116 CB        -8.1042  -21.6134  -56.0402 C.3       21 UNK        -0.1800 
    117 C         -6.5812  -19.7525  -55.1365 C.2       21 UNK         0.5000 
    118 O         -6.1672  -19.6152  -56.2892 O.2       21 UNK        -0.5000 
    119 N         -6.1753  -19.0057  -54.1008 N.am      22 UNK        -0.5000 
    120 CA        -5.2180  -17.8902  -54.1752 C.3       22 UNK         0.1400 
    121 C         -5.6746  -16.7345  -55.1121 C.2       22 UNK         0.5000 
    122 N         -4.7519  -16.1004  -55.8226 N.am      22 UNK        -0.7600 
    123 O         -6.8507  -16.3807  -55.1661 O.2       22 UNK        -0.5000 
    124 C124       -4.8675  -17.3520  -52.7598 C.3       23 UNK        -0.0398 
    125 S125       -3.0995  -16.9256  -52.6012 S.3       23 UNK        -0.2404 
    126 C126       -2.7453  -17.5448  -50.9281 C.3       23 UNK        -0.0205 
    127 H127        2.1393   -8.3148  -46.7319 H         1 UNK         0.0600 
    128 H128        2.9410   -8.2750  -45.1581 H         1 UNK         0.0600 
    129 H129        1.2011   -8.5643  -45.2561 H         1 UNK         0.0600 
    130 H130        2.5405  -10.2036  -47.8149 H         1 UNK         0.3000 
    131 H131        2.7734  -12.2712  -48.4206 H         1 UNK         0.0600 
    132 H132        0.7055  -12.7373  -47.0490 H         1 UNK         0.0800 
    133 H133        1.7062  -13.2241  -45.7177 H         1 UNK         0.0800 
    134 H134        0.1477  -13.9579  -49.0228 H         1 UNK         0.0800 
    135 H135        1.7032  -14.2117  -49.7832 H         1 UNK         0.0800 
    136 H136       -1.5282  -15.3301  -49.9302 H         1 UNK         0.1150 
    137 H137       -0.7234  -19.3630  -51.1209 H         1 UNK         0.1150 
    138 H138        2.4237  -16.9352  -49.5178 H         1 UNK         0.1150 
    139 H139        2.2181  -19.5621  -51.4897 H         1 UNK         0.0800 
    140 H140        2.8602  -19.2197  -49.9015 H         1 UNK         0.0800 
    141 H141       -0.1362  -19.8807  -48.2564 H         1 UNK         0.0800 
    142 H142        1.4921  -20.0505  -47.6579 H         1 UNK         0.0800 
    143 H143        1.0850  -22.5293  -47.3366 H         1 UNK         0.0600 
    144 H144        0.0616  -20.4513  -45.6962 H         1 UNK         0.3000 
    145 H145       -0.9292  -22.5033  -42.9398 H         1 UNK         0.0600 
    146 H146        0.6230  -20.9817  -41.7643 H         1 UNK         0.0600 
    147 H147        1.5358  -22.1571  -42.6978 H         1 UNK         0.0600 
    148 H148        1.3693  -20.5083  -43.2892 H         1 UNK         0.0600 
    149 H149       -0.9921  -19.6934  -43.2485 H         1 UNK         0.3000 
    150 H150       -4.2358  -19.4835  -44.8242 H         1 UNK         0.0600 
    151 H151       -4.5780  -19.6117  -42.3766 H         1 UNK         0.0600 
    152 H152       -4.4710  -17.9312  -42.8817 H         1 UNK         0.0600 
    153 H153       -3.1016  -18.7045  -42.0862 H         1 UNK         0.0600 
    154 H154       -2.3917  -17.4325  -44.1902 H         1 UNK         0.3000 
    155 H155       -0.5307  -17.4428  -47.2425 H         1 UNK         0.0600 
    156 H156       -2.5879  -15.5296  -46.0005 H         1 UNK         0.0600 
    157 H157       -2.5694  -16.1017  -47.6574 H         1 UNK         0.0600 
    158 H158       -1.2797  -15.0585  -47.0797 H         1 UNK         0.0600 
    159 H159       -0.4046  -15.9407  -44.7850 H         1 UNK         0.3000 
    160 H160        2.0101  -18.0104  -43.1698 H         1 UNK         0.0600 
    161 H161        2.2929  -15.2392  -44.4430 H         1 UNK         0.0600 
    162 H162        3.3470  -16.6117  -44.7505 H         1 UNK         0.0600 
    163 H163        3.2866  -15.8953  -43.1454 H         1 UNK         0.0600 
    164 H164        0.7566  -15.4858  -42.5438 H         1 UNK         0.3000 
    165 H165       -2.1035  -16.8451  -40.9071 H         1 UNK         0.0600 
    166 H166       -1.2200  -15.6631  -38.9131 H         1 UNK         0.0600 
    167 H167       -0.3446  -17.1664  -39.1555 H         1 UNK         0.0600 
    168 H168        0.4006  -15.6381  -39.6098 H         1 UNK         0.0600 
    169 H169       -1.0636  -14.2044  -40.9955 H         1 UNK         0.3000 
    170 H170       -1.6219  -13.2959  -44.2533 H         1 UNK         0.0600 
    171 H171       -4.0693  -13.2673  -43.7392 H         1 UNK         0.0600 
    172 H172       -3.7386  -12.5747  -42.1558 H         1 UNK         0.0600 
    173 H173       -3.3741  -11.6599  -43.6201 H         1 UNK         0.0600 
    174 H174       -1.4590  -11.5927  -42.0217 H         1 UNK         0.3000 
    175 H175        0.7690  -10.5136  -41.8708 H         1 UNK         0.0600 
    176 H176        0.8735  -12.6484  -39.6438 H         1 UNK         0.0600 
    177 H177        1.1464  -10.9251  -39.4045 H         1 UNK         0.0600 
    178 H178       -0.4378  -11.4987  -39.8839 H         1 UNK         0.0600 
    179 H179        2.7054  -12.6195  -42.0351 H         1 UNK         0.3000 
    180 H180        5.4569  -10.3143  -41.7720 H         1 UNK         0.0600 
    181 H181        6.4831  -12.3167  -40.7150 H         1 UNK         0.0600 
    182 H182        4.8989  -13.0564  -40.4958 H         1 UNK         0.0600 
    183 H183        5.3305  -11.6034  -39.6015 H         1 UNK         0.0600 
    184 H184        4.0207  -12.1840  -43.3676 H         1 UNK         0.3000 
    185 H185        6.6465  -12.4951  -45.7102 H         1 UNK         0.0600 
    186 H186        5.9603  -14.9014  -45.8331 H         1 UNK         0.0600 
    187 H187        6.9800  -14.6257  -44.4314 H         1 UNK         0.0600 
    188 H188        5.2415  -14.7907  -44.2279 H         1 UNK         0.0600 
    189 H189        3.9013  -12.0257  -45.0752 H         1 UNK         0.3000 
    190 H190       -2.2146  -21.0579  -47.1743 H         1 UNK         0.3000 
    191 H191       -3.4162  -22.7334  -49.1224 H         1 UNK         0.0600 
    192 H192       -5.5500  -21.9298  -48.1201 H         1 UNK         0.0600 
    193 H193       -4.4172  -20.6088  -48.3593 H         1 UNK         0.0600 
    194 H194       -4.6701  -21.2698  -46.7445 H         1 UNK         0.0600 
    195 H195       -3.0677  -23.1695  -45.5907 H         1 UNK         0.3000 
    196 H196       -4.5917  -25.5169  -45.3058 H         1 UNK         0.0600 
    197 H197       -2.2092  -24.5116  -43.6663 H         1 UNK         0.0600 
    198 H198       -3.9027  -24.0929  -43.4060 H         1 UNK         0.0600 
    199 H199       -3.3544  -25.7390  -43.1432 H         1 UNK         0.0600 
    200 H200       -1.4778  -25.2038  -46.8171 H         1 UNK         0.3000 
    201 H201       -0.6331  -27.9613  -46.4902 H         1 UNK         0.0600 
    202 H202        0.2285  -25.9291  -48.6108 H         1 UNK         0.0600 
    203 H203        1.0864  -27.3759  -48.1127 H         1 UNK         0.0600 
    204 H204        0.9323  -26.0275  -46.9957 H         1 UNK         0.0600 
    205 H205       -3.1088  -26.4761  -48.3178 H         1 UNK         0.3000 
    206 H206       -4.6036  -27.1360  -49.7560 H         1 UNK         0.0600 
    207 H207       -4.7420  -29.1762  -48.3046 H         1 UNK         0.0600 
    208 H208       -5.1950  -29.5032  -49.9684 H         1 UNK         0.0600 
    209 H209       -3.6192  -30.0094  -49.3795 H         1 UNK         0.0600 
    210 H210       -1.9222  -26.3910  -50.7364 H         1 UNK         0.3000 
    211 H211       -1.6222  -27.6199  -53.3717 H         1 UNK         0.0600 
    212 H212       -0.0611  -25.6952  -53.7278 H         1 UNK         0.0600 
    213 H213        0.3130  -26.5338  -52.2296 H         1 UNK         0.0600 
    214 H214       -0.5443  -24.9945  -52.1877 H         1 UNK         0.0600 
    215 H215       -2.7931  -27.0473  -55.1736 H         1 UNK         0.3000 
    216 H216       -5.2185  -25.7380  -54.9787 H         1 UNK         0.0600 
    217 H217       -3.5437  -26.2793  -57.4865 H         1 UNK         0.0600 
    218 H218       -5.2640  -25.9087  -57.4752 H         1 UNK         0.0600 
    219 H219       -4.6868  -27.3912  -56.7323 H         1 UNK         0.0600 
    220 H220       -2.1380  -24.3592  -56.0779 H         1 UNK         0.3000 
    221 H221       -3.1531  -21.8295  -56.9536 H         1 UNK         0.0600 
    222 H222       -0.9884  -22.7740  -57.7283 H         1 UNK         0.0600 
    223 H223       -0.3352  -22.6824  -56.0915 H         1 UNK         0.0600 
    224 H224       -0.7318  -21.2110  -56.9708 H         1 UNK         0.0600 
    225 H225       -2.6162  -23.0639  -53.7537 H         1 UNK         0.3000 
    226 H226       -2.5120  -20.3337  -52.5496 H         1 UNK         0.0600 
    227 H227       -2.0113  -23.0697  -51.2614 H         1 UNK         0.0600 
    228 H228       -0.7508  -21.9895  -51.8509 H         1 UNK         0.0600 
    229 H229       -1.7872  -21.4866  -50.5255 H         1 UNK         0.0600 
    230 H230       -4.3259  -23.4311  -52.6050 H         1 UNK         0.3000 
    231 H231       -6.3672  -22.7039  -50.7752 H         1 UNK         0.0600 
    232 H232       -6.4111  -24.6987  -53.1031 H         1 UNK         0.0600 
    233 H233       -7.5663  -24.6505  -51.7761 H         1 UNK         0.0600 
    234 H234       -5.8825  -25.0439  -51.4574 H         1 UNK         0.0600 
    235 H235       -6.1035  -22.2866  -54.3187 H         1 UNK         0.3000 
    236 H236       -8.4358  -20.4054  -54.2995 H         1 UNK         0.0600 
    237 H237       -8.8136  -22.3927  -55.7618 H         1 UNK         0.0600 
    238 H238       -8.6198  -20.9291  -56.7149 H         1 UNK         0.0600 
    239 H239       -7.2965  -22.0834  -56.6020 H         1 UNK         0.0600 
    240 H240       -6.5562  -19.2059  -53.1876 H         1 UNK         0.3000 
    241 H241       -4.3189  -18.3224  -54.6149 H         1 UNK         0.0600 
    242 H242       -5.0288  -15.3392  -56.4230 H         1 UNK         0.3800 
    243 H243       -3.7791  -16.3617  -55.7692 H         1 UNK         0.3800 
    244 H244       -5.1002  -18.0995  -52.0022 H         1 UNK         0.0800 
    245 H245       -5.4705  -16.4825  -52.4907 H         1 UNK         0.0800 
    246 H246       -3.3728  -17.0189  -50.2069 H         1 UNK         0.0800 
    247 H247       -3.0162  -18.5980  -50.8569 H         1 UNK         0.0800 
@<TRIPOS>BOND
     1    1    2 1    
     2    1  127 1    
     3    1  128 1    
     4    1  129 1    
     5    2    3 2    
     6    2    4 am   BACKBONE|DICT|INTERRES
     7    4    5 1    
     8    4  130 1    
     9    5    6 1    
    10    5   65 1    
    11    5  131 1    
    12    6    7 1    
    13    6  132 1    
    14    6  133 1    
    15    7    8 1    
    16    8    9 1    
    17    8  134 1    
    18    8  135 1    
    19    9   10 ar   
    20    9   14 ar   
    21   10   11 ar   
    22   10  136 1    
    23   11   12 ar   
    24   11  126 1    
    25   12   13 ar   
    26   12  137 1    
    27   13   14 ar   
    28   13   15 1    
    29   14  138 1    
    30   15   16 1    
    31   15  139 1    
    32   15  140 1    
    33   16   17 1    
    34   17   18 1    
    35   17  141 1    
    36   17  142 1    
    37   18   19 1    
    38   18   67 1    
    39   18  143 1    
    40   19   20 am   BACKBONE|DICT|INTERRES
    41   19  144 1    
    42   20   21 2    
    43   20   22 1    
    44   22   23 1    
    45   22   24 1    
    46   22  145 1    
    47   23  146 1    
    48   23  147 1    
    49   23  148 1    
    50   24   25 am   BACKBONE|DICT|INTERRES
    51   24  149 1    
    52   25   26 2    
    53   25   27 1    
    54   27   28 1    
    55   27   29 1    
    56   27  150 1    
    57   28  151 1    
    58   28  152 1    
    59   28  153 1    
    60   29   30 am   BACKBONE|DICT|INTERRES
    61   29  154 1    
    62   30   31 2    
    63   30   32 1    
    64   32   33 1    
    65   32   34 1    
    66   32  155 1    
    67   33  156 1    
    68   33  157 1    
    69   33  158 1    
    70   34   35 am   BACKBONE|DICT|INTERRES
    71   34  159 1    
    72   35   36 2    
    73   35   37 1    
    74   37   38 1    
    75   37   39 1    
    76   37  160 1    
    77   38  161 1    
    78   38  162 1    
    79   38  163 1    
    80   39   40 am   BACKBONE|DICT|INTERRES
    81   39  164 1    
    82   40   41 2    
    83   40   42 1    
    84   42   43 1    
    85   42   44 1    
    86   42  165 1    
    87   43  166 1    
    88   43  167 1    
    89   43  168 1    
    90   44   45 am   BACKBONE|DICT|INTERRES
    91   44  169 1    
    92   45   46 2    
    93   45   47 1    
    94   47   48 1    
    95   47   49 1    
    96   47  170 1    
    97   48  171 1    
    98   48  172 1    
    99   48  173 1    
   100   49   50 am   BACKBONE|DICT|INTERRES
   101   49  174 1    
   102   50   51 2    
   103   50   52 1    
   104   52   53 1    
   105   52   54 1    
   106   52  175 1    
   107   53  176 1    
   108   53  177 1    
   109   53  178 1    
   110   54   55 am   BACKBONE|DICT|INTERRES
   111   54  179 1    
   112   55   56 2    
   113   55   57 1    
   114   57   58 1    
   115   57   59 1    
   116   57  180 1    
   117   58  181 1    
   118   58  182 1    
   119   58  183 1    
   120   59   60 am   BACKBONE|DICT|INTERRES
   121   59  184 1    
   122   60   61 2    
   123   60   62 1    
   124   62   63 1    
   125   62   64 1    
   126   62  185 1    
   127   63  186 1    
   128   63  187 1    
   129   63  188 1    
   130   64   65 am   BACKBONE|DICT|INTERRES
   131   64  189 1    
   132   65   66 2    
   133   67   68 2    
   134   67   69 am   BACKBONE|DICT|INTERRES
   135   69   70 1    
   136   69  190 1    
   137   70   71 1    
   138   70   72 1    
   139   70  191 1    
   140   71  192 1    
   141   71  193 1    
   142   71  194 1    
   143   72   73 2    
   144   72   74 am   BACKBONE|DICT|INTERRES
   145   74   75 1    
   146   74  195 1    
   147   75   76 1    
   148   75   77 1    
   149   75  196 1    
   150   76  197 1    
   151   76  198 1    
   152   76  199 1    
   153   77   78 2    
   154   77   79 am   BACKBONE|DICT|INTERRES
   155   79   80 1    
   156   79  200 1    
   157   80   81 1    
   158   80   82 1    
   159   80  201 1    
   160   81  202 1    
   161   81  203 1    
   162   81  204 1    
   163   82   83 2    
   164   82   84 am   BACKBONE|DICT|INTERRES
   165   84   85 1    
   166   84  205 1    
   167   85   86 1    
   168   85   87 1    
   169   85  206 1    
   170   86  207 1    
   171   86  208 1    
   172   86  209 1    
   173   87   88 2    
   174   87   89 am   BACKBONE|DICT|INTERRES
   175   89   90 1    
   176   89  210 1    
   177   90   91 1    
   178   90   92 1    
   179   90  211 1    
   180   91  212 1    
   181   91  213 1    
   182   91  214 1    
   183   92   93 2    
   184   92   94 am   BACKBONE|DICT|INTERRES
   185   94   95 1    
   186   94  215 1    
   187   95   96 1    
   188   95   97 1    
   189   95  216 1    
   190   96  217 1    
   191   96  218 1    
   192   96  219 1    
   193   97   98 2    
   194   97   99 am   BACKBONE|DICT|INTERRES
   195   99  100 1    
   196   99  220 1    
   197  100  101 1    
   198  100  102 1    
   199  100  221 1    
   200  101  222 1    
   201  101  223 1    
   202  101  224 1    
   203  102  103 2    
   204  102  104 am   BACKBONE|DICT|INTERRES
   205  104  105 1    
   206  104  225 1    
   207  105  106 1    
   208  105  107 1    
   209  105  226 1    
   210  106  227 1    
   211  106  228 1    
   212  106  229 1    
   213  107  108 2    
   214  107  109 am   BACKBONE|DICT|INTERRES
   215  109  110 1    
   216  109  230 1    
   217  110  111 1    
   218  110  112 1    
   219  110  231 1    
   220  111  232 1    
   221  111  233 1    
   222  111  234 1    
   223  112  113 2    
   224  112  114 am   BACKBONE|DICT|INTERRES
   225  114  115 1    
   226  114  235 1    
   227  115  116 1    
   228  115  117 1    
   229  115  236 1    
   230  116  237 1    
   231  116  238 1    
   232  116  239 1    
   233  117  118 2    
   234  117  119 am   BACKBONE|DICT|INTERRES
   235  119  120 1    
   236  119  240 1    
   237  120  121 1    
   238  120  124 1    
   239  120  241 1    
   240  121  122 am   BACKBONE|DICT|INTERRES
   241  121  123 2    
   242  122  242 1    
   243  122  243 1    
   244  124  125 1    
   245  124  244 1    
   246  124  245 1    
   247  125  126 1    
   248  126  246 1    
   249  126  247 1    
@<TRIPOS>SUBSTRUCTURE
     1 UNK         1 GROUP             0       ****    0 ROOT    
