@<TRIPOS>MOLECULE
3R540
247   249    1
SMALL
USER_CHARGES


@<TRIPOS>ATOM
      1 CA          0.2400  -13.8965  -51.3861 C.3       0 UNK        -0.1800 
      2 C           0.2543  -12.4020  -51.0720 C.2       0 UNK         0.5000 
      3 O          -0.5020  -11.6539  -51.6879 O.2       0 UNK        -0.5000 
      4 N           1.0844  -11.9079  -50.1456 N.am      1 UNK        -0.5000 
      5 CA          2.0570  -12.6233  -49.3150 C.3       1 UNK         0.1400 
      6 C6          1.4814  -13.6991  -48.3464 C.3       23 UNK        -0.0398 
      7 S7          0.0263  -13.1817  -47.3723 S.3       23 UNK        -0.2404 
      8 C8         -0.6024  -14.7589  -46.7248 C.3       23 UNK        -0.0205 
      9 C9         -1.0704  -15.6983  -47.8253 C.ar      23 UNK        -0.0193 
     10 C10        -2.2859  -15.4796  -48.4787 C.ar      23 UNK        -0.1150 
     11 C11        -2.7192  -16.3408  -49.4928 C.ar      23 UNK        -0.0193 
     12 C12        -1.9219  -17.4416  -49.8337 C.ar      23 UNK        -0.1150 
     13 C13        -0.7032  -17.6728  -49.1858 C.ar      23 UNK        -0.0193 
     14 C14        -0.2858  -16.7941  -48.1859 C.ar      23 UNK        -0.1150 
     15 C15         0.1893  -18.8483  -49.5677 C.3       23 UNK        -0.0205 
     16 S16        -0.7179  -20.4127  -49.7623 S.3       23 UNK        -0.2404 
     17 C17        -1.4168  -20.6665  -48.0989 C.3       23 UNK        -0.0398 
     18 CA         -1.1147  -22.0940  -47.5669 C.3       11 UNK         0.1400 
     19 N          -0.0925  -22.0802  -46.5170 N.am      11 UNK        -0.5000 
     20 C           0.5088  -23.1663  -46.0147 C.2       10 UNK         0.5000 
     21 O           0.2912  -24.3105  -46.4105 O.2       10 UNK        -0.5000 
     22 CA          1.4726  -22.9414  -44.8345 C.3       10 UNK         0.1400 
     23 CB          2.8456  -22.4580  -45.3241 C.3       10 UNK        -0.1800 
     24 N           0.9359  -22.0013  -43.8485 N.am      10 UNK        -0.5000 
     25 C          -0.1649  -22.2291  -43.1172 C.2       9 UNK         0.5000 
     26 O          -0.8064  -23.2787  -43.1602 O.2       9 UNK        -0.5000 
     27 CA         -0.6647  -21.0784  -42.2260 C.3       9 UNK         0.1400 
     28 CB          0.1231  -21.0267  -40.9088 C.3       9 UNK        -0.1800 
     29 N          -0.6016  -19.7765  -42.8905 N.am      9 UNK        -0.5000 
     30 C          -1.2846  -19.4476  -43.9969 C.2       8 UNK         0.5000 
     31 O          -2.0767  -20.1994  -44.5630 O.2       8 UNK        -0.5000 
     32 CA         -0.9894  -18.0663  -44.6066 C.3       8 UNK         0.1400 
     33 CB         -1.7146  -16.9627  -43.8217 C.3       8 UNK        -0.1800 
     34 N           0.4448  -17.7797  -44.6610 N.am      8 UNK        -0.5000 
     35 C           1.3441  -18.5100  -45.3376 C.2       7 UNK         0.5000 
     36 O           1.0564  -19.4829  -46.0318 O.2       7 UNK        -0.5000 
     37 CA          2.8189  -18.1135  -45.1768 C.3       7 UNK         0.1400 
     38 CB          3.1760  -16.9434  -46.1051 C.3       7 UNK        -0.1800 
     39 N           3.1282  -17.7686  -43.7902 N.am      7 UNK        -0.5000 
     40 C           3.1784  -18.6611  -42.7906 C.2       6 UNK         0.5000 
     41 O           3.0165  -19.8723  -42.9456 O.2       6 UNK        -0.5000 
     42 CA          3.4060  -18.0969  -41.3762 C.3       6 UNK         0.1400 
     43 CB          4.9019  -17.8611  -41.1199 C.3       6 UNK        -0.1800 
     44 N           2.6702  -16.8522  -41.1435 N.am      6 UNK        -0.5000 
     45 C           1.3337  -16.7667  -41.0857 C.2       5 UNK         0.5000 
     46 O           0.5846  -17.7372  -41.1889 O.2       5 UNK        -0.5000 
     47 CA          0.7300  -15.3579  -40.9283 C.3       5 UNK         0.1400 
     48 CB          0.6121  -14.9858  -39.4431 C.3       5 UNK        -0.1800 
     49 N           1.4721  -14.3084  -41.6339 N.am      5 UNK        -0.5000 
     50 C           1.6850  -14.2771  -42.9554 C.2       4 UNK         0.5000 
     51 O           1.3078  -15.1582  -43.7300 O.2       4 UNK        -0.5000 
     52 CA          2.4339  -13.0530  -43.5015 C.3       4 UNK         0.1400 
     53 CB          3.4660  -13.4454  -44.5707 C.3       4 UNK        -0.1800 
     54 N           1.4807  -12.1186  -44.0882 N.am      4 UNK        -0.5000 
     55 C           0.8263  -11.1627  -43.4164 C.2       3 UNK         0.5000 
     56 O           0.9591  -10.9797  -42.2049 O.2       3 UNK        -0.5000 
     57 CA         -0.1390  -10.2685  -44.2314 C.3       3 UNK         0.1400 
     58 CB         -0.2575   -8.8428  -43.6530 C.3       3 UNK        -0.1800 
     59 N           0.1551  -10.2240  -45.6720 N.am      3 UNK        -0.5000 
     60 C           1.2719   -9.7733  -46.2618 C.2       2 UNK         0.5000 
     61 O           2.2243   -9.2711  -45.6606 O.2       2 UNK        -0.5000 
     62 CA          1.3472   -9.9366  -47.7875 C.3       2 UNK         0.1400 
     63 CB          1.1629   -8.5817  -48.4883 C.3       2 UNK        -0.1800 
     64 N           2.6703  -10.4685  -48.1118 N.am      2 UNK        -0.5000 
     65 C           3.0458  -11.6534  -48.6236 C.2       1 UNK         0.5000 
     66 O           4.2312  -11.9797  -48.5962 O.2       1 UNK        -0.5000 
     67 C          -2.4009  -22.8262  -47.1248 C.2       11 UNK         0.5000 
     68 O          -2.9820  -23.5676  -47.9197 O.2       11 UNK        -0.5000 
     69 N          -2.8128  -22.6297  -45.8651 N.am      12 UNK        -0.5000 
     70 CA         -3.9374  -23.3283  -45.2442 C.3       12 UNK         0.1400 
     71 CB         -4.2803  -22.6739  -43.8978 C.3       12 UNK        -0.1800 
     72 C          -3.6673  -24.8340  -45.0763 C.2       12 UNK         0.5000 
     73 O          -4.5375  -25.6409  -45.4025 O.2       12 UNK        -0.5000 
     74 N          -2.4562  -25.1892  -44.6222 N.am      13 UNK        -0.5000 
     75 CA         -1.9879  -26.5718  -44.4831 C.3       13 UNK         0.1400 
     76 CB         -0.6431  -26.5857  -43.7411 C.3       13 UNK        -0.1800 
     77 C          -1.8762  -27.3128  -45.8304 C.2       13 UNK         0.5000 
     78 O          -2.1601  -28.5094  -45.8918 O.2       13 UNK        -0.5000 
     79 N          -1.5047  -26.5813  -46.8896 N.am      14 UNK        -0.5000 
     80 CA         -1.4612  -27.0548  -48.2755 C.3       14 UNK         0.1400 
     81 CB         -0.6058  -26.0811  -49.0988 C.3       14 UNK        -0.1800 
     82 C          -2.8536  -27.2412  -48.9202 C.2       14 UNK         0.5000 
     83 O          -2.9311  -27.8484  -49.9886 O.2       14 UNK        -0.5000 
     84 N          -3.9045  -26.7401  -48.2527 N.am      15 UNK        -0.5000 
     85 CA         -5.3305  -26.7694  -48.5885 C.3       15 UNK         0.1400 
     86 CB         -5.8305  -28.1977  -48.8781 C.3       15 UNK        -0.1800 
     87 C          -5.7135  -25.7989  -49.7195 C.2       15 UNK         0.5000 
     88 O          -5.0112  -25.6908  -50.7268 O.2       15 UNK        -0.5000 
     89 N          -6.8516  -25.1145  -49.5259 N.am      16 UNK        -0.5000 
     90 CA         -7.4885  -24.1711  -50.4554 C.3       16 UNK         0.1400 
     91 CB         -8.0793  -24.9324  -51.6610 C.3       16 UNK        -0.1800 
     92 C          -6.5641  -23.0100  -50.8800 C.2       16 UNK         0.5000 
     93 O          -6.5705  -22.6155  -52.0457 O.2       16 UNK        -0.5000 
     94 N          -5.7544  -22.5159  -49.9313 N.am      17 UNK        -0.5000 
     95 CA         -4.6861  -21.5276  -50.1194 C.3       17 UNK         0.1400 
     96 CB         -5.2631  -20.1375  -50.4561 C.3       17 UNK        -0.1800 
     97 C          -3.6281  -22.0106  -51.1341 C.2       17 UNK         0.5000 
     98 O          -3.3137  -21.2990  -52.0893 O.2       17 UNK        -0.5000 
     99 N          -3.1513  -23.2471  -50.9233 N.am      18 UNK        -0.5000 
    100 CA        -2.2571  -24.0222  -51.7906 C.3       18 UNK         0.1400 
    101 CB        -0.8211  -23.4658  -51.7253 C.3       18 UNK        -0.1800 
    102 C         -2.7969  -24.1488  -53.2310 C.2       18 UNK         0.5000 
    103 O         -2.0612  -23.9228  -54.1931 O.2       18 UNK        -0.5000 
    104 N         -4.0926  -24.4806  -53.3347 N.am      19 UNK        -0.5000 
    105 CA        -4.9024  -24.5130  -54.5574 C.3       19 UNK         0.1400 
    106 CB        -4.4558  -25.6661  -55.4801 C.3       19 UNK        -0.1800 
    107 C         -4.9476  -23.1405  -55.2672 C.2       19 UNK         0.5000 
    108 O         -4.6698  -23.0458  -56.4645 O.2       19 UNK        -0.5000 
    109 N         -5.3024  -22.1060  -54.4924 N.am      20 UNK        -0.5000 
    110 CA        -5.4392  -20.6966  -54.8663 C.3       20 UNK         0.1400 
    111 CB        -6.6541  -20.5032  -55.7969 C.3       20 UNK        -0.1800 
    112 C         -4.1413  -20.0805  -55.4286 C.2       20 UNK         0.5000 
    113 O         -4.1750  -19.3906  -56.4502 O.2       20 UNK        -0.5000 
    114 N         -3.0160  -20.3154  -54.7394 N.am      21 UNK        -0.5000 
    115 CA        -1.6855  -19.8185  -55.1095 C.3       21 UNK         0.1400 
    116 CB        -0.6347  -20.4325  -54.1744 C.3       21 UNK        -0.1800 
    117 C         -1.5768  -18.2810  -55.1045 C.2       21 UNK         0.5000 
    118 O         -0.8241  -17.7192  -55.9010 O.2       21 UNK        -0.5000 
    119 N         -2.3539  -17.6358  -54.2286 N.am      22 UNK        -0.5000 
    120 CA        -2.5524  -16.1807  -54.1654 C.3       22 UNK         0.1400 
    121 C         -3.5772  -15.6194  -55.1982 C.2       22 UNK         0.5000 
    122 N         -4.2039  -16.4301  -56.0441 N.am      22 UNK        -0.7600 
    123 O         -3.7958  -14.4121  -55.2502 O.2       22 UNK        -0.5000 
    124 C124       -2.8531  -15.7140  -52.7165 C.3       23 UNK        -0.0398 
    125 S125       -4.2036  -16.6415  -51.9042 S.3       23 UNK        -0.2404 
    126 C126       -4.0583  -16.0593  -50.1777 C.3       23 UNK        -0.0205 
    127 H127       -0.1588  -14.0651  -52.3864 H         1 UNK         0.0600 
    128 H128       -0.3986  -14.4243  -50.6779 H         1 UNK         0.0600 
    129 H129        1.2365  -14.3346  -51.3589 H         1 UNK         0.0600 
    130 H130        1.0918  -10.9082  -50.0038 H         1 UNK         0.3000 
    131 H131        2.6865  -13.1653  -50.0235 H         1 UNK         0.0600 
    132 H132        1.2071  -14.5790  -48.9240 H         1 UNK         0.0800 
    133 H133        2.2527  -14.0542  -47.6623 H         1 UNK         0.0800 
    134 H134        0.1692  -15.2298  -46.1159 H         1 UNK         0.0800 
    135 H135       -1.4366  -14.5477  -46.0556 H         1 UNK         0.0800 
    136 H136       -2.8919  -14.6294  -48.1985 H         1 UNK         0.1150 
    137 H137       -2.2426  -18.1226  -50.6087 H         1 UNK         0.1150 
    138 H138        0.6578  -16.9597  -47.6890 H         1 UNK         0.1150 
    139 H139        0.6882  -18.6142  -50.5086 H         1 UNK         0.0800 
    140 H140        0.9762  -18.9967  -48.8263 H         1 UNK         0.0800 
    141 H141       -1.0366  -19.9048  -47.4197 H         1 UNK         0.0800 
    142 H142       -2.4831  -20.4533  -48.1616 H         1 UNK         0.0800 
    143 H143       -0.7066  -22.6991  -48.3787 H         1 UNK         0.0600 
    144 H144        0.1886  -21.1667  -46.1696 H         1 UNK         0.3000 
    145 H145        1.6135  -23.9021  -44.3350 H         1 UNK         0.0600 
    146 H146        3.5441  -22.3508  -44.4940 H         1 UNK         0.0600 
    147 H147        3.2806  -23.1699  -46.0266 H         1 UNK         0.0600 
    148 H148        2.7810  -21.4957  -45.8315 H         1 UNK         0.0600 
    149 H149        1.4285  -21.1229  -43.7356 H         1 UNK         0.3000 
    150 H150       -1.7113  -21.2764  -41.9867 H         1 UNK         0.0600 
    151 H151       -0.2870  -20.2747  -40.2346 H         1 UNK         0.0600 
    152 H152        0.0819  -21.9855  -40.3905 H         1 UNK         0.0600 
    153 H153        1.1736  -20.7874  -41.0761 H         1 UNK         0.0600 
    154 H154       -0.0084  -19.0749  -42.4564 H         1 UNK         0.3000 
    155 H155       -1.3653  -18.0602  -45.6317 H         1 UNK         0.0600 
    156 H156       -1.4582  -16.9834  -42.7632 H         1 UNK         0.0600 
    157 H157       -2.7958  -17.0828  -43.8967 H         1 UNK         0.0600 
    158 H158       -1.4688  -15.9722  -44.2001 H         1 UNK         0.0600 
    159 H159        0.7682  -16.9625  -44.1511 H         1 UNK         0.3000 
    160 H160        3.4333  -18.9706  -45.4606 H         1 UNK         0.0600 
    161 H161        2.5290  -16.0836  -45.9374 H         1 UNK         0.0600 
    162 H162        3.0675  -17.2330  -47.1509 H         1 UNK         0.0600 
    163 H163        4.2080  -16.6228  -45.9625 H         1 UNK         0.0600 
    164 H164        3.2082  -16.7867  -43.5718 H         1 UNK         0.3000 
    165 H165        3.0502  -18.8412  -40.6604 H         1 UNK         0.0600 
    166 H166        5.0794  -17.5349  -40.0949 H         1 UNK         0.0600 
    167 H167        5.4724  -18.7785  -41.2711 H         1 UNK         0.0600 
    168 H168        5.3129  -17.1046  -41.7894 H         1 UNK         0.0600 
    169 H169        3.2131  -16.0069  -41.0464 H         1 UNK         0.3000 
    170 H170       -0.2762  -15.3852  -41.3506 H         1 UNK         0.0600 
    171 H171        0.0435  -15.7388  -38.8956 H         1 UNK         0.0600 
    172 H172        1.5910  -14.9042  -38.9690 H         1 UNK         0.0600 
    173 H173        0.0958  -14.0342  -39.3145 H         1 UNK         0.0600 
    174 H174        1.7852  -13.5269  -41.0753 H         1 UNK         0.3000 
    175 H175        2.9723  -12.5707  -42.6826 H         1 UNK         0.0600 
    176 H176        2.9897  -13.8590  -45.4578 H         1 UNK         0.0600 
    177 H177        4.0518  -12.5811  -44.8846 H         1 UNK         0.0600 
    178 H178        4.1638  -14.1922  -44.1901 H         1 UNK         0.0600 
    179 H179        1.2739  -12.2425  -45.0682 H         1 UNK         0.3000 
    180 H180       -1.1195  -10.7382  -44.1414 H         1 UNK         0.0600 
    181 H181        0.7047   -8.3303  -43.6365 H         1 UNK         0.0600 
    182 H182       -0.6323   -8.8646  -42.6290 H         1 UNK         0.0600 
    183 H183       -0.9507   -8.2368  -44.2364 H         1 UNK         0.0600 
    184 H184       -0.5574  -10.6343  -46.2606 H         1 UNK         0.3000 
    185 H185        0.5404  -10.5905  -48.1032 H         1 UNK         0.0600 
    186 H186        0.1891   -8.1504  -48.2527 H         1 UNK         0.0600 
    187 H187        1.9233   -7.8616  -48.1827 H         1 UNK         0.0600 
    188 H188        1.2192   -8.6850  -49.5719 H         1 UNK         0.0600 
    189 H189        3.4070   -9.9214  -47.6884 H         1 UNK         0.3000 
    190 H190       -2.3332  -21.9390  -45.2935 H         1 UNK         0.3000 
    191 H191       -4.8027  -23.2176  -45.9011 H         1 UNK         0.0600 
    192 H192       -4.5331  -21.6211  -44.0252 H         1 UNK         0.0600 
    193 H193       -5.1390  -23.1614  -43.4347 H         1 UNK         0.0600 
    194 H194       -3.4502  -22.7345  -43.1944 H         1 UNK         0.0600 
    195 H195       -1.8112  -24.4608  -44.3277 H         1 UNK         0.3000 
    196 H196       -2.7171  -27.1084  -43.8726 H         1 UNK         0.0600 
    197 H197       -0.2860  -27.6063  -43.5980 H         1 UNK         0.0600 
    198 H198       -0.7329  -26.1309  -42.7544 H         1 UNK         0.0600 
    199 H199        0.1257  -26.0424  -44.2905 H         1 UNK         0.0600 
    200 H200       -1.2030  -25.6251  -46.7309 H         1 UNK         0.3000 
    201 H201       -0.9688  -28.0292  -48.2866 H         1 UNK         0.0600 
    202 H202        0.4061  -26.0097  -48.6999 H         1 UNK         0.0600 
    203 H203       -1.0367  -25.0808  -49.0962 H         1 UNK         0.0600 
    204 H204       -0.5232  -26.4060  -50.1365 H         1 UNK         0.0600 
    205 H205       -3.6962  -26.2458  -47.3945 H         1 UNK         0.3000 
    206 H206       -5.8349  -26.4320  -47.6819 H         1 UNK         0.0600 
    207 H207       -5.5512  -28.8842  -48.0788 H         1 UNK         0.0600 
    208 H208       -6.9178  -28.2174  -48.9593 H         1 UNK         0.0600 
    209 H209       -5.4322  -28.5891  -49.8145 H         1 UNK         0.0600 
    210 H210       -7.3558  -25.2682  -48.6635 H         1 UNK         0.3000 
    211 H211       -8.3183  -23.7132  -49.9154 H         1 UNK         0.0600 
    212 H212       -7.3014  -25.3985  -52.2661 H         1 UNK         0.0600 
    213 H213       -8.6447  -24.2637  -52.3112 H         1 UNK         0.0600 
    214 H214       -8.7619  -25.7168  -51.3342 H         1 UNK         0.0600 
    215 H215       -5.8089  -22.9294  -49.0114 H         1 UNK         0.3000 
    216 H216       -4.1855  -21.4461  -49.1579 H         1 UNK         0.0600 
    217 H217       -5.7604  -20.1238  -51.4258 H         1 UNK         0.0600 
    218 H218       -4.4708  -19.3890  -50.4856 H         1 UNK         0.0600 
    219 H219       -5.9839  -19.8162  -49.7047 H         1 UNK         0.0600 
    220 H220       -3.4830  -23.7396  -50.1029 H         1 UNK         0.3000 
    221 H221       -2.2404  -25.0351  -51.3872 H         1 UNK         0.0600 
    222 H222       -0.7684  -22.4477  -52.1064 H         1 UNK         0.0600 
    223 H223       -0.4460  -23.4520  -50.7034 H         1 UNK         0.0600 
    224 H224       -0.1348  -24.0755  -52.3137 H         1 UNK         0.0600 
    225 H225       -4.5862  -24.6827  -52.4704 H         1 UNK         0.3000 
    226 H226       -5.9243  -24.7254  -54.2410 H         1 UNK         0.0600 
    227 H227       -4.4668  -26.6193  -54.9516 H         1 UNK         0.0600 
    228 H228       -5.1258  -25.7614  -56.3352 H         1 UNK         0.0600 
    229 H229       -3.4496  -25.5103  -55.8700 H         1 UNK         0.0600 
    230 H230       -5.5472  -22.3093  -53.5247 H         1 UNK         0.3000 
    231 H231       -5.6488  -20.1599  -53.9401 H         1 UNK         0.0600 
    232 H232       -6.5059  -20.9880  -56.7623 H         1 UNK         0.0600 
    233 H233       -6.8373  -19.4449  -55.9861 H         1 UNK         0.0600 
    234 H234       -7.5602  -20.9133  -55.3507 H         1 UNK         0.0600 
    235 H235       -3.0796  -20.8444  -53.8707 H         1 UNK         0.3000 
    236 H236       -1.4770  -20.1576  -56.1261 H         1 UNK         0.0600 
    237 H237       -0.6165  -21.5177  -54.2709 H         1 UNK         0.0600 
    238 H238        0.3657  -20.0698  -54.4133 H         1 UNK         0.0600 
    239 H239       -0.8343  -20.1873  -53.1302 H         1 UNK         0.0600 
    240 H240       -2.9421  -18.1817  -53.6154 H         1 UNK         0.3000 
    241 H241       -1.6060  -15.7131  -54.4435 H         1 UNK         0.0600 
    242 H242       -4.8537  -16.0361  -56.7057 H         1 UNK         0.3800 
    243 H243       -4.0300  -17.4287  -56.0572 H         1 UNK         0.3800 
    244 H244       -1.9481  -15.8429  -52.1240 H         1 UNK         0.0800 
    245 H245       -3.0760  -14.6463  -52.6782 H         1 UNK         0.0800 
    246 H246       -4.8472  -16.5297  -49.5898 H         1 UNK         0.0800 
    247 H247       -4.2621  -14.9874  -50.1660 H         1 UNK         0.0800 
@<TRIPOS>BOND
     1    1    2 1    
     2    1  127 1    
     3    1  128 1    
     4    1  129 1    
     5    2    3 2    
     6    2    4 am   BACKBONE|DICT|INTERRES
     7    4    5 1    
     8    4  130 1    
     9    5    6 1    
    10    5   65 1    
    11    5  131 1    
    12    6    7 1    
    13    6  132 1    
    14    6  133 1    
    15    7    8 1    
    16    8    9 1    
    17    8  134 1    
    18    8  135 1    
    19    9   10 ar   
    20    9   14 ar   
    21   10   11 ar   
    22   10  136 1    
    23   11   12 ar   
    24   11  126 1    
    25   12   13 ar   
    26   12  137 1    
    27   13   14 ar   
    28   13   15 1    
    29   14  138 1    
    30   15   16 1    
    31   15  139 1    
    32   15  140 1    
    33   16   17 1    
    34   17   18 1    
    35   17  141 1    
    36   17  142 1    
    37   18   19 1    
    38   18   67 1    
    39   18  143 1    
    40   19   20 am   BACKBONE|DICT|INTERRES
    41   19  144 1    
    42   20   21 2    
    43   20   22 1    
    44   22   23 1    
    45   22   24 1    
    46   22  145 1    
    47   23  146 1    
    48   23  147 1    
    49   23  148 1    
    50   24   25 am   BACKBONE|DICT|INTERRES
    51   24  149 1    
    52   25   26 2    
    53   25   27 1    
    54   27   28 1    
    55   27   29 1    
    56   27  150 1    
    57   28  151 1    
    58   28  152 1    
    59   28  153 1    
    60   29   30 am   BACKBONE|DICT|INTERRES
    61   29  154 1    
    62   30   31 2    
    63   30   32 1    
    64   32   33 1    
    65   32   34 1    
    66   32  155 1    
    67   33  156 1    
    68   33  157 1    
    69   33  158 1    
    70   34   35 am   BACKBONE|DICT|INTERRES
    71   34  159 1    
    72   35   36 2    
    73   35   37 1    
    74   37   38 1    
    75   37   39 1    
    76   37  160 1    
    77   38  161 1    
    78   38  162 1    
    79   38  163 1    
    80   39   40 am   BACKBONE|DICT|INTERRES
    81   39  164 1    
    82   40   41 2    
    83   40   42 1    
    84   42   43 1    
    85   42   44 1    
    86   42  165 1    
    87   43  166 1    
    88   43  167 1    
    89   43  168 1    
    90   44   45 am   BACKBONE|DICT|INTERRES
    91   44  169 1    
    92   45   46 2    
    93   45   47 1    
    94   47   48 1    
    95   47   49 1    
    96   47  170 1    
    97   48  171 1    
    98   48  172 1    
    99   48  173 1    
   100   49   50 am   BACKBONE|DICT|INTERRES
   101   49  174 1    
   102   50   51 2    
   103   50   52 1    
   104   52   53 1    
   105   52   54 1    
   106   52  175 1    
   107   53  176 1    
   108   53  177 1    
   109   53  178 1    
   110   54   55 am   BACKBONE|DICT|INTERRES
   111   54  179 1    
   112   55   56 2    
   113   55   57 1    
   114   57   58 1    
   115   57   59 1    
   116   57  180 1    
   117   58  181 1    
   118   58  182 1    
   119   58  183 1    
   120   59   60 am   BACKBONE|DICT|INTERRES
   121   59  184 1    
   122   60   61 2    
   123   60   62 1    
   124   62   63 1    
   125   62   64 1    
   126   62  185 1    
   127   63  186 1    
   128   63  187 1    
   129   63  188 1    
   130   64   65 am   BACKBONE|DICT|INTERRES
   131   64  189 1    
   132   65   66 2    
   133   67   68 2    
   134   67   69 am   BACKBONE|DICT|INTERRES
   135   69   70 1    
   136   69  190 1    
   137   70   71 1    
   138   70   72 1    
   139   70  191 1    
   140   71  192 1    
   141   71  193 1    
   142   71  194 1    
   143   72   73 2    
   144   72   74 am   BACKBONE|DICT|INTERRES
   145   74   75 1    
   146   74  195 1    
   147   75   76 1    
   148   75   77 1    
   149   75  196 1    
   150   76  197 1    
   151   76  198 1    
   152   76  199 1    
   153   77   78 2    
   154   77   79 am   BACKBONE|DICT|INTERRES
   155   79   80 1    
   156   79  200 1    
   157   80   81 1    
   158   80   82 1    
   159   80  201 1    
   160   81  202 1    
   161   81  203 1    
   162   81  204 1    
   163   82   83 2    
   164   82   84 am   BACKBONE|DICT|INTERRES
   165   84   85 1    
   166   84  205 1    
   167   85   86 1    
   168   85   87 1    
   169   85  206 1    
   170   86  207 1    
   171   86  208 1    
   172   86  209 1    
   173   87   88 2    
   174   87   89 am   BACKBONE|DICT|INTERRES
   175   89   90 1    
   176   89  210 1    
   177   90   91 1    
   178   90   92 1    
   179   90  211 1    
   180   91  212 1    
   181   91  213 1    
   182   91  214 1    
   183   92   93 2    
   184   92   94 am   BACKBONE|DICT|INTERRES
   185   94   95 1    
   186   94  215 1    
   187   95   96 1    
   188   95   97 1    
   189   95  216 1    
   190   96  217 1    
   191   96  218 1    
   192   96  219 1    
   193   97   98 2    
   194   97   99 am   BACKBONE|DICT|INTERRES
   195   99  100 1    
   196   99  220 1    
   197  100  101 1    
   198  100  102 1    
   199  100  221 1    
   200  101  222 1    
   201  101  223 1    
   202  101  224 1    
   203  102  103 2    
   204  102  104 am   BACKBONE|DICT|INTERRES
   205  104  105 1    
   206  104  225 1    
   207  105  106 1    
   208  105  107 1    
   209  105  226 1    
   210  106  227 1    
   211  106  228 1    
   212  106  229 1    
   213  107  108 2    
   214  107  109 am   BACKBONE|DICT|INTERRES
   215  109  110 1    
   216  109  230 1    
   217  110  111 1    
   218  110  112 1    
   219  110  231 1    
   220  111  232 1    
   221  111  233 1    
   222  111  234 1    
   223  112  113 2    
   224  112  114 am   BACKBONE|DICT|INTERRES
   225  114  115 1    
   226  114  235 1    
   227  115  116 1    
   228  115  117 1    
   229  115  236 1    
   230  116  237 1    
   231  116  238 1    
   232  116  239 1    
   233  117  118 2    
   234  117  119 am   BACKBONE|DICT|INTERRES
   235  119  120 1    
   236  119  240 1    
   237  120  121 1    
   238  120  124 1    
   239  120  241 1    
   240  121  122 am   BACKBONE|DICT|INTERRES
   241  121  123 2    
   242  122  242 1    
   243  122  243 1    
   244  124  125 1    
   245  124  244 1    
   246  124  245 1    
   247  125  126 1    
   248  126  246 1    
   249  126  247 1    
@<TRIPOS>SUBSTRUCTURE
     1 UNK         1 GROUP             0       ****    0 ROOT    
