@<TRIPOS>MOLECULE
3R540
247   249    1
SMALL
USER_CHARGES


@<TRIPOS>ATOM
      1 CA         -1.8822  -18.6456  -42.0653 C.3       0 UNK        -0.1800 
      2 C          -1.5987  -17.1523  -42.0113 C.2       0 UNK         0.5000 
      3 O          -1.0240  -16.6665  -41.0367 O.2       0 UNK        -0.5000 
      4 N          -1.9827  -16.4213  -43.0626 N.am      1 UNK        -0.5000 
      5 CA         -1.7975  -14.9748  -43.2101 C.3       1 UNK         0.1400 
      6 C6         -2.9328  -14.3144  -44.0391 C.3       23 UNK        -0.0398 
      7 S7         -3.3054  -15.1625  -45.6122 S.3       23 UNK        -0.2404 
      8 C8         -4.8896  -15.9653  -45.2195 C.3       23 UNK        -0.0205 
      9 C9         -5.1996  -17.0915  -46.1938 C.ar      23 UNK        -0.0193 
     10 C10        -5.4353  -16.8113  -47.5423 C.ar      23 UNK        -0.1150 
     11 C11        -5.7219  -17.8417  -48.4403 C.ar      23 UNK        -0.0193 
     12 C12        -5.7811  -19.1585  -47.9782 C.ar      23 UNK        -0.1150 
     13 C13        -5.5555  -19.4591  -46.6312 C.ar      23 UNK        -0.0193 
     14 C14        -5.2618  -18.4140  -45.7442 C.ar      23 UNK        -0.1150 
     15 C15        -5.6523  -20.9245  -46.2065 C.3       23 UNK        -0.0205 
     16 S16        -5.4887  -21.2837  -44.4200 S.3       23 UNK        -0.2404 
     17 C17        -3.6806  -21.2218  -44.1609 C.3       23 UNK        -0.0398 
     18 CA         -2.9216  -22.4542  -44.7082 C.3       11 UNK         0.1400 
     19 N          -1.4860  -22.1855  -44.8490 N.am      11 UNK        -0.5000 
     20 C          -0.6331  -22.9026  -45.5920 C.2       10 UNK         0.5000 
     21 O          -0.9955  -23.8822  -46.2458 O.2       10 UNK        -0.5000 
     22 CA          0.8557  -22.4892  -45.5884 C.3       10 UNK         0.1400 
     23 CB          1.5690  -22.9115  -46.8849 C.3       10 UNK        -0.1800 
     24 N           1.0790  -21.0572  -45.3748 N.am      10 UNK        -0.5000 
     25 C           0.9671  -20.3967  -44.2127 C.2       9 UNK         0.5000 
     26 O           0.6065  -20.9309  -43.1647 O.2       9 UNK        -0.5000 
     27 CA          1.2769  -18.8867  -44.2270 C.3       9 UNK         0.1400 
     28 CB          2.7092  -18.6464  -43.7297 C.3       9 UNK        -0.1800 
     29 N           1.1132  -18.2889  -45.5527 N.am      9 UNK        -0.5000 
     30 C          -0.0578  -18.1558  -46.1966 C.2       8 UNK         0.5000 
     31 O          -1.1438  -18.4272  -45.6837 O.2       8 UNK        -0.5000 
     32 CA         -0.0051  -17.6881  -47.6660 C.3       8 UNK         0.1400 
     33 CB         -0.5985  -16.2807  -47.8207 C.3       8 UNK        -0.1800 
     34 N           1.3564  -17.7070  -48.2109 N.am      8 UNK        -0.5000 
     35 C           1.9749  -18.8092  -48.6624 C.2       7 UNK         0.5000 
     36 O           1.4374  -19.9153  -48.6996 O.2       7 UNK        -0.5000 
     37 CA          3.4452  -18.6729  -49.1096 C.3       7 UNK         0.1400 
     38 CB          3.5530  -18.5855  -50.6367 C.3       7 UNK        -0.1800 
     39 N           4.1210  -17.5153  -48.5245 N.am      7 UNK        -0.5000 
     40 C           4.5542  -17.4511  -47.2588 C.2       6 UNK         0.5000 
     41 O           4.4717  -18.3864  -46.4653 O.2       6 UNK        -0.5000 
     42 CA          5.1310  -16.1001  -46.7911 C.3       6 UNK         0.1400 
     43 CB          6.6511  -16.0579  -47.0058 C.3       6 UNK        -0.1800 
     44 N           4.5142  -14.9467  -47.4559 N.am      6 UNK        -0.5000 
     45 C           3.2204  -14.6221  -47.3442 C.2       5 UNK         0.5000 
     46 O           2.4097  -15.2748  -46.6844 O.2       5 UNK        -0.5000 
     47 CA          2.7336  -13.4191  -48.1563 C.3       5 UNK         0.1400 
     48 CB          2.2699  -13.8724  -49.5546 C.3       5 UNK        -0.1800 
     49 N           1.6394  -12.7934  -47.4247 N.am      5 UNK        -0.5000 
     50 C           1.1317  -11.5787  -47.6604 C.2       4 UNK         0.5000 
     51 O           1.4915  -10.8471  -48.5836 O.2       4 UNK        -0.5000 
     52 CA          0.0720  -11.0813  -46.6647 C.3       4 UNK         0.1400 
     53 CB         -1.2851  -11.7608  -46.9132 C.3       4 UNK        -0.1800 
     54 N           0.5067  -11.3115  -45.2859 N.am      4 UNK        -0.5000 
     55 C           1.3824  -10.5272  -44.6377 C.2       3 UNK         0.5000 
     56 O           1.8532   -9.4953  -45.1182 O.2       3 UNK        -0.5000 
     57 CA          1.8078  -10.9432  -43.2143 C.3       3 UNK         0.1400 
     58 CB          0.9863  -10.1778  -42.1654 C.3       3 UNK        -0.1800 
     59 N           1.6757  -12.3765  -42.9604 N.am      3 UNK        -0.5000 
     60 C           2.4589  -13.3282  -43.4865 C.2       2 UNK         0.5000 
     61 O           3.4436  -13.0923  -44.1866 O.2       2 UNK        -0.5000 
     62 CA          2.0621  -14.7908  -43.1926 C.3       2 UNK         0.1400 
     63 CB          2.8761  -15.3314  -42.0071 C.3       2 UNK        -0.1800 
     64 N           0.6346  -14.9926  -42.9149 N.am      2 UNK        -0.5000 
     65 C          -0.3777  -14.6580  -43.7272 C.2       1 UNK         0.5000 
     66 O          -0.2130  -14.1036  -44.8137 O.2       1 UNK        -0.5000 
     67 C          -3.2184  -23.7730  -43.9512 C.2       11 UNK         0.5000 
     68 O          -4.3027  -24.3326  -44.1116 O.2       11 UNK        -0.5000 
     69 N          -2.2175  -24.3250  -43.2479 N.am      12 UNK        -0.5000 
     70 CA         -2.2098  -25.7029  -42.7417 C.3       12 UNK         0.1400 
     71 CB         -0.9444  -25.9148  -41.8972 C.3       12 UNK        -0.1800 
     72 C          -2.2987  -26.7709  -43.8584 C.2       12 UNK         0.5000 
     73 O          -2.7933  -27.8695  -43.6054 O.2       12 UNK        -0.5000 
     74 N          -1.8541  -26.4160  -45.0724 N.am      13 UNK        -0.5000 
     75 CA         -1.9919  -27.1870  -46.3088 C.3       13 UNK         0.1400 
     76 CB         -0.5914  -27.3980  -46.9115 C.3       13 UNK        -0.1800 
     77 C          -2.9358  -26.4646  -47.2958 C.2       13 UNK         0.5000 
     78 O          -2.8111  -26.6431  -48.5093 O.2       13 UNK        -0.5000 
     79 N          -3.8367  -25.6206  -46.7648 N.am      14 UNK        -0.5000 
     80 CA         -4.8291  -24.7966  -47.4662 C.3       14 UNK         0.1400 
     81 CB         -5.9124  -25.6934  -48.1006 C.3       14 UNK        -0.1800 
     82 C          -4.2269  -23.8030  -48.4834 C.2       14 UNK         0.5000 
     83 O          -4.9224  -23.4003  -49.4151 O.2       14 UNK        -0.5000 
     84 N          -2.9419  -23.4492  -48.3204 N.am      15 UNK        -0.5000 
     85 CA         -2.1208  -22.6692  -49.2533 C.3       15 UNK         0.1400 
     86 CB         -2.5737  -21.1942  -49.2885 C.3       15 UNK        -0.1800 
     87 C          -2.0554  -23.3312  -50.6465 C.2       15 UNK         0.5000 
     88 O          -2.1797  -22.6489  -51.6654 O.2       15 UNK        -0.5000 
     89 N          -1.9162  -24.6672  -50.6525 N.am      16 UNK        -0.5000 
     90 CA         -1.9573  -25.5600  -51.8168 C.3       16 UNK         0.1400 
     91 CB         -0.7681  -25.2903  -52.7631 C.3       16 UNK        -0.1800 
     92 C          -3.3247  -25.5281  -52.5338 C.2       16 UNK         0.5000 
     93 O          -3.3788  -25.5857  -53.7618 O.2       16 UNK        -0.5000 
     94 N          -4.4000  -25.4161  -51.7390 N.am      17 UNK        -0.5000 
     95 CA         -5.7870  -25.1644  -52.1464 C.3       17 UNK         0.1400 
     96 CB         -6.3529  -26.3316  -52.9826 C.3       17 UNK        -0.1800 
     97 C          -5.9319  -23.7854  -52.8246 C.2       17 UNK         0.5000 
     98 O          -6.4896  -23.6815  -53.9187 O.2       17 UNK        -0.5000 
     99 N          -5.4047  -22.7584  -52.1411 N.am      18 UNK        -0.5000 
    100 CA        -5.3468  -21.3467  -52.5305 C.3       18 UNK         0.1400 
    101 CB        -6.7530  -20.7161  -52.4613 C.3       18 UNK        -0.1800 
    102 C         -4.6390  -21.1211  -53.8840 C.2       18 UNK         0.5000 
    103 O         -5.1672  -20.4192  -54.7488 O.2       18 UNK        -0.5000 
    104 N         -3.4640  -21.7430  -54.0433 N.am      19 UNK        -0.5000 
    105 CA        -2.6542  -21.7016  -55.2629 C.3       19 UNK         0.1400 
    106 CB        -2.7141  -23.0708  -55.9566 C.3       19 UNK        -0.1800 
    107 C         -1.1934  -21.2993  -54.9977 C.2       19 UNK         0.5000 
    108 O         -0.5256  -20.8523  -55.9313 O.2       19 UNK        -0.5000 
    109 N         -0.7074  -21.4499  -53.7553 N.am      20 UNK        -0.5000 
    110 CA         0.6389  -21.0348  -53.3454 C.3       20 UNK         0.1400 
    111 CB         0.9779  -21.6766  -51.9903 C.3       20 UNK        -0.1800 
    112 C          0.7757  -19.5019  -53.2668 C.2       20 UNK         0.5000 
    113 O          1.8576  -18.9667  -53.5078 O.2       20 UNK        -0.5000 
    114 N         -0.3382  -18.8352  -52.9551 N.am      21 UNK        -0.5000 
    115 CA        -0.5124  -17.3906  -52.9371 C.3       21 UNK         0.1400 
    116 CB        -0.1760  -16.8502  -51.5318 C.3       21 UNK        -0.1800 
    117 C         -1.9543  -17.1121  -53.3975 C.2       21 UNK         0.5000 
    118 O         -2.4173  -17.7582  -54.3400 O.2       21 UNK        -0.5000 
    119 N         -2.6515  -16.1996  -52.7094 N.am      22 UNK        -0.5000 
    120 CA        -4.1008  -15.9470  -52.8328 C.3       22 UNK         0.1400 
    121 C         -4.5427  -15.2410  -54.1514 C.2       22 UNK         0.5000 
    122 N         -3.6335  -14.6788  -54.9382 N.am      22 UNK        -0.7600 
    123 O         -5.7311  -15.1667  -54.4521 O.2       22 UNK        -0.5000 
    124 C124       -4.9629  -17.2049  -52.5155 C.3       23 UNK        -0.0398 
    125 S125       -4.5240  -17.9733  -50.9161 S.3       23 UNK        -0.2404 
    126 C126       -5.9692  -17.5341  -49.9076 C.3       23 UNK        -0.0205 
    127 H127       -1.0527  -19.2059  -41.6339 H         1 UNK         0.0600 
    128 H128       -2.0184  -18.9831  -43.0918 H         1 UNK         0.0600 
    129 H129       -2.7842  -18.8790  -41.5003 H         1 UNK         0.0600 
    130 H130       -2.3740  -16.8811  -43.8748 H         1 UNK         0.3000 
    131 H131       -1.8542  -14.5211  -42.2181 H         1 UNK         0.0600 
    132 H132       -3.8404  -14.2788  -43.4355 H         1 UNK         0.0800 
    133 H133       -2.6979  -13.2709  -44.2564 H         1 UNK         0.0800 
    134 H134       -4.8609  -16.3468  -44.1977 H         1 UNK         0.0800 
    135 H135       -5.6888  -15.2236  -45.2524 H         1 UNK         0.0800 
    136 H136       -5.3846  -15.7894  -47.8912 H         1 UNK         0.1150 
    137 H137       -6.0011  -19.9550  -48.6761 H         1 UNK         0.1150 
    138 H138       -5.0843  -18.6155  -44.6988 H         1 UNK         0.1150 
    139 H139       -6.6251  -21.3032  -46.5236 H         1 UNK         0.0800 
    140 H140       -4.9124  -21.4933  -46.7667 H         1 UNK         0.0800 
    141 H141       -3.4848  -21.0948  -43.0951 H         1 UNK         0.0800 
    142 H142       -3.3096  -20.3185  -44.6474 H         1 UNK         0.0800 
    143 H143       -3.2832  -22.6212  -45.7212 H         1 UNK         0.0600 
    144 H144       -1.1011  -21.4327  -44.2919 H         1 UNK         0.3000 
    145 H145        1.3239  -23.0292  -44.7633 H         1 UNK         0.0600 
    146 H146        2.6237  -22.6365  -46.8639 H         1 UNK         0.0600 
    147 H147        1.5220  -23.9918  -47.0291 H         1 UNK         0.0600 
    148 H148        1.1193  -22.4438  -47.7610 H         1 UNK         0.0600 
    149 H149        1.3357  -20.5269  -46.1960 H         1 UNK         0.3000 
    150 H150        0.5893  -18.3841  -43.5470 H         1 UNK         0.0600 
    151 H151        2.7890  -18.8634  -42.6639 H         1 UNK         0.0600 
    152 H152        3.0228  -17.6148  -43.8804 H         1 UNK         0.0600 
    153 H153        3.4264  -19.2870  -44.2434 H         1 UNK         0.0600 
    154 H154        1.9588  -18.0204  -46.0359 H         1 UNK         0.3000 
    155 H155       -0.6226  -18.3738  -48.2506 H         1 UNK         0.0600 
    156 H156       -0.1705  -15.5743  -47.1097 H         1 UNK         0.0600 
    157 H157       -1.6741  -16.3071  -47.6521 H         1 UNK         0.0600 
    158 H158       -0.4454  -15.8828  -48.8219 H         1 UNK         0.0600 
    159 H159        1.8777  -16.8444  -48.1274 H         1 UNK         0.3000 
    160 H160        3.9650  -19.5785  -48.7891 H         1 UNK         0.0600 
    161 H161        3.0921  -17.6782  -51.0269 H         1 UNK         0.0600 
    162 H162        3.0627  -19.4358  -51.1086 H         1 UNK         0.0600 
    163 H163        4.5942  -18.5958  -50.9591 H         1 UNK         0.0600 
    164 H164        4.2367  -16.7055  -49.1155 H         1 UNK         0.3000 
    165 H165        4.9335  -16.0131  -45.7202 H         1 UNK         0.0600 
    166 H166        7.0812  -15.1413  -46.6016 H         1 UNK         0.0600 
    167 H167        7.1395  -16.8936  -46.5027 H         1 UNK         0.0600 
    168 H168        6.9108  -16.1142  -48.0636 H         1 UNK         0.0600 
    169 H169        5.1222  -14.3734  -48.0232 H         1 UNK         0.3000 
    170 H170        3.5513  -12.7017  -48.2508 H         1 UNK         0.0600 
    171 H171        3.0741  -14.3774  -50.0908 H         1 UNK         0.0600 
    172 H172        1.4304  -14.5647  -49.4945 H         1 UNK         0.0600 
    173 H173        1.9595  -13.0268  -50.1679 H         1 UNK         0.0600 
    174 H174        1.2948  -13.3388  -46.6414 H         1 UNK         0.3000 
    175 H175       -0.0626  -10.0083  -46.8180 H         1 UNK         0.0600 
    176 H176       -1.2189  -12.8474  -46.8531 H         1 UNK         0.0600 
    177 H177       -2.0314  -11.4306  -46.1908 H         1 UNK         0.0600 
    178 H178       -1.6626  -11.5159  -47.9065 H         1 UNK         0.0600 
    179 H179        0.2109  -12.1858  -44.8642 H         1 UNK         0.3000 
    180 H180        2.8579  -10.6697  -43.0916 H         1 UNK         0.0600 
    181 H181       -0.0750  -10.4213  -42.2290 H         1 UNK         0.0600 
    182 H182        1.0844   -9.1000  -42.3027 H         1 UNK         0.0600 
    183 H183        1.3246  -10.4068  -41.1546 H         1 UNK         0.0600 
    184 H184        0.8991  -12.6651  -42.3847 H         1 UNK         0.3000 
    185 H185        2.3055  -15.3784  -44.0782 H         1 UNK         0.0600 
    186 H186        3.9459  -15.2845  -42.2150 H         1 UNK         0.0600 
    187 H187        2.6915  -14.7559  -41.0992 H         1 UNK         0.0600 
    188 H188        2.6309  -16.3718  -41.7952 H         1 UNK         0.0600 
    189 H189        0.4004  -15.4611  -42.0467 H         1 UNK         0.3000 
    190 H190       -1.3568  -23.8060  -43.1529 H         1 UNK         0.3000 
    191 H191       -3.0811  -25.8286  -42.0957 H         1 UNK         0.0600 
    192 H192       -0.0382  -25.7808  -42.4894 H         1 UNK         0.0600 
    193 H193       -0.9063  -25.2169  -41.0606 H         1 UNK         0.0600 
    194 H194       -0.9176  -26.9222  -41.4796 H         1 UNK         0.0600 
    195 H195       -1.4721  -25.4847  -45.2010 H         1 UNK         0.3000 
    196 H196       -2.4313  -28.1653  -46.1057 H         1 UNK         0.0600 
    197 H197        0.0699  -27.8972  -46.2032 H         1 UNK         0.0600 
    198 H198       -0.1285  -26.4507  -47.1914 H         1 UNK         0.0600 
    199 H199       -0.6359  -28.0211  -47.8056 H         1 UNK         0.0600 
    200 H200       -3.8581  -25.5307  -45.7554 H         1 UNK         0.3000 
    201 H201       -5.3138  -24.1854  -46.7040 H         1 UNK         0.0600 
    202 H202       -6.7288  -25.0973  -48.5102 H         1 UNK         0.0600 
    203 H203       -6.3471  -26.3659  -47.3613 H         1 UNK         0.0600 
    204 H204       -5.5121  -26.3026  -48.9114 H         1 UNK         0.0600 
    205 H205       -2.4296  -23.8365  -47.5332 H         1 UNK         0.3000 
    206 H206       -1.1024  -22.6887  -48.8640 H         1 UNK         0.0600 
    207 H207       -2.5538  -20.7542  -48.2911 H         1 UNK         0.0600 
    208 H208       -3.5854  -21.0852  -49.6782 H         1 UNK         0.0600 
    209 H209       -1.9143  -20.5952  -49.9178 H         1 UNK         0.0600 
    210 H210       -1.8945  -25.1448  -49.7584 H         1 UNK         0.3000 
    211 H211       -1.8442  -26.5725  -51.4267 H         1 UNK         0.0600 
    212 H212        0.1785  -25.3150  -52.2236 H         1 UNK         0.0600 
    213 H213       -0.7141  -26.0475  -53.5460 H         1 UNK         0.0600 
    214 H214       -0.8489  -24.3216  -53.2553 H         1 UNK         0.0600 
    215 H215       -4.2293  -25.3581  -50.7451 H         1 UNK         0.3000 
    216 H216       -6.3711  -25.1135  -51.2265 H         1 UNK         0.0600 
    217 H217       -7.4191  -26.1943  -53.1657 H         1 UNK         0.0600 
    218 H218       -5.8660  -26.4150  -53.9543 H         1 UNK         0.0600 
    219 H219       -6.2324  -27.2824  -52.4636 H         1 UNK         0.0600 
    220 H220       -5.0180  -22.9665  -51.2232 H         1 UNK         0.3000 
    221 H221       -4.7278  -20.8520  -51.7822 H         1 UNK         0.0600 
    222 H222       -7.4328  -21.1621  -53.1877 H         1 UNK         0.0600 
    223 H223       -7.1897  -20.8408  -51.4704 H         1 UNK         0.0600 
    224 H224       -6.7143  -19.6457  -52.6636 H         1 UNK         0.0600 
    225 H225       -3.0979  -22.2821  -53.2633 H         1 UNK         0.3000 
    226 H226       -3.0553  -20.9563  -55.9527 H         1 UNK         0.0600 
    227 H227       -3.7442  -23.3822  -56.1320 H         1 UNK         0.0600 
    228 H228       -2.2116  -23.0404  -56.9240 H         1 UNK         0.0600 
    229 H229       -2.2270  -23.8422  -55.3605 H         1 UNK         0.0600 
    230 H230       -1.2942  -21.8489  -53.0269 H         1 UNK         0.3000 
    231 H231        1.3538  -21.4008  -54.0853 H         1 UNK         0.0600 
    232 H232        2.0102  -21.4700  -51.7081 H         1 UNK         0.0600 
    233 H233        0.8654  -22.7599  -52.0252 H         1 UNK         0.0600 
    234 H234        0.3388  -21.2969  -51.1920 H         1 UNK         0.0600 
    235 H235       -1.1919  -19.3670  -52.8582 H         1 UNK         0.3000 
    236 H236        0.1543  -16.9296  -53.6685 H         1 UNK         0.0600 
    237 H237        0.8368  -17.1220  -51.2398 H         1 UNK         0.0600 
    238 H238       -0.2335  -15.7619  -51.4952 H         1 UNK         0.0600 
    239 H239       -0.8528  -17.2542  -50.7776 H         1 UNK         0.0600 
    240 H240       -2.1903  -15.7126  -51.9551 H         1 UNK         0.3000 
    241 H241       -4.3227  -15.2150  -52.0557 H         1 UNK         0.0600 
    242 H242       -3.9257  -14.2136  -55.7834 H         1 UNK         0.3800 
    243 H243       -2.6552  -14.7262  -54.7030 H         1 UNK         0.3800 
    244 H244       -6.0240  -16.9511  -52.5086 H         1 UNK         0.0800 
    245 H245       -4.8454  -17.9549  -53.2984 H         1 UNK         0.0800 
    246 H246       -6.8408  -18.0874  -50.2603 H         1 UNK         0.0800 
    247 H247       -6.1964  -16.4749  -50.0389 H         1 UNK         0.0800 
@<TRIPOS>BOND
     1    1    2 1    
     2    1  127 1    
     3    1  128 1    
     4    1  129 1    
     5    2    3 2    
     6    2    4 am   BACKBONE|DICT|INTERRES
     7    4    5 1    
     8    4  130 1    
     9    5    6 1    
    10    5   65 1    
    11    5  131 1    
    12    6    7 1    
    13    6  132 1    
    14    6  133 1    
    15    7    8 1    
    16    8    9 1    
    17    8  134 1    
    18    8  135 1    
    19    9   10 ar   
    20    9   14 ar   
    21   10   11 ar   
    22   10  136 1    
    23   11   12 ar   
    24   11  126 1    
    25   12   13 ar   
    26   12  137 1    
    27   13   14 ar   
    28   13   15 1    
    29   14  138 1    
    30   15   16 1    
    31   15  139 1    
    32   15  140 1    
    33   16   17 1    
    34   17   18 1    
    35   17  141 1    
    36   17  142 1    
    37   18   19 1    
    38   18   67 1    
    39   18  143 1    
    40   19   20 am   BACKBONE|DICT|INTERRES
    41   19  144 1    
    42   20   21 2    
    43   20   22 1    
    44   22   23 1    
    45   22   24 1    
    46   22  145 1    
    47   23  146 1    
    48   23  147 1    
    49   23  148 1    
    50   24   25 am   BACKBONE|DICT|INTERRES
    51   24  149 1    
    52   25   26 2    
    53   25   27 1    
    54   27   28 1    
    55   27   29 1    
    56   27  150 1    
    57   28  151 1    
    58   28  152 1    
    59   28  153 1    
    60   29   30 am   BACKBONE|DICT|INTERRES
    61   29  154 1    
    62   30   31 2    
    63   30   32 1    
    64   32   33 1    
    65   32   34 1    
    66   32  155 1    
    67   33  156 1    
    68   33  157 1    
    69   33  158 1    
    70   34   35 am   BACKBONE|DICT|INTERRES
    71   34  159 1    
    72   35   36 2    
    73   35   37 1    
    74   37   38 1    
    75   37   39 1    
    76   37  160 1    
    77   38  161 1    
    78   38  162 1    
    79   38  163 1    
    80   39   40 am   BACKBONE|DICT|INTERRES
    81   39  164 1    
    82   40   41 2    
    83   40   42 1    
    84   42   43 1    
    85   42   44 1    
    86   42  165 1    
    87   43  166 1    
    88   43  167 1    
    89   43  168 1    
    90   44   45 am   BACKBONE|DICT|INTERRES
    91   44  169 1    
    92   45   46 2    
    93   45   47 1    
    94   47   48 1    
    95   47   49 1    
    96   47  170 1    
    97   48  171 1    
    98   48  172 1    
    99   48  173 1    
   100   49   50 am   BACKBONE|DICT|INTERRES
   101   49  174 1    
   102   50   51 2    
   103   50   52 1    
   104   52   53 1    
   105   52   54 1    
   106   52  175 1    
   107   53  176 1    
   108   53  177 1    
   109   53  178 1    
   110   54   55 am   BACKBONE|DICT|INTERRES
   111   54  179 1    
   112   55   56 2    
   113   55   57 1    
   114   57   58 1    
   115   57   59 1    
   116   57  180 1    
   117   58  181 1    
   118   58  182 1    
   119   58  183 1    
   120   59   60 am   BACKBONE|DICT|INTERRES
   121   59  184 1    
   122   60   61 2    
   123   60   62 1    
   124   62   63 1    
   125   62   64 1    
   126   62  185 1    
   127   63  186 1    
   128   63  187 1    
   129   63  188 1    
   130   64   65 am   BACKBONE|DICT|INTERRES
   131   64  189 1    
   132   65   66 2    
   133   67   68 2    
   134   67   69 am   BACKBONE|DICT|INTERRES
   135   69   70 1    
   136   69  190 1    
   137   70   71 1    
   138   70   72 1    
   139   70  191 1    
   140   71  192 1    
   141   71  193 1    
   142   71  194 1    
   143   72   73 2    
   144   72   74 am   BACKBONE|DICT|INTERRES
   145   74   75 1    
   146   74  195 1    
   147   75   76 1    
   148   75   77 1    
   149   75  196 1    
   150   76  197 1    
   151   76  198 1    
   152   76  199 1    
   153   77   78 2    
   154   77   79 am   BACKBONE|DICT|INTERRES
   155   79   80 1    
   156   79  200 1    
   157   80   81 1    
   158   80   82 1    
   159   80  201 1    
   160   81  202 1    
   161   81  203 1    
   162   81  204 1    
   163   82   83 2    
   164   82   84 am   BACKBONE|DICT|INTERRES
   165   84   85 1    
   166   84  205 1    
   167   85   86 1    
   168   85   87 1    
   169   85  206 1    
   170   86  207 1    
   171   86  208 1    
   172   86  209 1    
   173   87   88 2    
   174   87   89 am   BACKBONE|DICT|INTERRES
   175   89   90 1    
   176   89  210 1    
   177   90   91 1    
   178   90   92 1    
   179   90  211 1    
   180   91  212 1    
   181   91  213 1    
   182   91  214 1    
   183   92   93 2    
   184   92   94 am   BACKBONE|DICT|INTERRES
   185   94   95 1    
   186   94  215 1    
   187   95   96 1    
   188   95   97 1    
   189   95  216 1    
   190   96  217 1    
   191   96  218 1    
   192   96  219 1    
   193   97   98 2    
   194   97   99 am   BACKBONE|DICT|INTERRES
   195   99  100 1    
   196   99  220 1    
   197  100  101 1    
   198  100  102 1    
   199  100  221 1    
   200  101  222 1    
   201  101  223 1    
   202  101  224 1    
   203  102  103 2    
   204  102  104 am   BACKBONE|DICT|INTERRES
   205  104  105 1    
   206  104  225 1    
   207  105  106 1    
   208  105  107 1    
   209  105  226 1    
   210  106  227 1    
   211  106  228 1    
   212  106  229 1    
   213  107  108 2    
   214  107  109 am   BACKBONE|DICT|INTERRES
   215  109  110 1    
   216  109  230 1    
   217  110  111 1    
   218  110  112 1    
   219  110  231 1    
   220  111  232 1    
   221  111  233 1    
   222  111  234 1    
   223  112  113 2    
   224  112  114 am   BACKBONE|DICT|INTERRES
   225  114  115 1    
   226  114  235 1    
   227  115  116 1    
   228  115  117 1    
   229  115  236 1    
   230  116  237 1    
   231  116  238 1    
   232  116  239 1    
   233  117  118 2    
   234  117  119 am   BACKBONE|DICT|INTERRES
   235  119  120 1    
   236  119  240 1    
   237  120  121 1    
   238  120  124 1    
   239  120  241 1    
   240  121  122 am   BACKBONE|DICT|INTERRES
   241  121  123 2    
   242  122  242 1    
   243  122  243 1    
   244  124  125 1    
   245  124  244 1    
   246  124  245 1    
   247  125  126 1    
   248  126  246 1    
   249  126  247 1    
@<TRIPOS>SUBSTRUCTURE
     1 UNK         1 GROUP             0       ****    0 ROOT    
