@<TRIPOS>MOLECULE
3R540
247   249    1
SMALL
USER_CHARGES


@<TRIPOS>ATOM
      1 CA          1.4615   -9.9574  -46.9524 C.3       0 UNK        -0.1800 
      2 C           0.8381  -10.3675  -48.2863 C.2       0 UNK         0.5000 
      3 O           0.9875   -9.6369  -49.2637 O.2       0 UNK        -0.5000 
      4 N           0.1479  -11.5119  -48.3962 N.am      1 UNK        -0.5000 
      5 CA         -0.2205  -12.4605  -47.3387 C.3       1 UNK         0.1400 
      6 C6         -0.8557  -13.7543  -47.9202 C.3       23 UNK        -0.0398 
      7 S7         -2.2405  -13.4616  -49.0867 S.3       23 UNK        -0.2404 
      8 C8         -1.5708  -14.0706  -50.6680 C.3       23 UNK        -0.0205 
      9 C9         -1.8367  -15.5575  -50.8431 C.ar      23 UNK        -0.0193 
     10 C10        -3.0079  -15.9935  -51.4721 C.ar      23 UNK        -0.1150 
     11 C11        -3.2726  -17.3594  -51.6100 C.ar      23 UNK        -0.0193 
     12 C12        -2.3638  -18.2896  -51.1019 C.ar      23 UNK        -0.1150 
     13 C13        -1.1853  -17.8667  -50.4833 C.ar      23 UNK        -0.0193 
     14 C14        -0.9200  -16.4994  -50.3693 C.ar      23 UNK        -0.1150 
     15 C15        -0.2143  -18.8886  -49.9125 C.3       23 UNK        -0.0205 
     16 S16        -0.0336  -18.7207  -48.1095 S.3       23 UNK        -0.2404 
     17 C17        -1.7387  -19.0103  -47.5241 C.3       23 UNK        -0.0398 
     18 CA         -1.9604  -20.4540  -47.0303 C.3       11 UNK         0.1400 
     19 N          -1.0483  -20.8296  -45.9423 N.am      11 UNK        -0.5000 
     20 C          -0.9568  -22.0537  -45.4025 C.2       10 UNK         0.5000 
     21 O          -1.6402  -23.0095  -45.7655 O.2       10 UNK        -0.5000 
     22 CA          0.0225  -22.2258  -44.2317 C.3       10 UNK         0.1400 
     23 CB          1.4597  -22.4119  -44.7428 C.3       10 UNK        -0.1800 
     24 N          -0.0426  -21.0756  -43.3307 N.am      10 UNK        -0.5000 
     25 C          -0.9467  -20.9376  -42.3498 C.2       9 UNK         0.5000 
     26 O          -1.7551  -21.8130  -42.0407 O.2       9 UNK        -0.5000 
     27 CA         -0.9713  -19.5923  -41.5947 C.3       9 UNK         0.1400 
     28 CB         -0.0799  -19.6568  -40.3450 C.3       9 UNK        -0.1800 
     29 N          -0.5519  -18.4558  -42.4148 N.am      9 UNK        -0.5000 
     30 C          -1.2148  -17.9885  -43.4812 C.2       8 UNK         0.5000 
     31 O          -2.2904  -18.4407  -43.8717 O.2       8 UNK        -0.5000 
     32 CA         -0.5256  -16.8662  -44.2819 C.3       8 UNK         0.1400 
     33 CB         -1.0007  -15.4933  -43.7964 C.3       8 UNK        -0.1800 
     34 N           0.9422  -16.9225  -44.2626 N.am      8 UNK        -0.5000 
     35 C           1.6610  -17.9661  -44.7090 C.2       7 UNK         0.5000 
     36 O           1.1459  -19.0320  -45.0478 O.2       7 UNK        -0.5000 
     37 CA          3.1962  -17.8447  -44.7410 C.3       7 UNK         0.1400 
     38 CB          3.8057  -18.5175  -45.9887 C.3       7 UNK        -0.1800 
     39 N           3.7075  -16.4822  -44.5682 N.am      7 UNK        -0.5000 
     40 C           3.6158  -15.4395  -45.4092 C.2       6 UNK         0.5000 
     41 O           3.0186  -15.4782  -46.4850 O.2       6 UNK        -0.5000 
     42 CA          4.2973  -14.1258  -44.9659 C.3       6 UNK         0.1400 
     43 CB          3.4232  -12.8987  -45.2778 C.3       6 UNK        -0.1800 
     44 N           4.6026  -14.1360  -43.5339 N.am      6 UNK        -0.5000 
     45 C           5.7926  -14.4285  -42.9893 C.2       5 UNK         0.5000 
     46 O           6.8131  -14.6315  -43.6469 O.2       5 UNK        -0.5000 
     47 CA          5.8485  -14.5498  -41.4507 C.3       5 UNK         0.1400 
     48 CB          6.3862  -13.2509  -40.8314 C.3       5 UNK        -0.1800 
     49 N           4.5520  -14.8612  -40.8420 N.am      5 UNK        -0.5000 
     50 C           3.8654  -16.0012  -41.0115 C.2       4 UNK         0.5000 
     51 O           4.2952  -16.9683  -41.6387 O.2       4 UNK        -0.5000 
     52 CA          2.4247  -16.0323  -40.4600 C.3       4 UNK         0.1400 
     53 CB          2.3882  -16.6691  -39.0637 C.3       4 UNK        -0.1800 
     54 N           1.8043  -14.7033  -40.4088 N.am      4 UNK        -0.5000 
     55 C           1.5481  -13.9474  -41.4844 C.2       3 UNK         0.5000 
     56 O           1.7534  -14.3218  -42.6427 O.2       3 UNK        -0.5000 
     57 CA          1.0873  -12.5078  -41.2111 C.3       3 UNK         0.1400 
     58 CB          2.3102  -11.6173  -40.9373 C.3       3 UNK        -0.1800 
     59 N           0.3645  -11.9553  -42.3540 N.am      3 UNK        -0.5000 
     60 C          -0.9517  -12.0883  -42.5586 C.2       2 UNK         0.5000 
     61 O          -1.7110  -12.6924  -41.8010 O.2       2 UNK        -0.5000 
     62 CA         -1.4991  -11.4496  -43.8404 C.3       2 UNK         0.1400 
     63 CB         -1.4155   -9.9103  -43.7633 C.3       2 UNK        -0.1800 
     64 N          -0.7683  -11.9707  -44.9958 N.am      2 UNK        -0.5000 
     65 C          -1.1263  -11.7997  -46.2740 C.2       1 UNK         0.5000 
     66 O          -2.1096  -11.1458  -46.6279 O.2       1 UNK        -0.5000 
     67 C          -3.4450  -20.6667  -46.6702 C.2       11 UNK         0.5000 
     68 O          -4.2314  -21.0266  -47.5461 O.2       11 UNK        -0.5000 
     69 N          -3.7903  -20.4904  -45.3868 N.am      12 UNK        -0.5000 
     70 CA         -5.1133  -20.7485  -44.8159 C.3       12 UNK         0.1400 
     71 CB         -5.1002  -20.3583  -43.3303 C.3       12 UNK        -0.1800 
     72 C          -5.6046  -22.2013  -44.9845 C.2       12 UNK         0.5000 
     73 O          -6.8158  -22.4232  -45.0270 O.2       12 UNK        -0.5000 
     74 N          -4.6784  -23.1623  -45.1177 N.am      13 UNK        -0.5000 
     75 CA         -4.9678  -24.5640  -45.4137 C.3       13 UNK         0.1400 
     76 CB         -3.8225  -25.4439  -44.8810 C.3       13 UNK        -0.1800 
     77 C          -5.2181  -24.7598  -46.9224 C.2       13 UNK         0.5000 
     78 O          -4.4208  -25.4057  -47.6033 O.2       13 UNK        -0.5000 
     79 N          -6.3199  -24.1769  -47.4156 N.am      14 UNK        -0.5000 
     80 CA         -6.8560  -24.2893  -48.7768 C.3       14 UNK         0.1400 
     81 CB         -7.4227  -25.7070  -49.0027 C.3       14 UNK        -0.1800 
     82 C          -5.8493  -23.8734  -49.8695 C.2       14 UNK         0.5000 
     83 O          -5.5543  -24.6615  -50.7688 O.2       14 UNK        -0.5000 
     84 N          -5.3158  -22.6486  -49.7531 N.am      15 UNK        -0.5000 
     85 CA         -4.3224  -22.0408  -50.6494 C.3       15 UNK         0.1400 
     86 CB         -4.9127  -21.8239  -52.0588 C.3       15 UNK        -0.1800 
     87 C          -2.9881  -22.8162  -50.6523 C.2       15 UNK         0.5000 
     88 O          -2.3814  -23.0097  -51.7089 O.2       15 UNK        -0.5000 
     89 N          -2.5866  -23.2600  -49.4506 N.am      16 UNK        -0.5000 
     90 CA         -1.4297  -24.1073  -49.1478 C.3       16 UNK         0.1400 
     91 CB         -0.1096  -23.3607  -49.4389 C.3       16 UNK        -0.1800 
     92 C          -1.5291  -25.4711  -49.8581 C.2       16 UNK         0.5000 
     93 O          -0.6319  -25.8447  -50.6124 O.2       16 UNK        -0.5000 
     94 N          -2.6542  -26.1675  -49.6395 N.am      17 UNK        -0.5000 
     95 CA         -3.0558  -27.4230  -50.2857 C.3       17 UNK         0.1400 
     96 CB         -2.1695  -28.5901  -49.8047 C.3       17 UNK        -0.1800 
     97 C          -3.1122  -27.2937  -51.8236 C.2       17 UNK         0.5000 
     98 O          -2.6185  -28.1616  -52.5457 O.2       17 UNK        -0.5000 
     99 N          -3.6884  -26.1735  -52.2800 N.am      18 UNK        -0.5000 
    100 CA        -3.8317  -25.7136  -53.6623 C.3       18 UNK         0.1400 
    101 CB        -4.7086  -26.6865  -54.4766 C.3       18 UNK        -0.1800 
    102 C         -2.5093  -25.3766  -54.3852 C.2       18 UNK         0.5000 
    103 O         -2.5490  -25.1079  -55.5867 O.2       18 UNK        -0.5000 
    104 N         -1.3697  -25.3528  -53.6757 N.am      19 UNK        -0.5000 
    105 CA        -0.0475  -25.0789  -54.2490 C.3       19 UNK         0.1400 
    106 CB         1.0477  -25.3964  -53.2217 C.3       19 UNK        -0.1800 
    107 C          0.1148  -23.6404  -54.7722 C.2       19 UNK         0.5000 
    108 O          0.8698  -23.4297  -55.7224 O.2       19 UNK        -0.5000 
    109 N         -0.6048  -22.6824  -54.1700 N.am      20 UNK        -0.5000 
    110 CA        -0.6432  -21.2898  -54.6237 C.3       20 UNK         0.1400 
    111 CB        -1.0938  -20.3988  -53.4604 C.3       20 UNK        -0.1800 
    112 C         -1.5433  -21.0798  -55.8603 C.2       20 UNK         0.5000 
    113 O         -1.4332  -20.0389  -56.5087 O.2       20 UNK        -0.5000 
    114 N         -2.4025  -22.0664  -56.1670 N.am      21 UNK        -0.5000 
    115 CA        -3.3158  -22.1380  -57.3146 C.3       21 UNK         0.1400 
    116 CB        -2.5186  -22.2748  -58.6285 C.3       21 UNK        -0.1800 
    117 C         -4.3644  -21.0037  -57.3620 C.2       21 UNK         0.5000 
    118 O         -4.7821  -20.5950  -58.4477 O.2       21 UNK        -0.5000 
    119 N         -4.7712  -20.5151  -56.1841 N.am      22 UNK        -0.5000 
    120 CA        -5.7851  -19.4638  -56.0089 C.3       22 UNK         0.1400 
    121 C         -7.2086  -19.9259  -56.4290 C.2       22 UNK         0.5000 
    122 N         -8.0126  -19.0384  -56.9986 N.am      22 UNK        -0.7600 
    123 O         -7.6055  -21.0674  -56.2043 O.2       22 UNK        -0.5000 
    124 C124       -5.8038  -18.9240  -54.5570 C.3       23 UNK        -0.0398 
    125 S125       -4.1897  -18.2518  -54.0425 S.3       23 UNK        -0.2404 
    126 C126       -4.5347  -17.8388  -52.3069 C.3       23 UNK        -0.0205 
    127 H127        2.3307   -9.3219  -47.1229 H         1 UNK         0.0600 
    128 H128        1.7961  -10.8120  -46.3690 H         1 UNK         0.0600 
    129 H129        0.7437   -9.3905  -46.3595 H         1 UNK         0.0600 
    130 H130       -0.2757  -11.7172  -49.2893 H         1 UNK         0.3000 
    131 H131        0.7053  -12.7664  -46.8487 H         1 UNK         0.0600 
    132 H132       -0.0790  -14.3290  -48.4247 H         1 UNK         0.0800 
    133 H133       -1.2116  -14.4040  -47.1184 H         1 UNK         0.0800 
    134 H134       -0.5029  -13.8585  -50.7386 H         1 UNK         0.0800 
    135 H135       -2.0415  -13.5169  -51.4818 H         1 UNK         0.0800 
    136 H136       -3.7152  -15.2690  -51.8510 H         1 UNK         0.1150 
    137 H137       -2.5748  -19.3447  -51.1937 H         1 UNK         0.1150 
    138 H138       -0.0107  -16.1735  -49.8850 H         1 UNK         0.1150 
    139 H139       -0.5330  -19.9066  -50.1423 H         1 UNK         0.0800 
    140 H140        0.7611  -18.7559  -50.3822 H         1 UNK         0.0800 
    141 H141       -2.4457  -18.7690  -48.3180 H         1 UNK         0.0800 
    142 H142       -1.9517  -18.3022  -46.7246 H         1 UNK         0.0800 
    143 H143       -1.7453  -21.1212  -47.8651 H         1 UNK         0.0600 
    144 H144       -0.4046  -20.1105  -45.6254 H         1 UNK         0.3000 
    145 H145       -0.2576  -23.1297  -43.6864 H         1 UNK         0.0600 
    146 H146        1.5339  -23.2992  -45.3727 H         1 UNK         0.0600 
    147 H147        1.7971  -21.5629  -45.3374 H         1 UNK         0.0600 
    148 H148        2.1582  -22.5405  -43.9159 H         1 UNK         0.0600 
    149 H149        0.5386  -20.2838  -43.5796 H         1 UNK         0.3000 
    150 H150       -2.0002  -19.4143  -41.2744 H         1 UNK         0.0600 
    151 H151       -0.3767  -20.4816  -39.6958 H         1 UNK         0.0600 
    152 H152       -0.1551  -18.7407  -39.7588 H         1 UNK         0.0600 
    153 H153        0.9691  -19.8045  -40.6050 H         1 UNK         0.0600 
    154 H154        0.3334  -18.0318  -42.1861 H         1 UNK         0.3000 
    155 H155       -0.8275  -16.9678  -45.3240 H         1 UNK         0.0600 
    156 H156       -2.0774  -15.3816  -43.9301 H         1 UNK         0.0600 
    157 H157       -0.5178  -14.6934  -44.3550 H         1 UNK         0.0600 
    158 H158       -0.7873  -15.3462  -42.7376 H         1 UNK         0.0600 
    159 H159        1.4259  -16.0849  -43.9619 H         1 UNK         0.3000 
    160 H160        3.5489  -18.4022  -43.8727 H         1 UNK         0.0600 
    161 H161        4.8918  -18.4273  -45.9967 H         1 UNK         0.0600 
    162 H162        3.4232  -18.0816  -46.9121 H         1 UNK         0.0600 
    163 H163        3.5701  -19.5821  -46.0137 H         1 UNK         0.0600 
    164 H164        4.1923  -16.3327  -43.6919 H         1 UNK         0.3000 
    165 H165        5.2191  -14.0347  -45.5436 H         1 UNK         0.0600 
    166 H166        2.4466  -12.9647  -44.7994 H         1 UNK         0.0600 
    167 H167        3.9006  -11.9786  -44.9406 H         1 UNK         0.0600 
    168 H168        3.2595  -12.8019  -46.3517 H         1 UNK         0.0600 
    169 H169        3.7991  -14.0323  -42.9265 H         1 UNK         0.3000 
    170 H170        6.5395  -15.3601  -41.2089 H         1 UNK         0.0600 
    171 H171        5.7230  -12.4071  -41.0268 H         1 UNK         0.0600 
    172 H172        6.5008  -13.3460  -39.7515 H         1 UNK         0.0600 
    173 H173        7.3661  -12.9995  -41.2395 H         1 UNK         0.0600 
    174 H174        4.1239  -14.1259  -40.2999 H         1 UNK         0.3000 
    175 H175        1.8310  -16.6533  -41.1335 H         1 UNK         0.0600 
    176 H176        2.9542  -16.0835  -38.3383 H         1 UNK         0.0600 
    177 H177        1.3651  -16.7598  -38.6982 H         1 UNK         0.0600 
    178 H178        2.8151  -17.6729  -39.0812 H         1 UNK         0.0600 
    179 H179        1.6182  -14.3295  -39.4889 H         1 UNK         0.3000 
    180 H180        0.4423  -12.5024  -40.3297 H         1 UNK         0.0600 
    181 H181        3.0035  -11.6106  -41.7799 H         1 UNK         0.0600 
    182 H182        2.8614  -11.9601  -40.0609 H         1 UNK         0.0600 
    183 H183        2.0103  -10.5871  -40.7440 H         1 UNK         0.0600 
    184 H184        0.9184  -11.4467  -43.0263 H         1 UNK         0.3000 
    185 H185       -2.5477  -11.7405  -43.9331 H         1 UNK         0.0600 
    186 H186       -1.9426   -9.4373  -44.5914 H         1 UNK         0.0600 
    187 H187       -1.8718   -9.5400  -42.8443 H         1 UNK         0.0600 
    188 H188       -0.3836   -9.5585  -43.7831 H         1 UNK         0.0600 
    189 H189        0.0273  -12.5523  -44.7727 H         1 UNK         0.3000 
    190 H190       -3.0954  -20.1118  -44.7520 H         1 UNK         0.3000 
    191 H191       -5.8251  -20.1033  -45.3343 H         1 UNK         0.0600 
    192 H192       -4.3688  -20.9413  -42.7694 H         1 UNK         0.0600 
    193 H193       -4.8579  -19.3033  -43.2013 H         1 UNK         0.0600 
    194 H194       -6.0759  -20.5245  -42.8718 H         1 UNK         0.0600 
    195 H195       -3.6998  -22.8999  -45.1367 H         1 UNK         0.3000 
    196 H196       -5.8772  -24.8617  -44.8875 H         1 UNK         0.0600 
    197 H197       -3.6599  -25.2792  -43.8158 H         1 UNK         0.0600 
    198 H198       -2.8826  -25.2496  -45.3973 H         1 UNK         0.0600 
    199 H199       -4.0529  -26.5013  -45.0156 H         1 UNK         0.0600 
    200 H200       -6.8653  -23.6145  -46.7712 H         1 UNK         0.3000 
    201 H201       -7.6883  -23.5873  -48.8433 H         1 UNK         0.0600 
    202 H202       -7.9059  -25.7843  -49.9775 H         1 UNK         0.0600 
    203 H203       -8.1706  -25.9571  -48.2503 H         1 UNK         0.0600 
    204 H204       -6.6414  -26.4670  -48.9639 H         1 UNK         0.0600 
    205 H205       -5.5395  -22.0982  -48.9320 H         1 UNK         0.3000 
    206 H206       -4.0992  -21.0559  -50.2381 H         1 UNK         0.0600 
    207 H207       -5.0932  -22.7646  -52.5773 H         1 UNK         0.0600 
    208 H208       -4.2424  -21.2333  -52.6808 H         1 UNK         0.0600 
    209 H209       -5.8597  -21.2876  -52.0055 H         1 UNK         0.0600 
    210 H210       -3.1992  -23.0736  -48.6685 H         1 UNK         0.3000 
    211 H211       -1.4644  -24.3166  -48.0783 H         1 UNK         0.0600 
    212 H212       -0.0474  -22.4293  -48.8772 H         1 UNK         0.0600 
    213 H213        0.7498  -23.9671  -49.1513 H         1 UNK         0.0600 
    214 H214        0.0009  -23.1218  -50.4970 H         1 UNK         0.0600 
    215 H215       -3.3325  -25.7882  -48.9791 H         1 UNK         0.3000 
    216 H216       -4.0766  -27.6229  -49.9565 H         1 UNK         0.0600 
    217 H217       -2.5346  -29.5422  -50.1913 H         1 UNK         0.0600 
    218 H218       -1.1361  -28.4779  -50.1344 H         1 UNK         0.0600 
    219 H219       -2.1688  -28.6607  -48.7170 H         1 UNK         0.0600 
    220 H220       -4.1119  -25.5540  -51.5924 H         1 UNK         0.3000 
    221 H221       -4.3737  -24.7704  -53.5962 H         1 UNK         0.0600 
    222 H222       -4.2062  -27.6384  -54.6493 H         1 UNK         0.0600 
    223 H223       -4.9566  -26.2683  -55.4528 H         1 UNK         0.0600 
    224 H224       -5.6497  -26.8900  -53.9656 H         1 UNK         0.0600 
    225 H225       -1.4022  -25.5454  -52.6814 H         1 UNK         0.3000 
    226 H226        0.0860  -25.7521  -55.0984 H         1 UNK         0.0600 
    227 H227        0.9619  -26.4189  -52.8534 H         1 UNK         0.0600 
    228 H228        2.0390  -25.2922  -53.6644 H         1 UNK         0.0600 
    229 H229        1.0012  -24.7226  -52.3656 H         1 UNK         0.0600 
    230 H230       -1.1917  -22.9260  -53.3766 H         1 UNK         0.3000 
    231 H231        0.3677  -20.9848  -54.9023 H         1 UNK         0.0600 
    232 H232       -1.0770  -19.3451  -53.7422 H         1 UNK         0.0600 
    233 H233       -0.4399  -20.5166  -52.5967 H         1 UNK         0.0600 
    234 H234       -2.1086  -20.6374  -53.1493 H         1 UNK         0.0600 
    235 H235       -2.3765  -22.9009  -55.5949 H         1 UNK         0.3000 
    236 H236       -3.8849  -23.0595  -57.1841 H         1 UNK         0.0600 
    237 H237       -1.8053  -23.0972  -58.5710 H         1 UNK         0.0600 
    238 H238       -3.1805  -22.4806  -59.4704 H         1 UNK         0.0600 
    239 H239       -1.9644  -21.3653  -58.8620 H         1 UNK         0.0600 
    240 H240       -4.3734  -20.8976  -55.3407 H         1 UNK         0.3000 
    241 H241       -5.5002  -18.6387  -56.6651 H         1 UNK         0.0600 
    242 H242       -8.9441  -19.3207  -57.2628 H         1 UNK         0.3800 
    243 H243       -7.7118  -18.0944  -57.1879 H         1 UNK         0.3800 
    244 H244       -6.0995  -19.7106  -53.8618 H         1 UNK         0.0800 
    245 H245       -6.5447  -18.1287  -54.4560 H         1 UNK         0.0800 
    246 H246       -5.3106  -17.0731  -52.2618 H         1 UNK         0.0800 
    247 H247       -4.9308  -18.7146  -51.7909 H         1 UNK         0.0800 
@<TRIPOS>BOND
     1    1    2 1    
     2    1  127 1    
     3    1  128 1    
     4    1  129 1    
     5    2    3 2    
     6    2    4 am   BACKBONE|DICT|INTERRES
     7    4    5 1    
     8    4  130 1    
     9    5    6 1    
    10    5   65 1    
    11    5  131 1    
    12    6    7 1    
    13    6  132 1    
    14    6  133 1    
    15    7    8 1    
    16    8    9 1    
    17    8  134 1    
    18    8  135 1    
    19    9   10 ar   
    20    9   14 ar   
    21   10   11 ar   
    22   10  136 1    
    23   11   12 ar   
    24   11  126 1    
    25   12   13 ar   
    26   12  137 1    
    27   13   14 ar   
    28   13   15 1    
    29   14  138 1    
    30   15   16 1    
    31   15  139 1    
    32   15  140 1    
    33   16   17 1    
    34   17   18 1    
    35   17  141 1    
    36   17  142 1    
    37   18   19 1    
    38   18   67 1    
    39   18  143 1    
    40   19   20 am   BACKBONE|DICT|INTERRES
    41   19  144 1    
    42   20   21 2    
    43   20   22 1    
    44   22   23 1    
    45   22   24 1    
    46   22  145 1    
    47   23  146 1    
    48   23  147 1    
    49   23  148 1    
    50   24   25 am   BACKBONE|DICT|INTERRES
    51   24  149 1    
    52   25   26 2    
    53   25   27 1    
    54   27   28 1    
    55   27   29 1    
    56   27  150 1    
    57   28  151 1    
    58   28  152 1    
    59   28  153 1    
    60   29   30 am   BACKBONE|DICT|INTERRES
    61   29  154 1    
    62   30   31 2    
    63   30   32 1    
    64   32   33 1    
    65   32   34 1    
    66   32  155 1    
    67   33  156 1    
    68   33  157 1    
    69   33  158 1    
    70   34   35 am   BACKBONE|DICT|INTERRES
    71   34  159 1    
    72   35   36 2    
    73   35   37 1    
    74   37   38 1    
    75   37   39 1    
    76   37  160 1    
    77   38  161 1    
    78   38  162 1    
    79   38  163 1    
    80   39   40 am   BACKBONE|DICT|INTERRES
    81   39  164 1    
    82   40   41 2    
    83   40   42 1    
    84   42   43 1    
    85   42   44 1    
    86   42  165 1    
    87   43  166 1    
    88   43  167 1    
    89   43  168 1    
    90   44   45 am   BACKBONE|DICT|INTERRES
    91   44  169 1    
    92   45   46 2    
    93   45   47 1    
    94   47   48 1    
    95   47   49 1    
    96   47  170 1    
    97   48  171 1    
    98   48  172 1    
    99   48  173 1    
   100   49   50 am   BACKBONE|DICT|INTERRES
   101   49  174 1    
   102   50   51 2    
   103   50   52 1    
   104   52   53 1    
   105   52   54 1    
   106   52  175 1    
   107   53  176 1    
   108   53  177 1    
   109   53  178 1    
   110   54   55 am   BACKBONE|DICT|INTERRES
   111   54  179 1    
   112   55   56 2    
   113   55   57 1    
   114   57   58 1    
   115   57   59 1    
   116   57  180 1    
   117   58  181 1    
   118   58  182 1    
   119   58  183 1    
   120   59   60 am   BACKBONE|DICT|INTERRES
   121   59  184 1    
   122   60   61 2    
   123   60   62 1    
   124   62   63 1    
   125   62   64 1    
   126   62  185 1    
   127   63  186 1    
   128   63  187 1    
   129   63  188 1    
   130   64   65 am   BACKBONE|DICT|INTERRES
   131   64  189 1    
   132   65   66 2    
   133   67   68 2    
   134   67   69 am   BACKBONE|DICT|INTERRES
   135   69   70 1    
   136   69  190 1    
   137   70   71 1    
   138   70   72 1    
   139   70  191 1    
   140   71  192 1    
   141   71  193 1    
   142   71  194 1    
   143   72   73 2    
   144   72   74 am   BACKBONE|DICT|INTERRES
   145   74   75 1    
   146   74  195 1    
   147   75   76 1    
   148   75   77 1    
   149   75  196 1    
   150   76  197 1    
   151   76  198 1    
   152   76  199 1    
   153   77   78 2    
   154   77   79 am   BACKBONE|DICT|INTERRES
   155   79   80 1    
   156   79  200 1    
   157   80   81 1    
   158   80   82 1    
   159   80  201 1    
   160   81  202 1    
   161   81  203 1    
   162   81  204 1    
   163   82   83 2    
   164   82   84 am   BACKBONE|DICT|INTERRES
   165   84   85 1    
   166   84  205 1    
   167   85   86 1    
   168   85   87 1    
   169   85  206 1    
   170   86  207 1    
   171   86  208 1    
   172   86  209 1    
   173   87   88 2    
   174   87   89 am   BACKBONE|DICT|INTERRES
   175   89   90 1    
   176   89  210 1    
   177   90   91 1    
   178   90   92 1    
   179   90  211 1    
   180   91  212 1    
   181   91  213 1    
   182   91  214 1    
   183   92   93 2    
   184   92   94 am   BACKBONE|DICT|INTERRES
   185   94   95 1    
   186   94  215 1    
   187   95   96 1    
   188   95   97 1    
   189   95  216 1    
   190   96  217 1    
   191   96  218 1    
   192   96  219 1    
   193   97   98 2    
   194   97   99 am   BACKBONE|DICT|INTERRES
   195   99  100 1    
   196   99  220 1    
   197  100  101 1    
   198  100  102 1    
   199  100  221 1    
   200  101  222 1    
   201  101  223 1    
   202  101  224 1    
   203  102  103 2    
   204  102  104 am   BACKBONE|DICT|INTERRES
   205  104  105 1    
   206  104  225 1    
   207  105  106 1    
   208  105  107 1    
   209  105  226 1    
   210  106  227 1    
   211  106  228 1    
   212  106  229 1    
   213  107  108 2    
   214  107  109 am   BACKBONE|DICT|INTERRES
   215  109  110 1    
   216  109  230 1    
   217  110  111 1    
   218  110  112 1    
   219  110  231 1    
   220  111  232 1    
   221  111  233 1    
   222  111  234 1    
   223  112  113 2    
   224  112  114 am   BACKBONE|DICT|INTERRES
   225  114  115 1    
   226  114  235 1    
   227  115  116 1    
   228  115  117 1    
   229  115  236 1    
   230  116  237 1    
   231  116  238 1    
   232  116  239 1    
   233  117  118 2    
   234  117  119 am   BACKBONE|DICT|INTERRES
   235  119  120 1    
   236  119  240 1    
   237  120  121 1    
   238  120  124 1    
   239  120  241 1    
   240  121  122 am   BACKBONE|DICT|INTERRES
   241  121  123 2    
   242  122  242 1    
   243  122  243 1    
   244  124  125 1    
   245  124  244 1    
   246  124  245 1    
   247  125  126 1    
   248  126  246 1    
   249  126  247 1    
@<TRIPOS>SUBSTRUCTURE
     1 UNK         1 GROUP             0       ****    0 ROOT    
