@<TRIPOS>MOLECULE
3R540
247   249    1
SMALL
USER_CHARGES


@<TRIPOS>ATOM
      1 CA         -4.0691  -11.6747  -45.7014 C.3       0 UNK        -0.1800 
      2 C          -2.7070  -11.1020  -46.0682 C.2       0 UNK         0.5000 
      3 O          -2.5280   -9.8836  -46.0519 O.2       0 UNK        -0.5000 
      4 N          -1.7532  -11.9769  -46.4068 N.am      1 UNK        -0.5000 
      5 CA         -0.3645  -11.6319  -46.7288 C.3       1 UNK         0.1400 
      6 C6          0.3972  -12.8182  -47.3745 C.3       23 UNK        -0.0398 
      7 S7         -0.4436  -13.5443  -48.8246 S.3       23 UNK        -0.2404 
      8 C8         -0.8760  -15.1707  -48.1407 C.3       23 UNK        -0.0205 
      9 C9         -1.4554  -16.1096  -49.1862 C.ar      23 UNK        -0.0193 
     10 C10        -0.6029  -16.8046  -50.0463 C.ar      23 UNK        -0.1150 
     11 C11        -1.1052  -17.7171  -50.9778 C.ar      23 UNK        -0.0193 
     12 C12        -2.4911  -17.9342  -51.0313 C.ar      23 UNK        -0.1150 
     13 C13        -3.3585  -17.2437  -50.1758 C.ar      23 UNK        -0.0193 
     14 C14        -2.8331  -16.3286  -49.2592 C.ar      23 UNK        -0.1150 
     15 C15        -4.8673  -17.4404  -50.2737 C.3       23 UNK        -0.0205 
     16 S16        -5.4063  -19.1557  -49.9733 S.3       23 UNK        -0.2404 
     17 C17        -5.2341  -19.3448  -48.1633 C.3       23 UNK        -0.0398 
     18 CA         -4.6310  -20.7262  -47.8108 C.3       11 UNK         0.1400 
     19 N          -3.2803  -20.8666  -48.3537 N.am      11 UNK        -0.5000 
     20 C          -2.5860  -22.0043  -48.4659 C.2       10 UNK         0.5000 
     21 O          -3.0226  -23.1088  -48.1449 O.2       10 UNK        -0.5000 
     22 CA         -1.1329  -21.8506  -48.9509 C.3       10 UNK         0.1400 
     23 CB         -1.0958  -21.8944  -50.4831 C.3       10 UNK        -0.1800 
     24 N          -0.5318  -20.5965  -48.4762 N.am      10 UNK        -0.5000 
     25 C          -0.3473  -20.3067  -47.1807 C.2       9 UNK         0.5000 
     26 O          -0.5565  -21.1066  -46.2681 O.2       9 UNK        -0.5000 
     27 CA         -0.0308  -18.8470  -46.8297 C.3       9 UNK         0.1400 
     28 CB         -1.3520  -18.1476  -46.4769 C.3       9 UNK        -0.1800 
     29 N           0.8697  -18.7315  -45.6848 N.am      9 UNK        -0.5000 
     30 C           2.1391  -19.1620  -45.6515 C.2       8 UNK         0.5000 
     31 O           2.7029  -19.6783  -46.6175 O.2       8 UNK        -0.5000 
     32 CA          2.9305  -18.9600  -44.3417 C.3       8 UNK         0.1400 
     33 CB          4.1707  -18.0852  -44.5877 C.3       8 UNK        -0.1800 
     34 N           2.1339  -18.3465  -43.2770 N.am      8 UNK        -0.5000 
     35 C           1.3476  -19.0151  -42.4205 C.2       7 UNK         0.5000 
     36 O           1.2310  -20.2403  -42.4157 O.2       7 UNK        -0.5000 
     37 CA          0.5404  -18.1730  -41.4108 C.3       7 UNK         0.1400 
     38 CB          1.2339  -18.1640  -40.0412 C.3       7 UNK        -0.1800 
     39 N           0.3204  -16.7952  -41.8675 N.am      7 UNK        -0.5000 
     40 C          -0.5136  -16.4803  -42.8706 C.2       6 UNK         0.5000 
     41 O          -1.2068  -17.3211  -43.4401 O.2       6 UNK        -0.5000 
     42 CA         -0.5447  -15.0278  -43.3821 C.3       6 UNK         0.1400 
     43 CB         -1.9765  -14.5303  -43.6702 C.3       6 UNK        -0.1800 
     44 N           0.2173  -14.0864  -42.5605 N.am      6 UNK        -0.5000 
     45 C          -0.1069  -13.5465  -41.3775 C.2       5 UNK         0.5000 
     46 O          -1.1562  -13.7775  -40.7747 O.2       5 UNK        -0.5000 
     47 CA          0.9563  -12.6038  -40.7653 C.3       5 UNK         0.1400 
     48 CB          0.7191  -12.3134  -39.2688 C.3       5 UNK        -0.1800 
     49 N           2.3301  -13.0740  -40.9910 N.am      5 UNK        -0.5000 
     50 C           2.8367  -14.2643  -40.6294 C.2       4 UNK         0.5000 
     51 O           2.2092  -15.0979  -39.9767 O.2       4 UNK        -0.5000 
     52 CA          4.2573  -14.5976  -41.1373 C.3       4 UNK         0.1400 
     53 CB          4.5507  -16.1117  -41.1352 C.3       4 UNK        -0.1800 
     54 N           4.5444  -14.0272  -42.4587 N.am      4 UNK        -0.5000 
     55 C           3.8477  -14.2058  -43.5904 C.2       3 UNK         0.5000 
     56 O           2.8498  -14.9252  -43.6872 O.2       3 UNK        -0.5000 
     57 CA          4.3178  -13.3781  -44.8010 C.3       3 UNK         0.1400 
     58 CB          4.2780  -14.2112  -46.0933 C.3       3 UNK        -0.1800 
     59 N           3.5202  -12.1657  -45.0025 N.am      3 UNK        -0.5000 
     60 C           3.2702  -11.1898  -44.1140 C.2       2 UNK         0.5000 
     61 O           3.6740  -11.1902  -42.9504 O.2       2 UNK        -0.5000 
     62 CA          2.4113  -10.0089  -44.6133 C.3       2 UNK         0.1400 
     63 CB          3.3083   -8.8688  -45.1182 C.3       2 UNK        -0.1800 
     64 N           1.4774  -10.3943  -45.6763 N.am      2 UNK        -0.5000 
     65 C           0.4002  -11.1632  -45.4715 C.2       1 UNK         0.5000 
     66 O           0.0525  -11.5511  -44.3541 O.2       1 UNK        -0.5000 
     67 C          -4.7277  -21.0419  -46.2987 C.2       11 UNK         0.5000 
     68 O          -5.8405  -21.2269  -45.8056 O.2       11 UNK        -0.5000 
     69 N          -3.5858  -21.1288  -45.6002 N.am      12 UNK        -0.5000 
     70 CA         -3.4893  -21.5268  -44.1984 C.3       12 UNK         0.1400 
     71 CB         -2.7085  -20.4567  -43.4137 C.3       12 UNK        -0.1800 
     72 C          -2.8166  -22.9040  -44.0793 C.2       12 UNK         0.5000 
     73 O          -3.4357  -23.8447  -43.5825 O.2       12 UNK        -0.5000 
     74 N          -1.5607  -22.9999  -44.5341 N.am      13 UNK        -0.5000 
     75 CA         -0.6687  -24.1385  -44.3143 C.3       13 UNK         0.1400 
     76 CB          0.7760  -23.6977  -44.5975 C.3       13 UNK        -0.1800 
     77 C          -1.0202  -25.3838  -45.1449 C.2       13 UNK         0.5000 
     78 O          -0.7898  -26.4993  -44.6765 O.2       13 UNK        -0.5000 
     79 N          -1.5692  -25.1792  -46.3489 N.am      14 UNK        -0.5000 
     80 CA         -1.9868  -26.2445  -47.2648 C.3       14 UNK         0.1400 
     81 CB         -1.3497  -26.0033  -48.6464 C.3       14 UNK        -0.1800 
     82 C          -3.5206  -26.3422  -47.3593 C.2       14 UNK         0.5000 
     83 O          -4.0240  -27.0252  -48.2506 O.2       14 UNK        -0.5000 
     84 N          -4.2423  -25.6363  -46.4727 N.am      15 UNK        -0.5000 
     85 CA         -5.7069  -25.5588  -46.3809 C.3       15 UNK         0.1400 
     86 CB         -6.2750  -26.8900  -45.8480 C.3       15 UNK        -0.1800 
     87 C          -6.3888  -25.1043  -47.6924 C.2       15 UNK         0.5000 
     88 O          -7.5092  -25.5246  -47.9846 O.2       15 UNK        -0.5000 
     89 N          -5.6788  -24.2693  -48.4647 N.am      16 UNK        -0.5000 
     90 CA         -6.0304  -23.7446  -49.7857 C.3       16 UNK         0.1400 
     91 CB         -7.3483  -22.9414  -49.7524 C.3       16 UNK        -0.1800 
     92 C          -6.0041  -24.7872  -50.9221 C.2       16 UNK         0.5000 
     93 O          -6.4585  -24.4750  -52.0227 O.2       16 UNK        -0.5000 
     94 N          -5.4317  -25.9789  -50.6896 N.am      17 UNK        -0.5000 
     95 CA         -5.2687  -27.0108  -51.7207 C.3       17 UNK         0.1400 
     96 CB         -4.8998  -28.3485  -51.0628 C.3       17 UNK        -0.1800 
     97 C          -4.2197  -26.6259  -52.7825 C.2       17 UNK         0.5000 
     98 O          -4.3704  -26.9889  -53.9492 O.2       17 UNK        -0.5000 
     99 N          -3.1910  -25.8796  -52.3584 N.am      18 UNK        -0.5000 
    100 CA        -2.1019  -25.3851  -53.2034 C.3       18 UNK         0.1400 
    101 CB        -0.7817  -25.5171  -52.4251 C.3       18 UNK        -0.1800 
    102 C         -2.3230  -23.9338  -53.6777 C.2       18 UNK         0.5000 
    103 O         -1.4632  -23.3958  -54.3760 O.2       18 UNK        -0.5000 
    104 N         -3.4581  -23.3159  -53.3102 N.am      19 UNK        -0.5000 
    105 CA        -3.7788  -21.9088  -53.5865 C.3       19 UNK         0.1400 
    106 CB        -5.0648  -21.5122  -52.8503 C.3       19 UNK        -0.1800 
    107 C         -3.8812  -21.5482  -55.0813 C.2       19 UNK         0.5000 
    108 O         -3.7392  -20.3773  -55.4297 O.2       19 UNK        -0.5000 
    109 N         -4.0834  -22.5529  -55.9444 N.am      20 UNK        -0.5000 
    110 CA        -4.0783  -22.4213  -57.4027 C.3       20 UNK         0.1400 
    111 CB        -4.5200  -23.7565  -58.0211 C.3       20 UNK        -0.1800 
    112 C         -2.7175  -21.9808  -57.9848 C.2       20 UNK         0.5000 
    113 O         -2.6885  -21.4180  -59.0799 O.2       20 UNK        -0.5000 
    114 N         -1.6218  -22.2341  -57.2537 N.am      21 UNK        -0.5000 
    115 CA        -0.2674  -21.8232  -57.6270 C.3       21 UNK         0.1400 
    116 CB         0.7359  -22.7904  -56.9784 C.3       21 UNK        -0.1800 
    117 C          0.0564  -20.3687  -57.2278 C.2       21 UNK         0.5000 
    118 O          1.0416  -19.8189  -57.7230 O.2       21 UNK        -0.5000 
    119 N         -0.7417  -19.7805  -56.3283 N.am      22 UNK        -0.5000 
    120 CA        -0.5490  -18.4257  -55.7897 C.3       22 UNK         0.1400 
    121 C         -0.9460  -17.3185  -56.8041 C.2       22 UNK         0.5000 
    122 N         -0.2852  -16.1692  -56.7631 N.am      22 UNK        -0.7600 
    123 O         -1.8682  -17.4718  -57.6021 O.2       22 UNK        -0.5000 
    124 C124       -1.2964  -18.2349  -54.4452 C.3       23 UNK        -0.0398 
    125 S125       -0.7918  -19.4759  -53.2044 S.3       23 UNK        -0.2404 
    126 C126       -0.0963  -18.4405  -51.8747 C.3       23 UNK        -0.0205 
    127 H127       -4.0877  -12.7618  -45.7830 H         1 UNK         0.0600 
    128 H128       -4.8369  -11.2710  -46.3614 H         1 UNK         0.0600 
    129 H129       -4.3235  -11.4074  -44.6758 H         1 UNK         0.0600 
    130 H130       -1.9652  -12.9620  -46.4001 H         1 UNK         0.3000 
    131 H131       -0.3847  -10.8059  -47.4430 H         1 UNK         0.0600 
    132 H132        0.5836  -13.5987  -46.6339 H         1 UNK         0.0800 
    133 H133        1.3825  -12.4920  -47.7114 H         1 UNK         0.0800 
    134 H134       -1.5815  -15.0363  -47.3198 H         1 UNK         0.0800 
    135 H135        0.0171  -15.6283  -47.7119 H         1 UNK         0.0800 
    136 H136        0.4633  -16.6348  -49.9847 H         1 UNK         0.1150 
    137 H137       -2.9131  -18.6336  -51.7379 H         1 UNK         0.1150 
    138 H138       -3.4953  -15.7899  -48.5960 H         1 UNK         0.1150 
    139 H139       -5.3964  -16.7770  -49.5878 H         1 UNK         0.0800 
    140 H140       -5.1843  -17.1523  -51.2768 H         1 UNK         0.0800 
    141 H141       -6.2268  -19.2302  -47.7245 H         1 UNK         0.0800 
    142 H142       -4.6204  -18.5393  -47.7569 H         1 UNK         0.0800 
    143 H143       -5.2481  -21.4787  -48.2965 H         1 UNK         0.0600 
    144 H144       -2.8472  -20.0128  -48.6716 H         1 UNK         0.3000 
    145 H145       -0.5512  -22.6872  -48.5581 H         1 UNK         0.0600 
    146 H146       -0.0753  -21.8363  -50.8618 H         1 UNK         0.0600 
    147 H147       -1.5321  -22.8203  -50.8563 H         1 UNK         0.0600 
    148 H148       -1.6668  -21.0740  -50.9176 H         1 UNK         0.0600 
    149 H149       -0.3511  -19.8888  -49.1726 H         1 UNK         0.3000 
    150 H150        0.4307  -18.3532  -47.6866 H         1 UNK         0.0600 
    151 H151       -2.0397  -18.1528  -47.3210 H         1 UNK         0.0600 
    152 H152       -1.1918  -17.1130  -46.1803 H         1 UNK         0.0600 
    153 H153       -1.8626  -18.6440  -45.6516 H         1 UNK         0.0600 
    154 H154        0.4653  -18.3648  -44.8348 H         1 UNK         0.3000 
    155 H155        3.2713  -19.9444  -44.0144 H         1 UNK         0.0600 
    156 H156        3.8939  -17.0968  -44.9535 H         1 UNK         0.0600 
    157 H157        4.8297  -18.5361  -45.3306 H         1 UNK         0.0600 
    158 H158        4.7541  -17.9572  -43.6761 H         1 UNK         0.0600 
    159 H159        2.1647  -17.3371  -43.2194 H         1 UNK         0.3000 
    160 H160       -0.4339  -18.6513  -41.2884 H         1 UNK         0.0600 
    161 H161        2.2473  -17.7687  -40.1048 H         1 UNK         0.0600 
    162 H162        1.3042  -19.1738  -39.6352 H         1 UNK         0.0600 
    163 H163        0.6815  -17.5606  -39.3206 H         1 UNK         0.0600 
    164 H164        0.8613  -16.0669  -41.4163 H         1 UNK         0.3000 
    165 H165       -0.0198  -15.0485  -44.3381 H         1 UNK         0.0600 
    166 H166       -2.6223  -14.6264  -42.7972 H         1 UNK         0.0600 
    167 H167       -1.9788  -13.4842  -43.9736 H         1 UNK         0.0600 
    168 H168       -2.4344  -15.1063  -44.4750 H         1 UNK         0.0600 
    169 H169        1.1355  -13.8725  -42.9305 H         1 UNK         0.3000 
    170 H170        0.8656  -11.6593  -41.3040 H         1 UNK         0.0600 
    171 H171       -0.2521  -11.8428  -39.1114 H         1 UNK         0.0600 
    172 H172        0.7415  -13.2244  -38.6702 H         1 UNK         0.0600 
    173 H173        1.4750  -11.6342  -38.8749 H         1 UNK         0.0600 
    174 H174        2.9139  -12.4619  -41.5537 H         1 UNK         0.3000 
    175 H175        4.9482  -14.1241  -40.4385 H         1 UNK         0.0600 
    176 H176        3.8443  -16.6584  -41.7584 H         1 UNK         0.0600 
    177 H177        5.5546  -16.3206  -41.5044 H         1 UNK         0.0600 
    178 H178        4.4852  -16.5225  -40.1272 H         1 UNK         0.0600 
    179 H179        5.3067  -13.3636  -42.4793 H         1 UNK         0.3000 
    180 H180        5.3515  -13.0702  -44.6322 H         1 UNK         0.0600 
    181 H181        3.2638  -14.5273  -46.3419 H         1 UNK         0.0600 
    182 H182        4.8881  -15.1098  -45.9962 H         1 UNK         0.0600 
    183 H183        4.6698  -13.6471  -46.9398 H         1 UNK         0.0600 
    184 H184        3.1325  -12.0522  -45.9255 H         1 UNK         0.3000 
    185 H185        1.8351   -9.6370  -43.7632 H         1 UNK         0.0600 
    186 H186        3.9038   -9.1742  -45.9795 H         1 UNK         0.0600 
    187 H187        2.7165   -8.0007  -45.4089 H         1 UNK         0.0600 
    188 H188        3.9999   -8.5428  -44.3401 H         1 UNK         0.0600 
    189 H189        1.7042  -10.0879  -46.6119 H         1 UNK         0.3000 
    190 H190       -2.7071  -21.0130  -46.0874 H         1 UNK         0.3000 
    191 H191       -4.4813  -21.6068  -43.7490 H         1 UNK         0.0600 
    192 H192       -2.6109  -20.7350  -42.3638 H         1 UNK         0.0600 
    193 H193       -3.2201  -19.4946  -43.4476 H         1 UNK         0.0600 
    194 H194       -1.7017  -20.3071  -43.8058 H         1 UNK         0.0600 
    195 H195       -1.1408  -22.1997  -45.0052 H         1 UNK         0.3000 
    196 H196       -0.7353  -24.4174  -43.2606 H         1 UNK         0.0600 
    197 H197        0.9095  -23.4023  -45.6390 H         1 UNK         0.0600 
    198 H198        1.0597  -22.8505  -43.9721 H         1 UNK         0.0600 
    199 H199        1.4799  -24.5050  -44.3914 H         1 UNK         0.0600 
    200 H200       -1.7602  -24.2325  -46.6513 H         1 UNK         0.3000 
    201 H201       -1.6383  -27.2155  -46.9085 H         1 UNK         0.0600 
    202 H202       -1.7247  -25.0969  -49.1189 H         1 UNK         0.0600 
    203 H203       -1.5581  -26.8322  -49.3240 H         1 UNK         0.0600 
    204 H204       -0.2659  -25.9162  -48.5700 H         1 UNK         0.0600 
    205 H205       -3.7339  -25.1025  -45.7813 H         1 UNK         0.3000 
    206 H206       -5.9255  -24.7848  -45.6437 H         1 UNK         0.0600 
    207 H207       -5.7915  -27.1788  -44.9148 H         1 UNK         0.0600 
    208 H208       -7.3436  -26.8091  -45.6457 H         1 UNK         0.0600 
    209 H209       -6.1369  -27.7021  -46.5628 H         1 UNK         0.0600 
    210 H210       -4.7484  -24.0131  -48.1446 H         1 UNK         0.3000 
    211 H211       -5.2303  -23.0461  -50.0262 H         1 UNK         0.0600 
    212 H212       -7.4725  -22.3609  -50.6674 H         1 UNK         0.0600 
    213 H213       -7.3725  -22.2388  -48.9201 H         1 UNK         0.0600 
    214 H214       -8.2174  -23.5935  -49.6631 H         1 UNK         0.0600 
    215 H215       -5.0731  -26.1976  -49.7649 H         1 UNK         0.3000 
    216 H216       -6.2270  -27.1390  -52.2288 H         1 UNK         0.0600 
    217 H217       -3.9184  -28.3081  -50.5888 H         1 UNK         0.0600 
    218 H218       -4.8720  -29.1503  -51.8016 H         1 UNK         0.0600 
    219 H219       -5.6286  -28.6303  -50.3026 H         1 UNK         0.0600 
    220 H220       -3.1527  -25.6357  -51.3798 H         1 UNK         0.3000 
    221 H221       -2.0195  -26.0006  -54.1015 H         1 UNK         0.0600 
    222 H222       -0.5921  -26.5546  -52.1492 H         1 UNK         0.0600 
    223 H223       -0.7865  -24.9263  -51.5100 H         1 UNK         0.0600 
    224 H224        0.0658  -25.1844  -53.0259 H         1 UNK         0.0600 
    225 H225       -4.1490  -23.8447  -52.7982 H         1 UNK         0.3000 
    226 H226       -2.9677  -21.3110  -53.1723 H         1 UNK         0.0600 
    227 H227       -5.9175  -22.1091  -53.1740 H         1 UNK         0.0600 
    228 H228       -4.9512  -21.6282  -51.7745 H         1 UNK         0.0600 
    229 H229       -5.3114  -20.4648  -53.0302 H         1 UNK         0.0600 
    230 H230       -4.1916  -23.4849  -55.5727 H         1 UNK         0.3000 
    231 H231       -4.8113  -21.6582  -57.6724 H         1 UNK         0.0600 
    232 H232       -3.8341  -24.5648  -57.7641 H         1 UNK         0.0600 
    233 H233       -4.5568  -23.6905  -59.1093 H         1 UNK         0.0600 
    234 H234       -5.5163  -24.0394  -57.6806 H         1 UNK         0.0600 
    235 H235       -1.7200  -22.6881  -56.3518 H         1 UNK         0.3000 
    236 H236       -0.1555  -21.9001  -58.7105 H         1 UNK         0.0600 
    237 H237        0.5344  -23.8222  -57.2667 H         1 UNK         0.0600 
    238 H238        1.7563  -22.5601  -57.2873 H         1 UNK         0.0600 
    239 H239        0.7031  -22.7331  -55.8897 H         1 UNK         0.0600 
    240 H240       -1.5671  -20.2683  -56.0073 H         1 UNK         0.3000 
    241 H241        0.5178  -18.3106  -55.5862 H         1 UNK         0.0600 
    242 H242       -0.5400  -15.4358  -57.4067 H         1 UNK         0.3800 
    243 H243        0.4734  -16.0151  -56.1167 H         1 UNK         0.3800 
    244 H244       -2.3750  -18.3086  -54.5881 H         1 UNK         0.0800 
    245 H245       -1.1161  -17.2351  -54.0469 H         1 UNK         0.0800 
    246 H246        0.5837  -17.7120  -52.3189 H         1 UNK         0.0800 
    247 H247        0.5190  -19.0834  -51.2445 H         1 UNK         0.0800 
@<TRIPOS>BOND
     1    1    2 1    
     2    1  127 1    
     3    1  128 1    
     4    1  129 1    
     5    2    3 2    
     6    2    4 am   BACKBONE|DICT|INTERRES
     7    4    5 1    
     8    4  130 1    
     9    5    6 1    
    10    5   65 1    
    11    5  131 1    
    12    6    7 1    
    13    6  132 1    
    14    6  133 1    
    15    7    8 1    
    16    8    9 1    
    17    8  134 1    
    18    8  135 1    
    19    9   10 ar   
    20    9   14 ar   
    21   10   11 ar   
    22   10  136 1    
    23   11   12 ar   
    24   11  126 1    
    25   12   13 ar   
    26   12  137 1    
    27   13   14 ar   
    28   13   15 1    
    29   14  138 1    
    30   15   16 1    
    31   15  139 1    
    32   15  140 1    
    33   16   17 1    
    34   17   18 1    
    35   17  141 1    
    36   17  142 1    
    37   18   19 1    
    38   18   67 1    
    39   18  143 1    
    40   19   20 am   BACKBONE|DICT|INTERRES
    41   19  144 1    
    42   20   21 2    
    43   20   22 1    
    44   22   23 1    
    45   22   24 1    
    46   22  145 1    
    47   23  146 1    
    48   23  147 1    
    49   23  148 1    
    50   24   25 am   BACKBONE|DICT|INTERRES
    51   24  149 1    
    52   25   26 2    
    53   25   27 1    
    54   27   28 1    
    55   27   29 1    
    56   27  150 1    
    57   28  151 1    
    58   28  152 1    
    59   28  153 1    
    60   29   30 am   BACKBONE|DICT|INTERRES
    61   29  154 1    
    62   30   31 2    
    63   30   32 1    
    64   32   33 1    
    65   32   34 1    
    66   32  155 1    
    67   33  156 1    
    68   33  157 1    
    69   33  158 1    
    70   34   35 am   BACKBONE|DICT|INTERRES
    71   34  159 1    
    72   35   36 2    
    73   35   37 1    
    74   37   38 1    
    75   37   39 1    
    76   37  160 1    
    77   38  161 1    
    78   38  162 1    
    79   38  163 1    
    80   39   40 am   BACKBONE|DICT|INTERRES
    81   39  164 1    
    82   40   41 2    
    83   40   42 1    
    84   42   43 1    
    85   42   44 1    
    86   42  165 1    
    87   43  166 1    
    88   43  167 1    
    89   43  168 1    
    90   44   45 am   BACKBONE|DICT|INTERRES
    91   44  169 1    
    92   45   46 2    
    93   45   47 1    
    94   47   48 1    
    95   47   49 1    
    96   47  170 1    
    97   48  171 1    
    98   48  172 1    
    99   48  173 1    
   100   49   50 am   BACKBONE|DICT|INTERRES
   101   49  174 1    
   102   50   51 2    
   103   50   52 1    
   104   52   53 1    
   105   52   54 1    
   106   52  175 1    
   107   53  176 1    
   108   53  177 1    
   109   53  178 1    
   110   54   55 am   BACKBONE|DICT|INTERRES
   111   54  179 1    
   112   55   56 2    
   113   55   57 1    
   114   57   58 1    
   115   57   59 1    
   116   57  180 1    
   117   58  181 1    
   118   58  182 1    
   119   58  183 1    
   120   59   60 am   BACKBONE|DICT|INTERRES
   121   59  184 1    
   122   60   61 2    
   123   60   62 1    
   124   62   63 1    
   125   62   64 1    
   126   62  185 1    
   127   63  186 1    
   128   63  187 1    
   129   63  188 1    
   130   64   65 am   BACKBONE|DICT|INTERRES
   131   64  189 1    
   132   65   66 2    
   133   67   68 2    
   134   67   69 am   BACKBONE|DICT|INTERRES
   135   69   70 1    
   136   69  190 1    
   137   70   71 1    
   138   70   72 1    
   139   70  191 1    
   140   71  192 1    
   141   71  193 1    
   142   71  194 1    
   143   72   73 2    
   144   72   74 am   BACKBONE|DICT|INTERRES
   145   74   75 1    
   146   74  195 1    
   147   75   76 1    
   148   75   77 1    
   149   75  196 1    
   150   76  197 1    
   151   76  198 1    
   152   76  199 1    
   153   77   78 2    
   154   77   79 am   BACKBONE|DICT|INTERRES
   155   79   80 1    
   156   79  200 1    
   157   80   81 1    
   158   80   82 1    
   159   80  201 1    
   160   81  202 1    
   161   81  203 1    
   162   81  204 1    
   163   82   83 2    
   164   82   84 am   BACKBONE|DICT|INTERRES
   165   84   85 1    
   166   84  205 1    
   167   85   86 1    
   168   85   87 1    
   169   85  206 1    
   170   86  207 1    
   171   86  208 1    
   172   86  209 1    
   173   87   88 2    
   174   87   89 am   BACKBONE|DICT|INTERRES
   175   89   90 1    
   176   89  210 1    
   177   90   91 1    
   178   90   92 1    
   179   90  211 1    
   180   91  212 1    
   181   91  213 1    
   182   91  214 1    
   183   92   93 2    
   184   92   94 am   BACKBONE|DICT|INTERRES
   185   94   95 1    
   186   94  215 1    
   187   95   96 1    
   188   95   97 1    
   189   95  216 1    
   190   96  217 1    
   191   96  218 1    
   192   96  219 1    
   193   97   98 2    
   194   97   99 am   BACKBONE|DICT|INTERRES
   195   99  100 1    
   196   99  220 1    
   197  100  101 1    
   198  100  102 1    
   199  100  221 1    
   200  101  222 1    
   201  101  223 1    
   202  101  224 1    
   203  102  103 2    
   204  102  104 am   BACKBONE|DICT|INTERRES
   205  104  105 1    
   206  104  225 1    
   207  105  106 1    
   208  105  107 1    
   209  105  226 1    
   210  106  227 1    
   211  106  228 1    
   212  106  229 1    
   213  107  108 2    
   214  107  109 am   BACKBONE|DICT|INTERRES
   215  109  110 1    
   216  109  230 1    
   217  110  111 1    
   218  110  112 1    
   219  110  231 1    
   220  111  232 1    
   221  111  233 1    
   222  111  234 1    
   223  112  113 2    
   224  112  114 am   BACKBONE|DICT|INTERRES
   225  114  115 1    
   226  114  235 1    
   227  115  116 1    
   228  115  117 1    
   229  115  236 1    
   230  116  237 1    
   231  116  238 1    
   232  116  239 1    
   233  117  118 2    
   234  117  119 am   BACKBONE|DICT|INTERRES
   235  119  120 1    
   236  119  240 1    
   237  120  121 1    
   238  120  124 1    
   239  120  241 1    
   240  121  122 am   BACKBONE|DICT|INTERRES
   241  121  123 2    
   242  122  242 1    
   243  122  243 1    
   244  124  125 1    
   245  124  244 1    
   246  124  245 1    
   247  125  126 1    
   248  126  246 1    
   249  126  247 1    
@<TRIPOS>SUBSTRUCTURE
     1 UNK         1 GROUP             0       ****    0 ROOT    
