@<TRIPOS>MOLECULE
3R540
247   249    1
SMALL
USER_CHARGES


@<TRIPOS>ATOM
      1 CA         -0.9347  -16.8901  -54.3536 C.3       0 UNK        -0.1800 
      2 C          -0.2379  -16.8106  -53.0041 C.2       0 UNK         0.5000 
      3 O          -0.0556  -17.8350  -52.3493 O.2       0 UNK        -0.5000 
      4 N           0.1446  -15.5959  -52.5903 N.am      1 UNK        -0.5000 
      5 CA          0.8284  -15.3155  -51.3240 C.3       1 UNK         0.1400 
      6 C6          0.8685  -13.7913  -51.0377 C.3       23 UNK        -0.0398 
      7 S7          0.8655  -13.4100  -49.2524 S.3       23 UNK        -0.2404 
      8 C8         -0.8987  -13.0649  -48.9449 C.3       23 UNK        -0.0205 
      9 C9         -1.7454  -14.3231  -49.0642 C.ar      23 UNK        -0.0193 
     10 C10        -2.4201  -14.6146  -50.2544 C.ar      23 UNK        -0.1150 
     11 C11        -3.1525  -15.7981  -50.3818 C.ar      23 UNK        -0.0193 
     12 C12        -3.2156  -16.6828  -49.3025 C.ar      23 UNK        -0.1150 
     13 C13        -2.5673  -16.3941  -48.0988 C.ar      23 UNK        -0.0193 
     14 C14        -1.8390  -15.2077  -47.9859 C.ar      23 UNK        -0.1150 
     15 C15        -2.6481  -17.3561  -46.9218 C.3       23 UNK        -0.0205 
     16 S16        -1.1893  -18.4379  -46.8616 S.3       23 UNK        -0.2404 
     17 C17        -1.4942  -19.3792  -45.3325 C.3       23 UNK        -0.0398 
     18 CA         -0.6964  -20.7099  -45.2841 C.3       11 UNK         0.1400 
     19 N          -0.2525  -21.0258  -43.9240 N.am      11 UNK        -0.5000 
     20 C           0.5847  -22.0198  -43.5973 C.2       10 UNK         0.5000 
     21 O           1.1066  -22.7716  -44.4186 O.2       10 UNK        -0.5000 
     22 CA          0.8451  -22.2398  -42.0992 C.3       10 UNK         0.1400 
     23 CB          1.8919  -21.2511  -41.5676 C.3       10 UNK        -0.1800 
     24 N          -0.3864  -22.1256  -41.3200 N.am      10 UNK        -0.5000 
     25 C          -1.3739  -23.0309  -41.3435 C.2       9 UNK         0.5000 
     26 O          -1.3287  -24.0749  -41.9946 O.2       9 UNK        -0.5000 
     27 CA         -2.6409  -22.6879  -40.5390 C.3       9 UNK         0.1400 
     28 CB         -2.4490  -23.0236  -39.0525 C.3       9 UNK        -0.1800 
     29 N          -3.0334  -21.2836  -40.6752 N.am      9 UNK        -0.5000 
     30 C          -3.4514  -20.7265  -41.8202 C.2       8 UNK         0.5000 
     31 O          -3.5561  -21.3392  -42.8810 O.2       8 UNK        -0.5000 
     32 CA         -3.7633  -19.2208  -41.7912 C.3       8 UNK         0.1400 
     33 CB         -5.2004  -18.9765  -41.3078 C.3       8 UNK        -0.1800 
     34 N          -2.8361  -18.4246  -40.9827 N.am      8 UNK        -0.5000 
     35 C          -1.5112  -18.3605  -41.1682 C.2       7 UNK         0.5000 
     36 O          -0.8946  -19.0726  -41.9610 O.2       7 UNK        -0.5000 
     37 CA         -0.7510  -17.2972  -40.3561 C.3       7 UNK         0.1400 
     38 CB          0.4582  -17.9097  -39.6317 C.3       7 UNK        -0.1800 
     39 N          -0.2909  -16.2073  -41.2177 N.am      7 UNK        -0.5000 
     40 C          -1.0865  -15.3717  -41.9017 C.2       6 UNK         0.5000 
     41 O          -2.3156  -15.3990  -41.8332 O.2       6 UNK        -0.5000 
     42 CA         -0.4134  -14.3167  -42.8031 C.3       6 UNK         0.1400 
     43 CB         -0.9220  -12.9054  -42.4644 C.3       6 UNK        -0.1800 
     44 N           1.0492  -14.3118  -42.6870 N.am      6 UNK        -0.5000 
     45 C           1.9515  -14.9278  -43.4636 C.2       5 UNK         0.5000 
     46 O           3.1564  -14.7885  -43.2510 O.2       5 UNK        -0.5000 
     47 CA          1.4876  -15.7887  -44.6636 C.3       5 UNK         0.1400 
     48 CB          1.2491  -14.8995  -45.8942 C.3       5 UNK        -0.1800 
     49 N           2.4746  -16.8076  -45.0240 N.am      5 UNK        -0.5000 
     50 C           2.8185  -17.8495  -44.2522 C.2       4 UNK         0.5000 
     51 O           2.2755  -18.1012  -43.1768 O.2       4 UNK        -0.5000 
     52 CA          3.9511  -18.7726  -44.7533 C.3       4 UNK         0.1400 
     53 CB          3.3711  -20.0730  -45.3256 C.3       4 UNK        -0.1800 
     54 N           4.7972  -18.1632  -45.7774 N.am      4 UNK        -0.5000 
     55 C           5.6848  -17.1809  -45.5742 C.2       3 UNK         0.5000 
     56 O           5.9785  -16.7479  -44.4599 O.2       3 UNK        -0.5000 
     57 CA          6.3531  -16.5708  -46.8274 C.3       3 UNK         0.1400 
     58 CB          7.8240  -17.0071  -46.9184 C.3       3 UNK        -0.1800 
     59 N           5.6892  -16.8873  -48.1005 N.am      3 UNK        -0.5000 
     60 C           4.4349  -16.5502  -48.4279 C.2       2 UNK         0.5000 
     61 O           3.6681  -15.9592  -47.6649 O.2       2 UNK        -0.5000 
     62 CA          3.9428  -16.9990  -49.8100 C.3       2 UNK         0.1400 
     63 CB          3.7575  -18.5266  -49.8607 C.3       2 UNK        -0.1800 
     64 N           2.6626  -16.3580  -50.0856 N.am      2 UNK        -0.5000 
     65 C           2.2376  -15.9471  -51.2823 C.2       1 UNK         0.5000 
     66 O           2.9074  -16.0344  -52.3156 O.2       1 UNK        -0.5000 
     67 C          -1.4685  -21.8856  -45.9266 C.2       11 UNK         0.5000 
     68 O          -1.2851  -22.1614  -47.1127 O.2       11 UNK        -0.5000 
     69 N          -2.2850  -22.5862  -45.1256 N.am      12 UNK        -0.5000 
     70 CA         -2.9804  -23.8140  -45.5079 C.3       12 UNK         0.1400 
     71 CB         -4.0657  -24.1455  -44.4738 C.3       12 UNK        -0.1800 
     72 C          -2.0249  -25.0006  -45.7077 C.2       12 UNK         0.5000 
     73 O          -2.1601  -25.7134  -46.7017 O.2       12 UNK        -0.5000 
     74 N          -1.0559  -25.1739  -44.7968 N.am      13 UNK        -0.5000 
     75 CA         -0.0204  -26.2105  -44.8781 C.3       13 UNK         0.1400 
     76 CB          0.7958  -26.2298  -43.5771 C.3       13 UNK        -0.1800 
     77 C           0.9027  -26.0463  -46.1021 C.2       13 UNK         0.5000 
     78 O           1.2815  -27.0418  -46.7199 O.2       13 UNK        -0.5000 
     79 N           1.2085  -24.7908  -46.4535 N.am      14 UNK        -0.5000 
     80 CA          1.9530  -24.4024  -47.6524 C.3       14 UNK         0.1400 
     81 CB          2.4608  -22.9635  -47.4609 C.3       14 UNK        -0.1800 
     82 C           1.1301  -24.5060  -48.9546 C.2       14 UNK         0.5000 
     83 O           1.7094  -24.3926  -50.0347 O.2       14 UNK        -0.5000 
     84 N          -0.1965  -24.6728  -48.8326 N.am      15 UNK        -0.5000 
     85 CA         -1.2221  -24.6810  -49.8862 C.3       15 UNK         0.1400 
     86 CB         -0.9667  -25.7965  -50.9194 C.3       15 UNK        -0.1800 
     87 C          -1.4552  -23.3081  -50.5535 C.2       15 UNK         0.5000 
     88 O          -2.2560  -23.2119  -51.4845 O.2       15 UNK        -0.5000 
     89 N          -0.8042  -22.2588  -50.0352 N.am      16 UNK        -0.5000 
     90 CA         -0.9389  -20.8643  -50.4512 C.3       16 UNK         0.1400 
     91 CB          0.1302  -20.0285  -49.7330 C.3       16 UNK        -0.1800 
     92 C          -2.3578  -20.3121  -50.2186 C.2       16 UNK         0.5000 
     93 O          -2.8460  -19.5285  -51.0305 O.2       16 UNK        -0.5000 
     94 N          -3.0382  -20.8133  -49.1758 N.am      17 UNK        -0.5000 
     95 CA         -4.4436  -20.5330  -48.8597 C.3       17 UNK         0.1400 
     96 CB         -4.8159  -21.2263  -47.5427 C.3       17 UNK        -0.1800 
     97 C          -5.4518  -20.9215  -49.9629 C.2       17 UNK         0.5000 
     98 O          -6.5863  -20.4483  -49.9158 O.2       17 UNK        -0.5000 
     99 N          -5.0382  -21.7677  -50.9152 N.am      18 UNK        -0.5000 
    100 CA        -5.8370  -22.2129  -52.0554 C.3       18 UNK         0.1400 
    101 CB        -6.0317  -23.7347  -51.9358 C.3       18 UNK        -0.1800 
    102 C         -5.1862  -21.8420  -53.4039 C.2       18 UNK         0.5000 
    103 O         -5.6848  -22.2780  -54.4431 O.2       18 UNK        -0.5000 
    104 N         -4.0823  -21.0816  -53.3883 N.am      19 UNK        -0.5000 
    105 CA        -3.3209  -20.7295  -54.5846 C.3       19 UNK         0.1400 
    106 CB        -1.8440  -20.5533  -54.2062 C.3       19 UNK        -0.1800 
    107 C         -3.8572  -19.4480  -55.2399 C.2       19 UNK         0.5000 
    108 O         -4.2474  -18.5124  -54.5372 O.2       19 UNK        -0.5000 
    109 N         -3.8079  -19.4183  -56.5798 N.am      20 UNK        -0.5000 
    110 CA        -4.1453  -18.2938  -57.4589 C.3       20 UNK         0.1400 
    111 CB        -3.0056  -17.2505  -57.4294 C.3       20 UNK        -0.1800 
    112 C         -5.5423  -17.7091  -57.1576 C.2       20 UNK         0.5000 
    113 O         -6.5269  -18.4502  -57.1948 O.2       20 UNK        -0.5000 
    114 N         -5.6038  -16.4107  -56.8325 N.am      21 UNK        -0.5000 
    115 CA        -6.8158  -15.6742  -56.4675 C.3       21 UNK         0.1400 
    116 CB        -6.4611  -14.1871  -56.3127 C.3       21 UNK        -0.1800 
    117 C         -7.5171  -16.1939  -55.1959 C.2       21 UNK         0.5000 
    118 O         -8.7173  -15.9630  -55.0410 O.2       21 UNK        -0.5000 
    119 N         -6.7763  -16.8902  -54.3237 N.am      22 UNK        -0.5000 
    120 CA        -7.3145  -17.5700  -53.1365 C.3       22 UNK         0.1400 
    121 C         -7.9021  -18.9798  -53.4447 C.2       22 UNK         0.5000 
    122 N         -7.7809  -19.5142  -54.6554 N.am      22 UNK        -0.7600 
    123 O         -8.5073  -19.5959  -52.5734 O.2       22 UNK        -0.5000 
    124 C124       -6.2891  -17.6225  -51.9733 C.3       23 UNK        -0.0398 
    125 S125       -5.6732  -15.9649  -51.5017 S.3       23 UNK        -0.2404 
    126 C126       -3.8668  -16.1336  -51.6833 C.3       23 UNK        -0.0205 
    127 H127       -1.9857  -17.1339  -54.2062 H         1 UNK         0.0600 
    128 H128       -0.4848  -17.6693  -54.9688 H         1 UNK         0.0600 
    129 H129       -0.8755  -15.9482  -54.8993 H         1 UNK         0.0600 
    130 H130        0.0035  -14.8032  -53.1987 H         1 UNK         0.3000 
    131 H131        0.2299  -15.8020  -50.5502 H         1 UNK         0.0600 
    132 H132        1.7391  -13.3218  -51.4995 H         1 UNK         0.0800 
    133 H133        0.0071  -13.2940  -51.4847 H         1 UNK         0.0800 
    134 H134       -1.0050  -12.6487  -47.9421 H         1 UNK         0.0800 
    135 H135       -1.2513  -12.2942  -49.6319 H         1 UNK         0.0800 
    136 H136       -2.3588  -13.9304  -51.0886 H         1 UNK         0.1150 
    137 H137       -3.7784  -17.5944  -49.4115 H         1 UNK         0.1150 
    138 H138       -1.3325  -14.9809  -47.0603 H         1 UNK         0.1150 
    139 H139       -2.7212  -16.7934  -45.9898 H         1 UNK         0.0800 
    140 H140       -3.5504  -17.9649  -46.9894 H         1 UNK         0.0800 
    141 H141       -2.5640  -19.5439  -45.1909 H         1 UNK         0.0800 
    142 H142       -1.1851  -18.7226  -44.5189 H         1 UNK         0.0800 
    143 H143        0.2191  -20.5821  -45.8657 H         1 UNK         0.0600 
    144 H144       -0.5880  -20.4154  -43.1815 H         1 UNK         0.3000 
    145 H145        1.2408  -23.2495  -41.9713 H         1 UNK         0.0600 
    146 H146        2.1067  -21.4304  -40.5142 H         1 UNK         0.0600 
    147 H147        2.8314  -21.3466  -42.1131 H         1 UNK         0.0600 
    148 H148        1.5582  -20.2193  -41.6710 H         1 UNK         0.0600 
    149 H149       -0.5288  -21.2611  -40.8186 H         1 UNK         0.3000 
    150 H150       -3.4551  -23.3050  -40.9252 H         1 UNK         0.0600 
    151 H151       -1.6657  -22.4156  -38.5982 H         1 UNK         0.0600 
    152 H152       -2.1698  -24.0701  -38.9222 H         1 UNK         0.0600 
    153 H153       -3.3688  -22.8617  -38.4902 H         1 UNK         0.0600 
    154 H154       -2.9671  -20.7036  -39.8517 H         1 UNK         0.3000 
    155 H155       -3.6871  -18.8568  -42.8179 H         1 UNK         0.0600 
    156 H156       -5.3320  -19.2755  -40.2672 H         1 UNK         0.0600 
    157 H157       -5.9157  -19.5431  -41.9057 H         1 UNK         0.0600 
    158 H158       -5.4713  -17.9239  -41.3922 H         1 UNK         0.0600 
    159 H159       -3.2596  -17.7824  -40.3285 H         1 UNK         0.3000 
    160 H160       -1.4217  -16.8792  -39.6026 H         1 UNK         0.0600 
    161 H161        1.2125  -18.2637  -40.3353 H         1 UNK         0.0600 
    162 H162        0.1586  -18.7578  -39.0146 H         1 UNK         0.0600 
    163 H163        0.9328  -17.1810  -38.9745 H         1 UNK         0.0600 
    164 H164        0.7069  -16.1365  -41.3537 H         1 UNK         0.3000 
    165 H165       -0.7243  -14.5325  -43.8244 H         1 UNK         0.0600 
    166 H166       -0.4750  -12.1581  -43.1204 H         1 UNK         0.0600 
    167 H167       -2.0035  -12.8340  -42.5883 H         1 UNK         0.0600 
    168 H168       -0.6905  -12.6297  -41.4349 H         1 UNK         0.0600 
    169 H169        1.4037  -13.7613  -41.9185 H         1 UNK         0.3000 
    170 H170        0.5652  -16.3135  -44.4095 H         1 UNK         0.0600 
    171 H171        2.1502  -14.3501  -46.1692 H         1 UNK         0.0600 
    172 H172        0.9496  -15.4949  -46.7568 H         1 UNK         0.0600 
    173 H173        0.4694  -14.1592  -45.7188 H         1 UNK         0.0600 
    174 H174        2.9908  -16.6388  -45.8806 H         1 UNK         0.3000 
    175 H175        4.5771  -19.0231  -43.8944 H         1 UNK         0.0600 
    176 H176        2.7014  -19.8845  -46.1658 H         1 UNK         0.0600 
    177 H177        4.1598  -20.7445  -45.6649 H         1 UNK         0.0600 
    178 H178        2.8046  -20.6040  -44.5641 H         1 UNK         0.0600 
    179 H179        4.6345  -18.4576  -46.7281 H         1 UNK         0.3000 
    180 H180        6.3257  -15.4862  -46.7041 H         1 UNK         0.0600 
    181 H181        7.9146  -18.0838  -47.0678 H         1 UNK         0.0600 
    182 H182        8.3653  -16.7561  -46.0052 H         1 UNK         0.0600 
    183 H183        8.3344  -16.5082  -47.7424 H         1 UNK         0.0600 
    184 H184        6.2485  -17.3882  -48.7762 H         1 UNK         0.3000 
    185 H185        4.6857  -16.6908  -50.5486 H         1 UNK         0.0600 
    186 H186        4.7013  -19.0480  -49.6987 H         1 UNK         0.0600 
    187 H187        3.0551  -18.8708  -49.1002 H         1 UNK         0.0600 
    188 H188        3.3769  -18.8444  -50.8318 H         1 UNK         0.0600 
    189 H189        2.1154  -16.1525  -49.2588 H         1 UNK         0.3000 
    190 H190       -2.4545  -22.2494  -44.1823 H         1 UNK         0.3000 
    191 H191       -3.4716  -23.6417  -46.4648 H         1 UNK         0.0600 
    192 H192       -4.8049  -23.3467  -44.4122 H         1 UNK         0.0600 
    193 H193       -4.5967  -25.0596  -44.7423 H         1 UNK         0.0600 
    194 H194       -3.6452  -24.2889  -43.4782 H         1 UNK         0.0600 
    195 H195       -1.0327  -24.5708  -43.9814 H         1 UNK         0.3000 
    196 H196       -0.5251  -27.1740  -44.9738 H         1 UNK         0.0600 
    197 H197        1.5435  -27.0236  -43.5977 H         1 UNK         0.0600 
    198 H198        0.1562  -26.4077  -42.7125 H         1 UNK         0.0600 
    199 H199        1.3218  -25.2889  -43.4167 H         1 UNK         0.0600 
    200 H200        0.9279  -24.0362  -45.8316 H         1 UNK         0.3000 
    201 H201        2.8167  -25.0623  -47.7552 H         1 UNK         0.0600 
    202 H202        3.0512  -22.6341  -48.3168 H         1 UNK         0.0600 
    203 H203        3.0975  -22.8877  -46.5795 H         1 UNK         0.0600 
    204 H204        1.6369  -22.2593  -47.3384 H         1 UNK         0.0600 
    205 H205       -0.5649  -24.7614  -47.8936 H         1 UNK         0.3000 
    206 H206       -2.1574  -24.9196  -49.3783 H         1 UNK         0.0600 
    207 H207       -0.8141  -26.7589  -50.4309 H         1 UNK         0.0600 
    208 H208       -1.8184  -25.9062  -51.5917 H         1 UNK         0.0600 
    209 H209       -0.0930  -25.5888  -51.5371 H         1 UNK         0.0600 
    210 H210       -0.2481  -22.4254  -49.2086 H         1 UNK         0.3000 
    211 H211       -0.7408  -20.8105  -51.5221 H         1 UNK         0.0600 
    212 H212        0.1430  -20.2260  -48.6618 H         1 UNK         0.0600 
    213 H213       -0.0385  -18.9597  -49.8727 H         1 UNK         0.0600 
    214 H214        1.1231  -20.2541  -50.1214 H         1 UNK         0.0600 
    215 H215       -2.5422  -21.4408  -48.5515 H         1 UNK         0.3000 
    216 H216       -4.5425  -19.4611  -48.7023 H         1 UNK         0.0600 
    217 H217       -5.8240  -20.9518  -47.2296 H         1 UNK         0.0600 
    218 H218       -4.1429  -20.9419  -46.7351 H         1 UNK         0.0600 
    219 H219       -4.7960  -22.3098  -47.6501 H         1 UNK         0.0600 
    220 H220       -4.0845  -22.1094  -50.8901 H         1 UNK         0.3000 
    221 H221       -6.8210  -21.7413  -52.0461 H         1 UNK         0.0600 
    222 H222       -5.0791  -24.2644  -51.9820 H         1 UNK         0.0600 
    223 H223       -6.5156  -23.9965  -50.9947 H         1 UNK         0.0600 
    224 H224       -6.6619  -24.1175  -52.7394 H         1 UNK         0.0600 
    225 H225       -3.7660  -20.6684  -52.5185 H         1 UNK         0.3000 
    226 H226       -3.3831  -21.5487  -55.3043 H         1 UNK         0.0600 
    227 H227       -1.2385  -20.3228  -55.0835 H         1 UNK         0.0600 
    228 H228       -1.7091  -19.7391  -53.4942 H         1 UNK         0.0600 
    229 H229       -1.4406  -21.4633  -53.7618 H         1 UNK         0.0600 
    230 H230       -3.4999  -20.2525  -57.0590 H         1 UNK         0.3000 
    231 H231       -4.1982  -18.6970  -58.4712 H         1 UNK         0.0600 
    232 H232       -2.9077  -16.7794  -56.4517 H         1 UNK         0.0600 
    233 H233       -3.1699  -16.4637  -58.1668 H         1 UNK         0.0600 
    234 H234       -2.0476  -17.7131  -57.6674 H         1 UNK         0.0600 
    235 H235       -4.7407  -15.8882  -56.8046 H         1 UNK         0.3000 
    236 H236       -7.5242  -15.7744  -57.2923 H         1 UNK         0.0600 
    237 H237       -6.0422  -13.7819  -57.2340 H         1 UNK         0.0600 
    238 H238       -7.3465  -13.5966  -56.0731 H         1 UNK         0.0600 
    239 H239       -5.7356  -14.0291  -55.5136 H         1 UNK         0.0600 
    240 H240       -5.8048  -17.0881  -54.5352 H         1 UNK         0.3000 
    241 H241       -8.1599  -16.9837  -52.7716 H         1 UNK         0.0600 
    242 H242       -7.3059  -19.0233  -55.4044 H         1 UNK         0.3800 
    243 H243       -8.1723  -20.4249  -54.8333 H         1 UNK         0.3800 
    244 H244       -5.4620  -18.2877  -52.2223 H         1 UNK         0.0800 
    245 H245       -6.7561  -18.0513  -51.0860 H         1 UNK         0.0800 
    246 H246       -3.5338  -15.4744  -52.4860 H         1 UNK         0.0800 
    247 H247       -3.5879  -17.1413  -51.9923 H         1 UNK         0.0800 
@<TRIPOS>BOND
     1    1    2 1    
     2    1  127 1    
     3    1  128 1    
     4    1  129 1    
     5    2    3 2    
     6    2    4 am   BACKBONE|DICT|INTERRES
     7    4    5 1    
     8    4  130 1    
     9    5    6 1    
    10    5   65 1    
    11    5  131 1    
    12    6    7 1    
    13    6  132 1    
    14    6  133 1    
    15    7    8 1    
    16    8    9 1    
    17    8  134 1    
    18    8  135 1    
    19    9   10 ar   
    20    9   14 ar   
    21   10   11 ar   
    22   10  136 1    
    23   11   12 ar   
    24   11  126 1    
    25   12   13 ar   
    26   12  137 1    
    27   13   14 ar   
    28   13   15 1    
    29   14  138 1    
    30   15   16 1    
    31   15  139 1    
    32   15  140 1    
    33   16   17 1    
    34   17   18 1    
    35   17  141 1    
    36   17  142 1    
    37   18   19 1    
    38   18   67 1    
    39   18  143 1    
    40   19   20 am   BACKBONE|DICT|INTERRES
    41   19  144 1    
    42   20   21 2    
    43   20   22 1    
    44   22   23 1    
    45   22   24 1    
    46   22  145 1    
    47   23  146 1    
    48   23  147 1    
    49   23  148 1    
    50   24   25 am   BACKBONE|DICT|INTERRES
    51   24  149 1    
    52   25   26 2    
    53   25   27 1    
    54   27   28 1    
    55   27   29 1    
    56   27  150 1    
    57   28  151 1    
    58   28  152 1    
    59   28  153 1    
    60   29   30 am   BACKBONE|DICT|INTERRES
    61   29  154 1    
    62   30   31 2    
    63   30   32 1    
    64   32   33 1    
    65   32   34 1    
    66   32  155 1    
    67   33  156 1    
    68   33  157 1    
    69   33  158 1    
    70   34   35 am   BACKBONE|DICT|INTERRES
    71   34  159 1    
    72   35   36 2    
    73   35   37 1    
    74   37   38 1    
    75   37   39 1    
    76   37  160 1    
    77   38  161 1    
    78   38  162 1    
    79   38  163 1    
    80   39   40 am   BACKBONE|DICT|INTERRES
    81   39  164 1    
    82   40   41 2    
    83   40   42 1    
    84   42   43 1    
    85   42   44 1    
    86   42  165 1    
    87   43  166 1    
    88   43  167 1    
    89   43  168 1    
    90   44   45 am   BACKBONE|DICT|INTERRES
    91   44  169 1    
    92   45   46 2    
    93   45   47 1    
    94   47   48 1    
    95   47   49 1    
    96   47  170 1    
    97   48  171 1    
    98   48  172 1    
    99   48  173 1    
   100   49   50 am   BACKBONE|DICT|INTERRES
   101   49  174 1    
   102   50   51 2    
   103   50   52 1    
   104   52   53 1    
   105   52   54 1    
   106   52  175 1    
   107   53  176 1    
   108   53  177 1    
   109   53  178 1    
   110   54   55 am   BACKBONE|DICT|INTERRES
   111   54  179 1    
   112   55   56 2    
   113   55   57 1    
   114   57   58 1    
   115   57   59 1    
   116   57  180 1    
   117   58  181 1    
   118   58  182 1    
   119   58  183 1    
   120   59   60 am   BACKBONE|DICT|INTERRES
   121   59  184 1    
   122   60   61 2    
   123   60   62 1    
   124   62   63 1    
   125   62   64 1    
   126   62  185 1    
   127   63  186 1    
   128   63  187 1    
   129   63  188 1    
   130   64   65 am   BACKBONE|DICT|INTERRES
   131   64  189 1    
   132   65   66 2    
   133   67   68 2    
   134   67   69 am   BACKBONE|DICT|INTERRES
   135   69   70 1    
   136   69  190 1    
   137   70   71 1    
   138   70   72 1    
   139   70  191 1    
   140   71  192 1    
   141   71  193 1    
   142   71  194 1    
   143   72   73 2    
   144   72   74 am   BACKBONE|DICT|INTERRES
   145   74   75 1    
   146   74  195 1    
   147   75   76 1    
   148   75   77 1    
   149   75  196 1    
   150   76  197 1    
   151   76  198 1    
   152   76  199 1    
   153   77   78 2    
   154   77   79 am   BACKBONE|DICT|INTERRES
   155   79   80 1    
   156   79  200 1    
   157   80   81 1    
   158   80   82 1    
   159   80  201 1    
   160   81  202 1    
   161   81  203 1    
   162   81  204 1    
   163   82   83 2    
   164   82   84 am   BACKBONE|DICT|INTERRES
   165   84   85 1    
   166   84  205 1    
   167   85   86 1    
   168   85   87 1    
   169   85  206 1    
   170   86  207 1    
   171   86  208 1    
   172   86  209 1    
   173   87   88 2    
   174   87   89 am   BACKBONE|DICT|INTERRES
   175   89   90 1    
   176   89  210 1    
   177   90   91 1    
   178   90   92 1    
   179   90  211 1    
   180   91  212 1    
   181   91  213 1    
   182   91  214 1    
   183   92   93 2    
   184   92   94 am   BACKBONE|DICT|INTERRES
   185   94   95 1    
   186   94  215 1    
   187   95   96 1    
   188   95   97 1    
   189   95  216 1    
   190   96  217 1    
   191   96  218 1    
   192   96  219 1    
   193   97   98 2    
   194   97   99 am   BACKBONE|DICT|INTERRES
   195   99  100 1    
   196   99  220 1    
   197  100  101 1    
   198  100  102 1    
   199  100  221 1    
   200  101  222 1    
   201  101  223 1    
   202  101  224 1    
   203  102  103 2    
   204  102  104 am   BACKBONE|DICT|INTERRES
   205  104  105 1    
   206  104  225 1    
   207  105  106 1    
   208  105  107 1    
   209  105  226 1    
   210  106  227 1    
   211  106  228 1    
   212  106  229 1    
   213  107  108 2    
   214  107  109 am   BACKBONE|DICT|INTERRES
   215  109  110 1    
   216  109  230 1    
   217  110  111 1    
   218  110  112 1    
   219  110  231 1    
   220  111  232 1    
   221  111  233 1    
   222  111  234 1    
   223  112  113 2    
   224  112  114 am   BACKBONE|DICT|INTERRES
   225  114  115 1    
   226  114  235 1    
   227  115  116 1    
   228  115  117 1    
   229  115  236 1    
   230  116  237 1    
   231  116  238 1    
   232  116  239 1    
   233  117  118 2    
   234  117  119 am   BACKBONE|DICT|INTERRES
   235  119  120 1    
   236  119  240 1    
   237  120  121 1    
   238  120  124 1    
   239  120  241 1    
   240  121  122 am   BACKBONE|DICT|INTERRES
   241  121  123 2    
   242  122  242 1    
   243  122  243 1    
   244  124  125 1    
   245  124  244 1    
   246  124  245 1    
   247  125  126 1    
   248  126  246 1    
   249  126  247 1    
@<TRIPOS>SUBSTRUCTURE
     1 UNK         1 GROUP             0       ****    0 ROOT    
