@<TRIPOS>MOLECULE
3R540
247   249    1
SMALL
USER_CHARGES


@<TRIPOS>ATOM
      1 CA         -1.5659  -13.7203  -42.6322 C.3       0 UNK        -0.1800 
      2 C          -2.4685  -13.2329  -43.7574 C.2       0 UNK         0.5000 
      3 O          -3.6433  -12.9517  -43.5198 O.2       0 UNK        -0.5000 
      4 N          -1.9195  -13.1286  -44.9707 N.am      1 UNK        -0.5000 
      5 CA         -2.5681  -12.5751  -46.1595 C.3       1 UNK         0.1400 
      6 C6         -2.5105  -13.5680  -47.3523 C.3       23 UNK        -0.0398 
      7 S7         -3.5212  -15.0564  -47.0529 S.3       23 UNK        -0.2404 
      8 C8         -3.5725  -15.8236  -48.7058 C.3       23 UNK        -0.0205 
      9 C9         -2.2048  -16.3045  -49.1733 C.ar      23 UNK        -0.0193 
     10 C10        -1.5724  -15.6892  -50.2581 C.ar      23 UNK        -0.1150 
     11 C11        -0.3144  -16.1195  -50.6925 C.ar      23 UNK        -0.0193 
     12 C12         0.3138  -17.1715  -50.0151 C.ar      23 UNK        -0.1150 
     13 C13        -0.3046  -17.7934  -48.9269 C.ar      23 UNK        -0.0193 
     14 C14        -1.5725  -17.3684  -48.5237 C.ar      23 UNK        -0.1150 
     15 C15         0.4221  -18.8949  -48.1710 C.3       23 UNK        -0.0205 
     16 S16         0.1213  -20.5276  -48.9111 S.3       23 UNK        -0.2404 
     17 C17        -1.3158  -21.1379  -47.9647 C.3       23 UNK        -0.0398 
     18 CA         -1.0208  -22.5049  -47.3062 C.3       11 UNK         0.1400 
     19 N           0.0813  -22.4565  -46.3403 N.am      11 UNK        -0.5000 
     20 C           0.8325  -23.5203  -46.0232 C.2       10 UNK         0.5000 
     21 O           0.6665  -24.6417  -46.5032 O.2       10 UNK        -0.5000 
     22 CA          1.9160  -23.2991  -44.9524 C.3       10 UNK         0.1400 
     23 CB          3.1374  -22.5845  -45.5506 C.3       10 UNK        -0.1800 
     24 N           1.4277  -22.5415  -43.7976 N.am      10 UNK        -0.5000 
     25 C           0.4466  -22.9440  -42.9779 C.2       9 UNK         0.5000 
     26 O          -0.1763  -23.9939  -43.1399 O.2       9 UNK        -0.5000 
     27 CA          0.0504  -22.0034  -41.8231 C.3       9 UNK         0.1400 
     28 CB         -0.2874  -22.7682  -40.5265 C.3       9 UNK        -0.1800 
     29 N           0.9977  -20.9109  -41.5728 N.am      9 UNK        -0.5000 
     30 C           2.2274  -20.9775  -41.0355 C.2       8 UNK         0.5000 
     31 O           2.7855  -22.0325  -40.7343 O.2       8 UNK        -0.5000 
     32 CA          2.9714  -19.6419  -40.7977 C.3       8 UNK         0.1400 
     33 CB          4.1076  -19.4750  -41.8190 C.3       8 UNK        -0.1800 
     34 N           2.1068  -18.4610  -40.8689 N.am      8 UNK        -0.5000 
     35 C           1.1163  -18.1672  -40.0113 C.2       7 UNK         0.5000 
     36 O           0.9244  -18.7787  -38.9601 O.2       7 UNK        -0.5000 
     37 CA          0.1434  -17.0371  -40.4165 C.3       7 UNK         0.1400 
     38 CB          0.4377  -15.7578  -39.6185 C.3       7 UNK        -0.1800 
     39 N           0.1677  -16.7127  -41.8459 N.am      7 UNK        -0.5000 
     40 C          -0.1055  -17.5487  -42.8586 C.2       6 UNK         0.5000 
     41 O          -0.5113  -18.6996  -42.6983 O.2       6 UNK        -0.5000 
     42 CA          0.1774  -17.0437  -44.2882 C.3       6 UNK         0.1400 
     43 CB         -1.1372  -16.7989  -45.0359 C.3       6 UNK        -0.1800 
     44 N           0.9910  -15.8262  -44.3641 N.am      6 UNK        -0.5000 
     45 C           2.2464  -15.6727  -43.9264 C.2       5 UNK         0.5000 
     46 O           2.8809  -16.5673  -43.3634 O.2       5 UNK        -0.5000 
     47 CA          2.8695  -14.2767  -44.1471 C.3       5 UNK         0.1400 
     48 CB          4.2535  -14.1402  -43.4878 C.3       5 UNK        -0.1800 
     49 N           2.9888  -13.9377  -45.5668 N.am      5 UNK        -0.5000 
     50 C           1.9878  -13.5916  -46.3861 C.2       4 UNK         0.5000 
     51 O           0.8069  -13.5171  -46.0354 O.2       4 UNK        -0.5000 
     52 CA          2.3745  -13.3710  -47.8537 C.3       4 UNK         0.1400 
     53 CB          2.4376  -14.7323  -48.5700 C.3       4 UNK        -0.1800 
     54 N           1.4178  -12.4893  -48.5266 N.am      4 UNK        -0.5000 
     55 C           1.6546  -11.8864  -49.7016 C.2       3 UNK         0.5000 
     56 O           2.7322  -11.9685  -50.2930 O.2       3 UNK        -0.5000 
     57 CA          0.5248  -11.0694  -50.3589 C.3       3 UNK         0.1400 
     58 CB         -0.1191  -11.8683  -51.5026 C.3       3 UNK        -0.1800 
     59 N          -0.5332  -10.6678  -49.4358 N.am      3 UNK        -0.5000 
     60 C          -0.5828   -9.4953  -48.7898 C.2       2 UNK         0.5000 
     61 O           0.2991   -8.6379  -48.8512 O.2       2 UNK        -0.5000 
     62 CA         -1.8416   -9.2362  -47.9349 C.3       2 UNK         0.1400 
     63 CB         -2.8923   -8.4627  -48.7464 C.3       2 UNK        -0.1800 
     64 N          -2.4466  -10.4689  -47.4181 N.am      2 UNK        -0.5000 
     65 C          -1.8566  -11.2520  -46.5064 C.2       1 UNK         0.5000 
     66 O          -0.7812  -10.9606  -45.9756 O.2       1 UNK        -0.5000 
     67 C          -2.2957  -23.1225  -46.6979 C.2       11 UNK         0.5000 
     68 O          -3.0941  -23.6945  -47.4402 O.2       11 UNK        -0.5000 
     69 N          -2.4530  -23.0418  -45.3682 N.am      12 UNK        -0.5000 
     70 CA         -3.5379  -23.6918  -44.6292 C.3       12 UNK         0.1400 
     71 CB         -3.6121  -23.1312  -43.2011 C.3       12 UNK        -0.1800 
     72 C          -3.3780  -25.2225  -44.6207 C.2       12 UNK         0.5000 
     73 O          -4.3544  -25.9360  -44.8496 O.2       12 UNK        -0.5000 
     74 N          -2.1371  -25.6982  -44.4368 N.am      13 UNK        -0.5000 
     75 CA         -1.7515  -27.1077  -44.5555 C.3       13 UNK         0.1400 
     76 CB         -0.2984  -27.2746  -44.0871 C.3       13 UNK        -0.1800 
     77 C          -1.9328  -27.6671  -45.9822 C.2       13 UNK         0.5000 
     78 O          -2.2104  -28.8561  -46.1387 O.2       13 UNK        -0.5000 
     79 N          -1.8211  -26.7904  -46.9894 N.am      14 UNK        -0.5000 
     80 CA         -2.1041  -27.0691  -48.3989 C.3       14 UNK         0.1400 
     81 CB         -1.2495  -26.1327  -49.2692 C.3       14 UNK        -0.1800 
     82 C          -3.6017  -26.9366  -48.7571 C.2       14 UNK         0.5000 
     83 O          -3.9374  -26.9876  -49.9407 O.2       14 UNK        -0.5000 
     84 N          -4.4745  -26.7379  -47.7559 N.am      15 UNK        -0.5000 
     85 CA         -5.9331  -26.6065  -47.8597 C.3       15 UNK         0.1400 
     86 CB         -6.5664  -27.9452  -48.2927 C.3       15 UNK        -0.1800 
     87 C          -6.3814  -25.4177  -48.7368 C.2       15 UNK         0.5000 
     88 O          -7.3990  -25.5070  -49.4253 O.2       15 UNK        -0.5000 
     89 N          -5.5932  -24.3330  -48.7059 N.am      16 UNK        -0.5000 
     90 CA         -5.7396  -23.0843  -49.4595 C.3       16 UNK         0.1400 
     91 CB         -7.0758  -22.3824  -49.1440 C.3       16 UNK        -0.1800 
     92 C          -5.4907  -23.2118  -50.9769 C.2       16 UNK         0.5000 
     93 O          -5.6348  -22.2151  -51.6855 O.2       16 UNK        -0.5000 
     94 N          -5.0614  -24.3873  -51.4626 N.am      17 UNK        -0.5000 
     95 CA         -4.6992  -24.6028  -52.8674 C.3       17 UNK         0.1400 
     96 CB         -4.4993  -26.1022  -53.1301 C.3       17 UNK        -0.1800 
     97 C          -3.4435  -23.8065  -53.2646 C.2       17 UNK         0.5000 
     98 O          -3.3902  -23.2456  -54.3594 O.2       17 UNK        -0.5000 
     99 N          -2.4805  -23.7234  -52.3359 N.am      18 UNK        -0.5000 
    100 CA        -1.2799  -22.9017  -52.4693 C.3       18 UNK         0.1400 
    101 CB        -0.2756  -23.2759  -51.3727 C.3       18 UNK        -0.1800 
    102 C         -1.5965  -21.3962  -52.4378 C.2       18 UNK         0.5000 
    103 O         -0.9966  -20.6474  -53.2046 O.2       18 UNK        -0.5000 
    104 N         -2.5639  -20.9839  -51.6031 N.am      19 UNK        -0.5000 
    105 CA        -3.0502  -19.6022  -51.5326 C.3       19 UNK         0.1400 
    106 CB        -3.9779  -19.4161  -50.3217 C.3       19 UNK        -0.1800 
    107 C         -3.7629  -19.1728  -52.8262 C.2       19 UNK         0.5000 
    108 O         -3.5347  -18.0620  -53.3040 O.2       19 UNK        -0.5000 
    109 N         -4.5789  -20.0752  -53.3895 N.am      20 UNK        -0.5000 
    110 CA        -5.2668  -19.8926  -54.6681 C.3       20 UNK         0.1400 
    111 CB        -6.2590  -21.0454  -54.8833 C.3       20 UNK        -0.1800 
    112 C         -4.2987  -19.7700  -55.8609 C.2       20 UNK         0.5000 
    113 O         -4.5532  -18.9727  -56.7643 O.2       20 UNK        -0.5000 
    114 N         -3.2012  -20.5396  -55.8337 N.am      21 UNK        -0.5000 
    115 CA        -2.1130  -20.4588  -56.8093 C.3       21 UNK         0.1400 
    116 CB        -1.2273  -21.7089  -56.6902 C.3       21 UNK        -0.1800 
    117 C         -1.2769  -19.1733  -56.6501 C.2       21 UNK         0.5000 
    118 O         -0.9328  -18.5430  -57.6508 O.2       21 UNK        -0.5000 
    119 N         -0.9697  -18.8155  -55.3976 N.am      22 UNK        -0.5000 
    120 CA        -0.2451  -17.6012  -54.9985 C.3       22 UNK         0.1400 
    121 C         -1.0135  -16.2884  -55.3241 C.2       22 UNK         0.5000 
    122 N         -2.2950  -16.1896  -54.9953 N.am      22 UNK        -0.7600 
    123 O         -0.4472  -15.3583  -55.8919 O.2       22 UNK        -0.5000 
    124 C124        0.1462  -17.6932  -53.5032 C.3       23 UNK        -0.0398 
    125 S125        1.3743  -16.4662  -52.9471 S.3       23 UNK        -0.2404 
    126 C126        0.3569  -15.4033  -51.8656 C.3       23 UNK        -0.0205 
    127 H127       -0.5297  -13.8113  -42.9569 H         1 UNK         0.0600 
    128 H128       -1.9043  -14.6929  -42.2755 H         1 UNK         0.0600 
    129 H129       -1.5960  -13.0212  -41.7966 H         1 UNK         0.0600 
    130 H130       -0.9237  -13.2806  -45.0972 H         1 UNK         0.3000 
    131 H131       -3.6131  -12.3349  -45.9532 H         1 UNK         0.0600 
    132 H132       -1.4836  -13.8796  -47.5523 H         1 UNK         0.0800 
    133 H133       -2.8777  -13.1011  -48.2674 H         1 UNK         0.0800 
    134 H134       -4.0041  -15.1189  -49.4181 H         1 UNK         0.0800 
    135 H135       -4.2535  -16.6741  -48.6684 H         1 UNK         0.0800 
    136 H136       -2.0610  -14.8691  -50.7649 H         1 UNK         0.1150 
    137 H137        1.2970  -17.4988  -50.3210 H         1 UNK         0.1150 
    138 H138       -2.0603  -17.8467  -47.6867 H         1 UNK         0.1150 
    139 H139        1.4953  -18.6994  -48.1920 H         1 UNK         0.0800 
    140 H140        0.1413  -18.8909  -47.1174 H         1 UNK         0.0800 
    141 H141       -2.1425  -21.2387  -48.6674 H         1 UNK         0.0800 
    142 H142       -1.6295  -20.4039  -47.2212 H         1 UNK         0.0800 
    143 H143       -0.7185  -23.1808  -48.1067 H         1 UNK         0.0600 
    144 H144        0.2857  -21.5651  -45.9147 H         1 UNK         0.3000 
    145 H145        2.2345  -24.2812  -44.5963 H         1 UNK         0.0600 
    146 H146        3.9418  -22.5006  -44.8194 H         1 UNK         0.0600 
    147 H147        3.5323  -23.1364  -46.4046 H         1 UNK         0.0600 
    148 H148        2.8911  -21.5793  -45.8952 H         1 UNK         0.0600 
    149 H149        1.8869  -21.6666  -43.5946 H         1 UNK         0.3000 
    150 H150       -0.8677  -21.5150  -42.1522 H         1 UNK         0.0600 
    151 H151       -1.1192  -23.4561  -40.6812 H         1 UNK         0.0600 
    152 H152       -0.5792  -22.0835  -39.7300 H         1 UNK         0.0600 
    153 H153        0.5568  -23.3589  -40.1705 H         1 UNK         0.0600 
    154 H154        0.6376  -19.9935  -41.8195 H         1 UNK         0.3000 
    155 H155        3.4078  -19.6840  -39.7978 H         1 UNK         0.0600 
    156 H156        3.7252  -19.4111  -42.8387 H         1 UNK         0.0600 
    157 H157        4.8002  -20.3167  -41.7786 H         1 UNK         0.0600 
    158 H158        4.6844  -18.5709  -41.6226 H         1 UNK         0.0600 
    159 H159        2.2201  -17.8762  -41.6887 H         1 UNK         0.3000 
    160 H160       -0.8656  -17.3741  -40.1708 H         1 UNK         0.0600 
    161 H161        1.4287  -15.3622  -39.8451 H         1 UNK         0.0600 
    162 H162        0.3975  -15.9480  -38.5451 H         1 UNK         0.0600 
    163 H163       -0.2937  -14.9791  -39.8360 H         1 UNK         0.0600 
    164 H164        0.5139  -15.7965  -42.0848 H         1 UNK         0.3000 
    165 H165        0.7264  -17.8318  -44.8068 H         1 UNK         0.0600 
    166 H166       -0.9502  -16.3860  -46.0262 H         1 UNK         0.0600 
    167 H167       -1.6958  -17.7268  -45.1635 H         1 UNK         0.0600 
    168 H168       -1.7819  -16.1003  -44.5033 H         1 UNK         0.0600 
    169 H169        0.5947  -15.0494  -44.8831 H         1 UNK         0.3000 
    170 H170        2.2056  -13.5498  -43.6742 H         1 UNK         0.0600 
    171 H171        4.9778  -14.8298  -43.9233 H         1 UNK         0.0600 
    172 H172        4.6448  -13.1287  -43.5980 H         1 UNK         0.0600 
    173 H173        4.2006  -14.3508  -42.4188 H         1 UNK         0.0600 
    174 H174        3.9171  -14.0214  -45.9554 H         1 UNK         0.3000 
    175 H175        3.3600  -12.9009  -47.8777 H         1 UNK         0.0600 
    176 H176        1.4683  -15.2277  -48.5360 H         1 UNK         0.0600 
    177 H177        2.7310  -14.6334  -49.6147 H         1 UNK         0.0600 
    178 H178        3.1602  -15.3975  -48.0960 H         1 UNK         0.0600 
    179 H179        0.5491  -12.3370  -48.0327 H         1 UNK         0.3000 
    180 H180        0.9849  -10.1802  -50.7957 H         1 UNK         0.0600 
    181 H181       -0.8355  -11.2580  -52.0528 H         1 UNK         0.0600 
    182 H182       -0.6470  -12.7459  -51.1294 H         1 UNK         0.0600 
    183 H183        0.6304  -12.2087  -52.2185 H         1 UNK         0.0600 
    184 H184       -1.3115  -11.3006  -49.3362 H         1 UNK         0.3000 
    185 H185       -1.5432   -8.6168  -47.0862 H         1 UNK         0.0600 
    186 H186       -3.7575   -8.2104  -48.1331 H         1 UNK         0.0600 
    187 H187       -2.4806   -7.5264  -49.1256 H         1 UNK         0.0600 
    188 H188       -3.2433   -9.0378  -49.6042 H         1 UNK         0.0600 
    189 H189       -3.3434  -10.7303  -47.8028 H         1 UNK         0.3000 
    190 H190       -1.7368  -22.5886  -44.8224 H         1 UNK         0.3000 
    191 H191       -4.4789  -23.4570  -45.1317 H         1 UNK         0.0600 
    192 H192       -4.4653  -23.5499  -42.6659 H         1 UNK         0.0600 
    193 H193       -3.7326  -22.0477  -43.2068 H         1 UNK         0.0600 
    194 H194       -2.7200  -23.3678  -42.6229 H         1 UNK         0.0600 
    195 H195       -1.3955  -25.0488  -44.1881 H         1 UNK         0.3000 
    196 H196       -2.3943  -27.6874  -43.8900 H         1 UNK         0.0600 
    197 H197        0.3916  -26.6972  -44.7030 H         1 UNK         0.0600 
    198 H198       -0.1775  -26.9466  -43.0544 H         1 UNK         0.0600 
    199 H199        0.0115  -28.3192  -44.1358 H         1 UNK         0.0600 
    200 H200       -1.5601  -25.8408  -46.7635 H         1 UNK         0.3000 
    201 H201       -1.8091  -28.0964  -48.6215 H         1 UNK         0.0600 
    202 H202       -1.5780  -25.0985  -49.1829 H         1 UNK         0.0600 
    203 H203       -1.3149  -26.4086  -50.3224 H         1 UNK         0.0600 
    204 H204       -0.1970  -26.1767  -48.9880 H         1 UNK         0.0600 
    205 H205       -4.1097  -26.6562  -46.8143 H         1 UNK         0.3000 
    206 H206       -6.2899  -26.3858  -46.8529 H         1 UNK         0.0600 
    207 H207       -6.2418  -28.7612  -47.6470 H         1 UNK         0.0600 
    208 H208       -7.6546  -27.9013  -48.2347 H         1 UNK         0.0600 
    209 H209       -6.3040  -28.2045  -49.3189 H         1 UNK         0.0600 
    210 H210       -4.7557  -24.3705  -48.1295 H         1 UNK         0.3000 
    211 H211       -4.9452  -22.4344  -49.0909 H         1 UNK         0.0600 
    212 H212       -7.0989  -21.3780  -49.5686 H         1 UNK         0.0600 
    213 H213       -7.2243  -22.2813  -48.0689 H         1 UNK         0.0600 
    214 H214       -7.9284  -22.9246  -49.5530 H         1 UNK         0.0600 
    215 H215       -4.9497  -25.1737  -50.8340 H         1 UNK         0.3000 
    216 H216       -5.5276  -24.2556  -53.4886 H         1 UNK         0.0600 
    217 H217       -3.6535  -26.5020  -52.5698 H         1 UNK         0.0600 
    218 H218       -4.3082  -26.2889  -54.1875 H         1 UNK         0.0600 
    219 H219       -5.3852  -26.6737  -52.8526 H         1 UNK         0.0600 
    220 H220       -2.6049  -24.2249  -51.4695 H         1 UNK         0.3000 
    221 H221       -0.8219  -23.1233  -53.4357 H         1 UNK         0.0600 
    222 H222        0.0255  -24.3206  -51.4506 H         1 UNK         0.0600 
    223 H223       -0.6952  -23.1184  -50.3813 H         1 UNK         0.0600 
    224 H224        0.6285  -22.6699  -51.4463 H         1 UNK         0.0600 
    225 H225       -3.0464  -21.6691  -51.0450 H         1 UNK         0.3000 
    226 H226       -2.1875  -18.9467  -51.3948 H         1 UNK         0.0600 
    227 H227       -4.8076  -20.1212  -50.3258 H         1 UNK         0.0600 
    228 H228       -3.4391  -19.5295  -49.3833 H         1 UNK         0.0600 
    229 H229       -4.4082  -18.4144  -50.3192 H         1 UNK         0.0600 
    230 H230       -4.7639  -20.9424  -52.8942 H         1 UNK         0.3000 
    231 H231       -5.8356  -18.9625  -54.6076 H         1 UNK         0.0600 
    232 H232       -5.7524  -22.0092  -54.9364 H         1 UNK         0.0600 
    233 H233       -6.8142  -20.9143  -55.8128 H         1 UNK         0.0600 
    234 H234       -6.9867  -21.0954  -54.0730 H         1 UNK         0.0600 
    235 H235       -3.0991  -21.2156  -55.0861 H         1 UNK         0.3000 
    236 H236       -2.5509  -20.4512  -57.8097 H         1 UNK         0.0600 
    237 H237       -1.8049  -22.6179  -56.8593 H         1 UNK         0.0600 
    238 H238       -0.4248  -21.6900  -57.4285 H         1 UNK         0.0600 
    239 H239       -0.7659  -21.7860  -55.7055 H         1 UNK         0.0600 
    240 H240       -1.2420  -19.4332  -54.6384 H         1 UNK         0.3000 
    241 H241        0.6787  -17.5849  -55.5800 H         1 UNK         0.0600 
    242 H242       -2.7997  -15.3470  -55.2160 H         1 UNK         0.3800 
    243 H243       -2.7612  -16.9328  -54.4765 H         1 UNK         0.3800 
    244 H244        0.6019  -18.6639  -53.3079 H         1 UNK         0.0800 
    245 H245       -0.7453  -17.6555  -52.8769 H         1 UNK         0.0800 
    246 H246        0.9966  -14.6176  -51.4639 H         1 UNK         0.0800 
    247 H247       -0.3935  -14.9100  -52.4855 H         1 UNK         0.0800 
@<TRIPOS>BOND
     1    1    2 1    
     2    1  127 1    
     3    1  128 1    
     4    1  129 1    
     5    2    3 2    
     6    2    4 am   BACKBONE|DICT|INTERRES
     7    4    5 1    
     8    4  130 1    
     9    5    6 1    
    10    5   65 1    
    11    5  131 1    
    12    6    7 1    
    13    6  132 1    
    14    6  133 1    
    15    7    8 1    
    16    8    9 1    
    17    8  134 1    
    18    8  135 1    
    19    9   10 ar   
    20    9   14 ar   
    21   10   11 ar   
    22   10  136 1    
    23   11   12 ar   
    24   11  126 1    
    25   12   13 ar   
    26   12  137 1    
    27   13   14 ar   
    28   13   15 1    
    29   14  138 1    
    30   15   16 1    
    31   15  139 1    
    32   15  140 1    
    33   16   17 1    
    34   17   18 1    
    35   17  141 1    
    36   17  142 1    
    37   18   19 1    
    38   18   67 1    
    39   18  143 1    
    40   19   20 am   BACKBONE|DICT|INTERRES
    41   19  144 1    
    42   20   21 2    
    43   20   22 1    
    44   22   23 1    
    45   22   24 1    
    46   22  145 1    
    47   23  146 1    
    48   23  147 1    
    49   23  148 1    
    50   24   25 am   BACKBONE|DICT|INTERRES
    51   24  149 1    
    52   25   26 2    
    53   25   27 1    
    54   27   28 1    
    55   27   29 1    
    56   27  150 1    
    57   28  151 1    
    58   28  152 1    
    59   28  153 1    
    60   29   30 am   BACKBONE|DICT|INTERRES
    61   29  154 1    
    62   30   31 2    
    63   30   32 1    
    64   32   33 1    
    65   32   34 1    
    66   32  155 1    
    67   33  156 1    
    68   33  157 1    
    69   33  158 1    
    70   34   35 am   BACKBONE|DICT|INTERRES
    71   34  159 1    
    72   35   36 2    
    73   35   37 1    
    74   37   38 1    
    75   37   39 1    
    76   37  160 1    
    77   38  161 1    
    78   38  162 1    
    79   38  163 1    
    80   39   40 am   BACKBONE|DICT|INTERRES
    81   39  164 1    
    82   40   41 2    
    83   40   42 1    
    84   42   43 1    
    85   42   44 1    
    86   42  165 1    
    87   43  166 1    
    88   43  167 1    
    89   43  168 1    
    90   44   45 am   BACKBONE|DICT|INTERRES
    91   44  169 1    
    92   45   46 2    
    93   45   47 1    
    94   47   48 1    
    95   47   49 1    
    96   47  170 1    
    97   48  171 1    
    98   48  172 1    
    99   48  173 1    
   100   49   50 am   BACKBONE|DICT|INTERRES
   101   49  174 1    
   102   50   51 2    
   103   50   52 1    
   104   52   53 1    
   105   52   54 1    
   106   52  175 1    
   107   53  176 1    
   108   53  177 1    
   109   53  178 1    
   110   54   55 am   BACKBONE|DICT|INTERRES
   111   54  179 1    
   112   55   56 2    
   113   55   57 1    
   114   57   58 1    
   115   57   59 1    
   116   57  180 1    
   117   58  181 1    
   118   58  182 1    
   119   58  183 1    
   120   59   60 am   BACKBONE|DICT|INTERRES
   121   59  184 1    
   122   60   61 2    
   123   60   62 1    
   124   62   63 1    
   125   62   64 1    
   126   62  185 1    
   127   63  186 1    
   128   63  187 1    
   129   63  188 1    
   130   64   65 am   BACKBONE|DICT|INTERRES
   131   64  189 1    
   132   65   66 2    
   133   67   68 2    
   134   67   69 am   BACKBONE|DICT|INTERRES
   135   69   70 1    
   136   69  190 1    
   137   70   71 1    
   138   70   72 1    
   139   70  191 1    
   140   71  192 1    
   141   71  193 1    
   142   71  194 1    
   143   72   73 2    
   144   72   74 am   BACKBONE|DICT|INTERRES
   145   74   75 1    
   146   74  195 1    
   147   75   76 1    
   148   75   77 1    
   149   75  196 1    
   150   76  197 1    
   151   76  198 1    
   152   76  199 1    
   153   77   78 2    
   154   77   79 am   BACKBONE|DICT|INTERRES
   155   79   80 1    
   156   79  200 1    
   157   80   81 1    
   158   80   82 1    
   159   80  201 1    
   160   81  202 1    
   161   81  203 1    
   162   81  204 1    
   163   82   83 2    
   164   82   84 am   BACKBONE|DICT|INTERRES
   165   84   85 1    
   166   84  205 1    
   167   85   86 1    
   168   85   87 1    
   169   85  206 1    
   170   86  207 1    
   171   86  208 1    
   172   86  209 1    
   173   87   88 2    
   174   87   89 am   BACKBONE|DICT|INTERRES
   175   89   90 1    
   176   89  210 1    
   177   90   91 1    
   178   90   92 1    
   179   90  211 1    
   180   91  212 1    
   181   91  213 1    
   182   91  214 1    
   183   92   93 2    
   184   92   94 am   BACKBONE|DICT|INTERRES
   185   94   95 1    
   186   94  215 1    
   187   95   96 1    
   188   95   97 1    
   189   95  216 1    
   190   96  217 1    
   191   96  218 1    
   192   96  219 1    
   193   97   98 2    
   194   97   99 am   BACKBONE|DICT|INTERRES
   195   99  100 1    
   196   99  220 1    
   197  100  101 1    
   198  100  102 1    
   199  100  221 1    
   200  101  222 1    
   201  101  223 1    
   202  101  224 1    
   203  102  103 2    
   204  102  104 am   BACKBONE|DICT|INTERRES
   205  104  105 1    
   206  104  225 1    
   207  105  106 1    
   208  105  107 1    
   209  105  226 1    
   210  106  227 1    
   211  106  228 1    
   212  106  229 1    
   213  107  108 2    
   214  107  109 am   BACKBONE|DICT|INTERRES
   215  109  110 1    
   216  109  230 1    
   217  110  111 1    
   218  110  112 1    
   219  110  231 1    
   220  111  232 1    
   221  111  233 1    
   222  111  234 1    
   223  112  113 2    
   224  112  114 am   BACKBONE|DICT|INTERRES
   225  114  115 1    
   226  114  235 1    
   227  115  116 1    
   228  115  117 1    
   229  115  236 1    
   230  116  237 1    
   231  116  238 1    
   232  116  239 1    
   233  117  118 2    
   234  117  119 am   BACKBONE|DICT|INTERRES
   235  119  120 1    
   236  119  240 1    
   237  120  121 1    
   238  120  124 1    
   239  120  241 1    
   240  121  122 am   BACKBONE|DICT|INTERRES
   241  121  123 2    
   242  122  242 1    
   243  122  243 1    
   244  124  125 1    
   245  124  244 1    
   246  124  245 1    
   247  125  126 1    
   248  126  246 1    
   249  126  247 1    
@<TRIPOS>SUBSTRUCTURE
     1 UNK         1 GROUP             0       ****    0 ROOT    
