@<TRIPOS>MOLECULE
3R540
247   249    1
SMALL
USER_CHARGES


@<TRIPOS>ATOM
      1 CA          3.6899  -11.7193  -43.7731 C.3       0 UNK        -0.1800 
      2 C           2.2689  -11.4543  -44.2505 C.2       0 UNK         0.5000 
      3 O           1.7874  -10.3276  -44.1336 O.2       0 UNK        -0.5000 
      4 N           1.5952  -12.4843  -44.7793 N.am      1 UNK        -0.5000 
      5 CA          0.2431  -12.4104  -45.3461 C.3       1 UNK         0.1400 
      6 C6         -0.3141  -13.8382  -45.5830 C.3       23 UNK        -0.0398 
      7 S7         -2.0486  -13.9099  -46.1592 S.3       23 UNK        -0.2404 
      8 C8         -1.8561  -14.1463  -47.9564 C.3       23 UNK        -0.0205 
      9 C9         -1.6266  -15.6005  -48.3448 C.ar      23 UNK        -0.0193 
     10 C10        -2.7030  -16.3996  -48.7398 C.ar      23 UNK        -0.1150 
     11 C11        -2.4921  -17.7118  -49.1740 C.ar      23 UNK        -0.0193 
     12 C12        -1.1975  -18.2378  -49.1714 C.ar      23 UNK        -0.1150 
     13 C13        -0.1125  -17.4596  -48.7499 C.ar      23 UNK        -0.0193 
     14 C14        -0.3359  -16.1360  -48.3629 C.ar      23 UNK        -0.1150 
     15 C15         1.3165  -17.9977  -48.7268 C.3       23 UNK        -0.0205 
     16 S16         1.4731  -19.7796  -48.3689 S.3       23 UNK        -0.2404 
     17 C17         0.6338  -19.9359  -46.7534 C.3       23 UNK        -0.0398 
     18 CA          0.2181  -21.3984  -46.4710 C.3       11 UNK         0.1400 
     19 N          -0.0225  -21.6349  -45.0465 N.am      11 UNK        -0.5000 
     20 C          -0.1552  -22.8505  -44.4975 C.2       10 UNK         0.5000 
     21 O          -0.0366  -23.9011  -45.1258 O.2       10 UNK        -0.5000 
     22 CA         -0.5391  -22.9000  -43.0107 C.3       10 UNK         0.1400 
     23 CB          0.6967  -22.7153  -42.1186 C.3       10 UNK        -0.1800 
     24 N          -1.5513  -21.8953  -42.6847 N.am      10 UNK        -0.5000 
     25 C          -2.8274  -21.9633  -43.0906 C.2       9 UNK         0.5000 
     26 O          -3.2848  -22.8996  -43.7454 O.2       9 UNK        -0.5000 
     27 CA         -3.7354  -20.7714  -42.7379 C.3       9 UNK         0.1400 
     28 CB         -4.3167  -20.9345  -41.3258 C.3       9 UNK        -0.1800 
     29 N          -3.0491  -19.4824  -42.8333 N.am      9 UNK        -0.5000 
     30 C          -2.5911  -18.9447  -43.9731 C.2       8 UNK         0.5000 
     31 O          -2.6967  -19.4791  -45.0749 O.2       8 UNK        -0.5000 
     32 CA         -1.8423  -17.6066  -43.8478 C.3       8 UNK         0.1400 
     33 CB         -2.8445  -16.4479  -43.7499 C.3       8 UNK        -0.1800 
     34 N          -0.9405  -17.5535  -42.6951 N.am      8 UNK        -0.5000 
     35 C           0.0528  -18.4134  -42.4381 C.2       7 UNK         0.5000 
     36 O           0.3294  -19.3762  -43.1572 O.2       7 UNK        -0.5000 
     37 CA          0.8783  -18.1215  -41.1715 C.3       7 UNK         0.1400 
     38 CB          1.6701  -19.3476  -40.6863 C.3       7 UNK        -0.1800 
     39 N           1.8116  -17.0271  -41.4159 N.am      7 UNK        -0.5000 
     40 C           1.4997  -15.7243  -41.4516 C.2       6 UNK         0.5000 
     41 O           0.3729  -15.2850  -41.2184 O.2       6 UNK        -0.5000 
     42 CA          2.6360  -14.7551  -41.8269 C.3       6 UNK         0.1400 
     43 CB          3.2925  -14.1733  -40.5666 C.3       6 UNK        -0.1800 
     44 N           3.6623  -15.4020  -42.6488 N.am      6 UNK        -0.5000 
     45 C           3.5280  -15.6561  -43.9558 C.2       5 UNK         0.5000 
     46 O           2.5782  -15.2606  -44.6357 O.2       5 UNK        -0.5000 
     47 CA          4.6481  -16.4833  -44.6121 C.3       5 UNK         0.1400 
     48 CB          4.0682  -17.6897  -45.3685 C.3       5 UNK        -0.1800 
     49 N           5.4236  -15.6618  -45.5359 N.am      5 UNK        -0.5000 
     50 C           6.2426  -14.6648  -45.1738 C.2       4 UNK         0.5000 
     51 O           6.5309  -14.4137  -44.0029 O.2       4 UNK        -0.5000 
     52 CA          6.8400  -13.7943  -46.3006 C.3       4 UNK         0.1400 
     53 CB          8.3048  -14.1814  -46.5572 C.3       4 UNK        -0.1800 
     54 N           6.1076  -13.8442  -47.5721 N.am      4 UNK        -0.5000 
     55 C           4.8430  -13.4406  -47.7466 C.2       3 UNK         0.5000 
     56 O           4.1280  -13.0199  -46.8320 O.2       3 UNK        -0.5000 
     57 CA          4.2717  -13.5668  -49.1746 C.3       3 UNK         0.1400 
     58 CB          4.0473  -15.0447  -49.5371 C.3       3 UNK        -0.1800 
     59 N           2.9896  -12.8740  -49.2619 N.am      3 UNK        -0.5000 
     60 C           2.8393  -11.5419  -49.2555 C.2       2 UNK         0.5000 
     61 O           3.7346  -10.7372  -49.5143 O.2       2 UNK        -0.5000 
     62 CA          1.4788  -11.0514  -48.7503 C.3       2 UNK         0.1400 
     63 CB          0.3712  -11.3323  -49.7867 C.3       2 UNK        -0.1800 
     64 N           1.2373  -11.7326  -47.4768 N.am      2 UNK        -0.5000 
     65 C           0.2182  -11.5484  -46.6312 C.2       1 UNK         0.5000 
     66 O          -0.6937  -10.7413  -46.8157 O.2       1 UNK        -0.5000 
     67 C          -0.9756  -21.8635  -47.3379 C.2       11 UNK         0.5000 
     68 O          -0.7643  -22.5120  -48.3622 O.2       11 UNK        -0.5000 
     69 N          -2.2086  -21.5950  -46.8843 N.am      12 UNK        -0.5000 
     70 CA         -3.4415  -22.0820  -47.5034 C.3       12 UNK         0.1400 
     71 CB         -4.6597  -21.4455  -46.8202 C.3       12 UNK        -0.1800 
     72 C          -3.5568  -23.6157  -47.5024 C.2       12 UNK         0.5000 
     73 O          -3.9817  -24.1771  -48.5109 O.2       12 UNK        -0.5000 
     74 N          -3.1554  -24.2599  -46.3976 N.am      13 UNK        -0.5000 
     75 CA         -3.0999  -25.7166  -46.2630 C.3       13 UNK         0.1400 
     76 CB         -2.9128  -26.0908  -44.7854 C.3       13 UNK        -0.1800 
     77 C          -2.0006  -26.3556  -47.1324 C.2       13 UNK         0.5000 
     78 O          -2.2242  -27.4265  -47.6974 O.2       13 UNK        -0.5000 
     79 N          -0.8450  -25.6844  -47.2538 N.am      14 UNK        -0.5000 
     80 CA          0.2471  -26.0662  -48.1549 C.3       14 UNK         0.1400 
     81 CB          1.4890  -25.2106  -47.8644 C.3       14 UNK        -0.1800 
     82 C          -0.1621  -25.9642  -49.6369 C.2       14 UNK         0.5000 
     83 O           0.1965  -26.8328  -50.4316 O.2       14 UNK        -0.5000 
     84 N          -0.9763  -24.9517  -49.9606 N.am      15 UNK        -0.5000 
     85 CA         -1.6650  -24.7679  -51.2385 C.3       15 UNK         0.1400 
     86 CB         -1.8785  -23.2603  -51.4669 C.3       15 UNK        -0.1800 
     87 C          -2.9931  -25.5579  -51.3124 C.2       15 UNK         0.5000 
     88 O          -3.9381  -25.0960  -51.9549 O.2       15 UNK        -0.5000 
     89 N          -3.0568  -26.7171  -50.6409 N.am      16 UNK        -0.5000 
     90 CA         -4.1760  -27.6544  -50.4946 C.3       16 UNK         0.1400 
     91 CB         -4.6081  -28.2344  -51.8565 C.3       16 UNK        -0.1800 
     92 C          -5.3719  -27.0787  -49.7129 C.2       16 UNK         0.5000 
     93 O          -5.7147  -27.5960  -48.6489 O.2       16 UNK        -0.5000 
     94 N          -5.9806  -26.0255  -50.2599 N.am      17 UNK        -0.5000 
     95 CA         -7.1060  -25.2843  -49.7037 C.3       17 UNK         0.1400 
     96 CB         -8.4155  -26.0790  -49.8868 C.3       17 UNK        -0.1800 
     97 C          -7.1417  -23.8931  -50.3571 C.2       17 UNK         0.5000 
     98 O          -8.1707  -23.4925  -50.9036 O.2       17 UNK        -0.5000 
     99 N          -5.9910  -23.2032  -50.3224 N.am      18 UNK        -0.5000 
    100 CA        -5.7266  -21.8924  -50.9316 C.3       18 UNK         0.1400 
    101 CB        -6.5699  -20.7972  -50.2465 C.3       18 UNK        -0.1800 
    102 C         -5.8799  -21.8974  -52.4707 C.2       18 UNK         0.5000 
    103 O         -6.3411  -20.9155  -53.0581 O.2       18 UNK        -0.5000 
    104 N         -5.4837  -23.0122  -53.1022 N.am      19 UNK        -0.5000 
    105 CA        -5.6395  -23.2726  -54.5350 C.3       19 UNK         0.1400 
    106 CB        -5.4721  -24.7784  -54.7919 C.3       19 UNK        -0.1800 
    107 C         -4.6764  -22.4632  -55.4228 C.2       19 UNK         0.5000 
    108 O         -4.9069  -22.3655  -56.6282 O.2       19 UNK        -0.5000 
    109 N         -3.6384  -21.8638  -54.8240 N.am      20 UNK        -0.5000 
    110 CA        -2.6334  -21.0084  -55.4644 C.3       20 UNK         0.1400 
    111 CB        -1.3818  -20.9809  -54.5677 C.3       20 UNK        -0.1800 
    112 C         -3.1576  -19.5882  -55.7897 C.2       20 UNK         0.5000 
    113 O         -2.4266  -18.6102  -55.6297 O.2       20 UNK        -0.5000 
    114 N         -4.4274  -19.5011  -56.2118 N.am      21 UNK        -0.5000 
    115 CA        -5.2142  -18.3099  -56.5586 C.3       21 UNK         0.1400 
    116 CB        -4.5870  -17.5731  -57.7599 C.3       21 UNK        -0.1800 
    117 C         -5.5052  -17.3488  -55.3839 C.2       21 UNK         0.5000 
    118 O         -6.1213  -16.3045  -55.6050 O.2       21 UNK        -0.5000 
    119 N         -5.0765  -17.7019  -54.1668 N.am      22 UNK        -0.5000 
    120 CA        -5.2350  -16.8957  -52.9496 C.3       22 UNK         0.1400 
    121 C         -6.5817  -17.1070  -52.2009 C.2       22 UNK         0.5000 
    122 N         -7.3445  -18.1566  -52.4800 N.am      22 UNK        -0.7600 
    123 O         -6.9539  -16.2855  -51.3676 O.2       22 UNK        -0.5000 
    124 C124       -4.0049  -17.0299  -52.0180 C.3       23 UNK        -0.0398 
    125 S125       -3.6370  -18.7399  -51.4799 S.3       23 UNK        -0.2404 
    126 C126       -3.6561  -18.5588  -49.6664 C.3       23 UNK        -0.0205 
    127 H127        3.7578  -11.5844  -42.6939 H         1 UNK         0.0600 
    128 H128        4.3811  -11.0254  -44.2513 H         1 UNK         0.0600 
    129 H129        4.0153  -12.7307  -44.0126 H         1 UNK         0.0600 
    130 H130        2.0481  -13.3932  -44.8412 H         1 UNK         0.3000 
    131 H131       -0.3963  -11.9185  -44.6100 H         1 UNK         0.0600 
    132 H132        0.3328  -14.3843  -46.2652 H         1 UNK         0.0800 
    133 H133       -0.2706  -14.3956  -44.6460 H         1 UNK         0.0800 
    134 H134       -1.0402  -13.5297  -48.3300 H         1 UNK         0.0800 
    135 H135       -2.7557  -13.7737  -48.4485 H         1 UNK         0.0800 
    136 H136       -3.7026  -15.9884  -48.7377 H         1 UNK         0.1150 
    137 H137       -1.0408  -19.2526  -49.5088 H         1 UNK         0.1150 
    138 H138        0.5068  -15.5211  -48.0870 H         1 UNK         0.1150 
    139 H139        1.7769  -17.7960  -49.6947 H         1 UNK         0.0800 
    140 H140        1.9042  -17.4548  -47.9864 H         1 UNK         0.0800 
    141 H141       -0.2284  -19.2704  -46.6920 H         1 UNK         0.0800 
    142 H142        1.3340  -19.5912  -45.9909 H         1 UNK         0.0800 
    143 H143        1.0659  -22.0334  -46.7382 H         1 UNK         0.0600 
    144 H144       -0.0977  -20.8182  -44.4473 H         1 UNK         0.3000 
    145 H145       -0.9590  -23.8867  -42.8034 H         1 UNK         0.0600 
    146 H146        0.4297  -22.7286  -41.0619 H         1 UNK         0.0600 
    147 H147        1.2100  -21.7772  -42.3275 H         1 UNK         0.0600 
    148 H148        1.4144  -23.5199  -42.2830 H         1 UNK         0.0600 
    149 H149       -1.2350  -21.0669  -42.2032 H         1 UNK         0.3000 
    150 H150       -4.5648  -20.7640  -43.4479 H         1 UNK         0.0600 
    151 H151       -4.8516  -21.8806  -41.2314 H         1 UNK         0.0600 
    152 H152       -5.0250  -20.1382  -41.0965 H         1 UNK         0.0600 
    153 H153       -3.5367  -20.9208  -40.5634 H         1 UNK         0.0600 
    154 H154       -2.9107  -18.9736  -41.9727 H         1 UNK         0.3000 
    155 H155       -1.2389  -17.4701  -44.7480 H         1 UNK         0.0600 
    156 H156       -3.4653  -16.3943  -44.6454 H         1 UNK         0.0600 
    157 H157       -2.3340  -15.4909  -43.6483 H         1 UNK         0.0600 
    158 H158       -3.5102  -16.5585  -42.8931 H         1 UNK         0.0600 
    159 H159       -1.0365  -16.7528  -42.0824 H         1 UNK         0.3000 
    160 H160        0.1888  -17.8337  -40.3748 H         1 UNK         0.0600 
    161 H161        2.3859  -19.6925  -41.4336 H         1 UNK         0.0600 
    162 H162        0.9997  -20.1770  -40.4596 H         1 UNK         0.0600 
    163 H163        2.2227  -19.1227  -39.7740 H         1 UNK         0.0600 
    164 H164        2.7567  -17.2930  -41.6469 H         1 UNK         0.3000 
    165 H165        2.1917  -13.9320  -42.3881 H         1 UNK         0.0600 
    166 H166        4.0651  -13.4484  -40.8241 H         1 UNK         0.0600 
    167 H167        2.5577  -13.6576  -39.9468 H         1 UNK         0.0600 
    168 H168        3.7515  -14.9506  -39.9544 H         1 UNK         0.0600 
    169 H169        4.5032  -15.6984  -42.1737 H         1 UNK         0.3000 
    170 H170        5.3179  -16.8614  -43.8368 H         1 UNK         0.0600 
    171 H171        3.4217  -17.3778  -46.1885 H         1 UNK         0.0600 
    172 H172        4.8597  -18.3129  -45.7851 H         1 UNK         0.0600 
    173 H173        3.4735  -18.3190  -44.7047 H         1 UNK         0.0600 
    174 H174        5.2237  -15.7758  -46.5176 H         1 UNK         0.3000 
    175 H175        6.8172  -12.7607  -45.9489 H         1 UNK         0.0600 
    176 H176        8.3902  -15.1997  -46.9385 H         1 UNK         0.0600 
    177 H177        8.7703  -13.5107  -47.2796 H         1 UNK         0.0600 
    178 H178        8.8919  -14.1243  -45.6395 H         1 UNK         0.0600 
    179 H179        6.6235  -14.1898  -48.3687 H         1 UNK         0.3000 
    180 H180        4.9746  -13.1199  -49.8808 H         1 UNK         0.0600 
    181 H181        3.6062  -15.1444  -50.5291 H         1 UNK         0.0600 
    182 H182        3.3838  -15.5377  -48.8255 H         1 UNK         0.0600 
    183 H183        4.9872  -15.5977  -49.5470 H         1 UNK         0.0600 
    184 H184        2.1794  -13.4348  -49.0477 H         1 UNK         0.3000 
    185 H185        1.5399   -9.9773  -48.5653 H         1 UNK         0.0600 
    186 H186        0.2590  -12.3979  -49.9870 H         1 UNK         0.0600 
    187 H187       -0.5953  -10.9497  -49.4599 H         1 UNK         0.0600 
    188 H188        0.6007  -10.8460  -50.7356 H         1 UNK         0.0600 
    189 H189        1.9990  -12.3302  -47.1716 H         1 UNK         0.3000 
    190 H190       -2.3176  -20.9940  -46.0706 H         1 UNK         0.3000 
    191 H191       -3.4332  -21.7643  -48.5468 H         1 UNK         0.0600 
    192 H192       -4.6644  -20.3631  -46.9499 H         1 UNK         0.0600 
    193 H193       -4.6745  -21.6543  -45.7511 H         1 UNK         0.0600 
    194 H194       -5.5903  -21.8311  -47.2373 H         1 UNK         0.0600 
    195 H195       -2.8834  -23.7171  -45.5851 H         1 UNK         0.3000 
    196 H196       -4.0585  -26.1210  -46.5955 H         1 UNK         0.0600 
    197 H197       -3.7289  -25.7037  -44.1750 H         1 UNK         0.0600 
    198 H198       -1.9792  -25.6963  -44.3840 H         1 UNK         0.0600 
    199 H199       -2.8949  -27.1736  -44.6562 H         1 UNK         0.0600 
    200 H200       -0.7015  -24.8519  -46.6898 H         1 UNK         0.3000 
    201 H201        0.4995  -27.1086  -47.9501 H         1 UNK         0.0600 
    202 H202        1.8028  -25.3106  -46.8252 H         1 UNK         0.0600 
    203 H203        1.3081  -24.1540  -48.0590 H         1 UNK         0.0600 
    204 H204        2.3281  -25.5188  -48.4892 H         1 UNK         0.0600 
    205 H205       -1.1725  -24.2545  -49.2488 H         1 UNK         0.3000 
    206 H206       -1.0287  -25.1408  -52.0432 H         1 UNK         0.0600 
    207 H207       -2.5294  -22.8304  -50.7057 H         1 UNK         0.0600 
    208 H208       -0.9324  -22.7193  -51.4378 H         1 UNK         0.0600 
    209 H209       -2.3302  -23.0680  -52.4396 H         1 UNK         0.0600 
    210 H210       -2.2412  -26.9671  -50.0985 H         1 UNK         0.3000 
    211 H211       -3.7866  -28.4827  -49.9006 H         1 UNK         0.0600 
    212 H212       -4.9968  -27.4695  -52.5292 H         1 UNK         0.0600 
    213 H213       -5.3921  -28.9815  -51.7278 H         1 UNK         0.0600 
    214 H214       -3.7724  -28.7237  -52.3566 H         1 UNK         0.0600 
    215 H215       -5.5536  -25.6333  -51.0942 H         1 UNK         0.3000 
    216 H216       -6.9341  -25.1311  -48.6363 H         1 UNK         0.0600 
    217 H217       -9.2663  -25.5303  -49.4812 H         1 UNK         0.0600 
    218 H218       -8.3763  -27.0375  -49.3696 H         1 UNK         0.0600 
    219 H219       -8.6195  -26.2753  -50.9400 H         1 UNK         0.0600 
    220 H220       -5.2067  -23.6331  -49.8353 H         1 UNK         0.3000 
    221 H221       -4.6781  -21.6697  -50.7341 H         1 UNK         0.0600 
    222 H222       -7.6302  -20.8939  -50.4807 H         1 UNK         0.0600 
    223 H223       -6.4623  -20.8281  -49.1639 H         1 UNK         0.0600 
    224 H224       -6.2578  -19.8054  -50.5681 H         1 UNK         0.0600 
    225 H225       -5.0527  -23.7595  -52.5629 H         1 UNK         0.3000 
    226 H226       -6.6559  -22.9918  -54.8185 H         1 UNK         0.0600 
    227 H227       -6.1543  -25.3641  -54.1752 H         1 UNK         0.0600 
    228 H228       -5.6844  -25.0226  -55.8335 H         1 UNK         0.0600 
    229 H229       -4.4561  -25.1127  -54.5792 H         1 UNK         0.0600 
    230 H230       -3.5601  -21.9712  -53.8244 H         1 UNK         0.3000 
    231 H231       -2.3513  -21.4639  -56.4156 H         1 UNK         0.0600 
    232 H232       -0.5741  -20.4153  -55.0340 H         1 UNK         0.0600 
    233 H233       -1.0035  -21.9871  -54.3866 H         1 UNK         0.0600 
    234 H234       -1.5910  -20.5209  -53.6008 H         1 UNK         0.0600 
    235 H235       -4.9134  -20.3836  -56.3296 H         1 UNK         0.3000 
    236 H236       -6.1871  -18.6856  -56.8784 H         1 UNK         0.0600 
    237 H237       -3.6349  -17.1099  -57.4999 H         1 UNK         0.0600 
    238 H238       -4.4135  -18.2535  -58.5935 H         1 UNK         0.0600 
    239 H239       -5.2445  -16.7817  -58.1216 H         1 UNK         0.0600 
    240 H240       -4.5926  -18.5805  -54.0563 H         1 UNK         0.3000 
    241 H241       -5.2544  -15.8477  -53.2555 H         1 UNK         0.0600 
    242 H242       -8.2214  -18.2683  -51.9982 H         1 UNK         0.3800 
    243 H243       -7.0019  -18.9055  -53.0694 H         1 UNK         0.3800 
    244 H244       -4.1264  -16.3780  -51.1530 H         1 UNK         0.0800 
    245 H245       -3.1202  -16.6572  -52.5358 H         1 UNK         0.0800 
    246 H246       -3.5957  -19.5464  -49.2118 H         1 UNK         0.0800 
    247 H247       -4.6108  -18.1346  -49.3512 H         1 UNK         0.0800 
@<TRIPOS>BOND
     1    1    2 1    
     2    1  127 1    
     3    1  128 1    
     4    1  129 1    
     5    2    3 2    
     6    2    4 am   BACKBONE|DICT|INTERRES
     7    4    5 1    
     8    4  130 1    
     9    5    6 1    
    10    5   65 1    
    11    5  131 1    
    12    6    7 1    
    13    6  132 1    
    14    6  133 1    
    15    7    8 1    
    16    8    9 1    
    17    8  134 1    
    18    8  135 1    
    19    9   10 ar   
    20    9   14 ar   
    21   10   11 ar   
    22   10  136 1    
    23   11   12 ar   
    24   11  126 1    
    25   12   13 ar   
    26   12  137 1    
    27   13   14 ar   
    28   13   15 1    
    29   14  138 1    
    30   15   16 1    
    31   15  139 1    
    32   15  140 1    
    33   16   17 1    
    34   17   18 1    
    35   17  141 1    
    36   17  142 1    
    37   18   19 1    
    38   18   67 1    
    39   18  143 1    
    40   19   20 am   BACKBONE|DICT|INTERRES
    41   19  144 1    
    42   20   21 2    
    43   20   22 1    
    44   22   23 1    
    45   22   24 1    
    46   22  145 1    
    47   23  146 1    
    48   23  147 1    
    49   23  148 1    
    50   24   25 am   BACKBONE|DICT|INTERRES
    51   24  149 1    
    52   25   26 2    
    53   25   27 1    
    54   27   28 1    
    55   27   29 1    
    56   27  150 1    
    57   28  151 1    
    58   28  152 1    
    59   28  153 1    
    60   29   30 am   BACKBONE|DICT|INTERRES
    61   29  154 1    
    62   30   31 2    
    63   30   32 1    
    64   32   33 1    
    65   32   34 1    
    66   32  155 1    
    67   33  156 1    
    68   33  157 1    
    69   33  158 1    
    70   34   35 am   BACKBONE|DICT|INTERRES
    71   34  159 1    
    72   35   36 2    
    73   35   37 1    
    74   37   38 1    
    75   37   39 1    
    76   37  160 1    
    77   38  161 1    
    78   38  162 1    
    79   38  163 1    
    80   39   40 am   BACKBONE|DICT|INTERRES
    81   39  164 1    
    82   40   41 2    
    83   40   42 1    
    84   42   43 1    
    85   42   44 1    
    86   42  165 1    
    87   43  166 1    
    88   43  167 1    
    89   43  168 1    
    90   44   45 am   BACKBONE|DICT|INTERRES
    91   44  169 1    
    92   45   46 2    
    93   45   47 1    
    94   47   48 1    
    95   47   49 1    
    96   47  170 1    
    97   48  171 1    
    98   48  172 1    
    99   48  173 1    
   100   49   50 am   BACKBONE|DICT|INTERRES
   101   49  174 1    
   102   50   51 2    
   103   50   52 1    
   104   52   53 1    
   105   52   54 1    
   106   52  175 1    
   107   53  176 1    
   108   53  177 1    
   109   53  178 1    
   110   54   55 am   BACKBONE|DICT|INTERRES
   111   54  179 1    
   112   55   56 2    
   113   55   57 1    
   114   57   58 1    
   115   57   59 1    
   116   57  180 1    
   117   58  181 1    
   118   58  182 1    
   119   58  183 1    
   120   59   60 am   BACKBONE|DICT|INTERRES
   121   59  184 1    
   122   60   61 2    
   123   60   62 1    
   124   62   63 1    
   125   62   64 1    
   126   62  185 1    
   127   63  186 1    
   128   63  187 1    
   129   63  188 1    
   130   64   65 am   BACKBONE|DICT|INTERRES
   131   64  189 1    
   132   65   66 2    
   133   67   68 2    
   134   67   69 am   BACKBONE|DICT|INTERRES
   135   69   70 1    
   136   69  190 1    
   137   70   71 1    
   138   70   72 1    
   139   70  191 1    
   140   71  192 1    
   141   71  193 1    
   142   71  194 1    
   143   72   73 2    
   144   72   74 am   BACKBONE|DICT|INTERRES
   145   74   75 1    
   146   74  195 1    
   147   75   76 1    
   148   75   77 1    
   149   75  196 1    
   150   76  197 1    
   151   76  198 1    
   152   76  199 1    
   153   77   78 2    
   154   77   79 am   BACKBONE|DICT|INTERRES
   155   79   80 1    
   156   79  200 1    
   157   80   81 1    
   158   80   82 1    
   159   80  201 1    
   160   81  202 1    
   161   81  203 1    
   162   81  204 1    
   163   82   83 2    
   164   82   84 am   BACKBONE|DICT|INTERRES
   165   84   85 1    
   166   84  205 1    
   167   85   86 1    
   168   85   87 1    
   169   85  206 1    
   170   86  207 1    
   171   86  208 1    
   172   86  209 1    
   173   87   88 2    
   174   87   89 am   BACKBONE|DICT|INTERRES
   175   89   90 1    
   176   89  210 1    
   177   90   91 1    
   178   90   92 1    
   179   90  211 1    
   180   91  212 1    
   181   91  213 1    
   182   91  214 1    
   183   92   93 2    
   184   92   94 am   BACKBONE|DICT|INTERRES
   185   94   95 1    
   186   94  215 1    
   187   95   96 1    
   188   95   97 1    
   189   95  216 1    
   190   96  217 1    
   191   96  218 1    
   192   96  219 1    
   193   97   98 2    
   194   97   99 am   BACKBONE|DICT|INTERRES
   195   99  100 1    
   196   99  220 1    
   197  100  101 1    
   198  100  102 1    
   199  100  221 1    
   200  101  222 1    
   201  101  223 1    
   202  101  224 1    
   203  102  103 2    
   204  102  104 am   BACKBONE|DICT|INTERRES
   205  104  105 1    
   206  104  225 1    
   207  105  106 1    
   208  105  107 1    
   209  105  226 1    
   210  106  227 1    
   211  106  228 1    
   212  106  229 1    
   213  107  108 2    
   214  107  109 am   BACKBONE|DICT|INTERRES
   215  109  110 1    
   216  109  230 1    
   217  110  111 1    
   218  110  112 1    
   219  110  231 1    
   220  111  232 1    
   221  111  233 1    
   222  111  234 1    
   223  112  113 2    
   224  112  114 am   BACKBONE|DICT|INTERRES
   225  114  115 1    
   226  114  235 1    
   227  115  116 1    
   228  115  117 1    
   229  115  236 1    
   230  116  237 1    
   231  116  238 1    
   232  116  239 1    
   233  117  118 2    
   234  117  119 am   BACKBONE|DICT|INTERRES
   235  119  120 1    
   236  119  240 1    
   237  120  121 1    
   238  120  124 1    
   239  120  241 1    
   240  121  122 am   BACKBONE|DICT|INTERRES
   241  121  123 2    
   242  122  242 1    
   243  122  243 1    
   244  124  125 1    
   245  124  244 1    
   246  124  245 1    
   247  125  126 1    
   248  126  246 1    
   249  126  247 1    
@<TRIPOS>SUBSTRUCTURE
     1 UNK         1 GROUP             0       ****    0 ROOT    
