@<TRIPOS>MOLECULE
3R540
247   249    1
SMALL
USER_CHARGES


@<TRIPOS>ATOM
      1 CA          6.6649  -18.8980  -50.8913 C.3       0 UNK        -0.1800 
      2 C           6.1544  -17.6447  -50.1938 C.2       0 UNK         0.5000 
      3 O           6.9041  -16.6790  -50.0534 O.2       0 UNK        -0.5000 
      4 N           4.8812  -17.6659  -49.7792 N.am      1 UNK        -0.5000 
      5 CA          4.1614  -16.6309  -49.0322 C.3       1 UNK         0.1400 
      6 C6          4.2136  -15.2251  -49.6870 C.3       23 UNK        -0.0398 
      7 S7          2.7249  -14.2264  -49.3388 S.3       23 UNK        -0.2404 
      8 C8          1.7288  -14.5013  -50.8436 C.3       23 UNK        -0.0205 
      9 C9          0.9069  -15.7774  -50.7423 C.ar      23 UNK        -0.0193 
     10 C10        -0.3941  -15.7281  -50.2328 C.ar      23 UNK        -0.1150 
     11 C11        -1.1423  -16.8982  -50.0847 C.ar      23 UNK        -0.0193 
     12 C12        -0.5832  -18.1224  -50.4557 C.ar      23 UNK        -0.1150 
     13 C13         0.7194  -18.1878  -50.9558 C.ar      23 UNK        -0.0193 
     14 C14         1.4494  -17.0081  -51.1273 C.ar      23 UNK        -0.1150 
     15 C15         1.3472  -19.5416  -51.2553 C.3       23 UNK        -0.0205 
     16 S16         2.5808  -20.0419  -49.9997 S.3       23 UNK        -0.2404 
     17 C17         1.7082  -19.8076  -48.4059 C.3       23 UNK        -0.0398 
     18 CA          1.0806  -21.0786  -47.7892 C.3       11 UNK         0.1400 
     19 N           0.5141  -20.7963  -46.4671 N.am      11 UNK        -0.5000 
     20 C           0.1930  -21.7353  -45.5638 C.2       10 UNK         0.5000 
     21 O           0.4067  -22.9361  -45.7289 O.2       10 UNK        -0.5000 
     22 CA         -0.5465  -21.2647  -44.2924 C.3       10 UNK         0.1400 
     23 CB          0.4486  -20.9121  -43.1790 C.3       10 UNK        -0.1800 
     24 N          -1.4304  -20.1211  -44.5322 N.am      10 UNK        -0.5000 
     25 C          -2.4720  -20.1405  -45.3747 C.2       9 UNK         0.5000 
     26 O          -2.8525  -21.1608  -45.9464 O.2       9 UNK        -0.5000 
     27 CA         -3.1789  -18.8087  -45.6868 C.3       9 UNK         0.1400 
     28 CB         -4.5106  -18.7198  -44.9281 C.3       9 UNK        -0.1800 
     29 N          -2.4013  -17.5991  -45.4117 N.am      9 UNK        -0.5000 
     30 C          -1.1948  -17.2619  -45.8828 C.2       8 UNK         0.5000 
     31 O          -0.5096  -18.0050  -46.5869 O.2       8 UNK        -0.5000 
     32 CA         -0.6374  -15.8787  -45.4774 C.3       8 UNK         0.1400 
     33 CB         -0.9942  -14.8098  -46.5224 C.3       8 UNK        -0.1800 
     34 N          -0.9868  -15.4244  -44.1230 N.am      8 UNK        -0.5000 
     35 C          -2.1857  -15.1667  -43.5759 C.2       7 UNK         0.5000 
     36 O          -3.2447  -15.2312  -44.2016 O.2       7 UNK        -0.5000 
     37 CA         -2.2110  -14.8095  -42.0718 C.3       7 UNK         0.1400 
     38 CB         -3.5090  -15.2746  -41.3802 C.3       7 UNK        -0.1800 
     39 N          -1.0378  -15.2808  -41.3250 N.am      7 UNK        -0.5000 
     40 C          -0.6006  -16.5432  -41.1792 C.2       6 UNK         0.5000 
     41 O          -1.1833  -17.5251  -41.6424 O.2       6 UNK        -0.5000 
     42 CA          0.7340  -16.7385  -40.4299 C.3       6 UNK         0.1400 
     43 CB          1.6588  -17.6960  -41.1952 C.3       6 UNK        -0.1800 
     44 N           1.4401  -15.4678  -40.2600 N.am      6 UNK        -0.5000 
     45 C           1.6986  -14.8675  -39.0912 C.2       5 UNK         0.5000 
     46 O           1.4253  -15.3548  -37.9938 O.2       5 UNK        -0.5000 
     47 CA          2.3526  -13.4704  -39.1556 C.3       5 UNK         0.1400 
     48 CB          3.8772  -13.5867  -39.0072 C.3       5 UNK        -0.1800 
     49 N           2.0524  -12.7319  -40.3859 N.am      5 UNK        -0.5000 
     50 C           0.8297  -12.3557  -40.7866 C.2       4 UNK         0.5000 
     51 O          -0.1937  -12.5536  -40.1322 O.2       4 UNK        -0.5000 
     52 CA          0.7145  -11.7115  -42.1813 C.3       4 UNK         0.1400 
     53 CB          0.7024  -10.1802  -42.0640 C.3       4 UNK        -0.1800 
     54 N           1.7604  -12.1110  -43.1292 N.am      4 UNK        -0.5000 
     55 C           2.0251  -13.3630  -43.5284 C.2       3 UNK         0.5000 
     56 O           1.4428  -14.3555  -43.0813 O.2       3 UNK        -0.5000 
     57 CA          3.1059  -13.4986  -44.6198 C.3       3 UNK         0.1400 
     58 CB          4.4561  -12.8986  -44.1721 C.3       3 UNK        -0.1800 
     59 N           3.2815  -14.8695  -45.1107 N.am      3 UNK        -0.5000 
     60 C           3.7748  -15.9329  -44.4558 C.2       2 UNK         0.5000 
     61 O           4.1623  -15.9101  -43.2872 O.2       2 UNK        -0.5000 
     62 CA          3.8682  -17.2540  -45.2485 C.3       2 UNK         0.1400 
     63 CB          2.8670  -18.2930  -44.7218 C.3       2 UNK        -0.1800 
     64 N           3.6528  -17.0902  -46.6886 N.am      2 UNK        -0.5000 
     65 C           4.5754  -16.6370  -47.5480 C.2       1 UNK         0.5000 
     66 O           5.6978  -16.2605  -47.2071 O.2       1 UNK        -0.5000 
     67 C           0.0257  -21.7248  -48.7104 C.2       11 UNK         0.5000 
     68 O           0.3510  -22.6667  -49.4308 O.2       11 UNK        -0.5000 
     69 N          -1.2274  -21.2488  -48.6443 N.am      12 UNK        -0.5000 
     70 CA         -2.3503  -21.8181  -49.3932 C.3       12 UNK         0.1400 
     71 CB         -3.5721  -20.8905  -49.3175 C.3       12 UNK        -0.1800 
     72 C          -2.6998  -23.2408  -48.9251 C.2       12 UNK         0.5000 
     73 O          -2.9633  -24.1028  -49.7620 O.2       12 UNK        -0.5000 
     74 N          -2.6413  -23.4741  -47.6071 N.am      13 UNK        -0.5000 
     75 CA         -2.7914  -24.7886  -46.9843 C.3       13 UNK         0.1400 
     76 CB         -2.8424  -24.6345  -45.4571 C.3       13 UNK        -0.1800 
     77 C          -1.6795  -25.7668  -47.4066 C.2       13 UNK         0.5000 
     78 O          -1.9835  -26.9022  -47.7734 O.2       13 UNK        -0.5000 
     79 N          -0.4219  -25.2979  -47.4076 N.am      14 UNK        -0.5000 
     80 CA          0.7449  -26.0470  -47.8874 C.3       14 UNK         0.1400 
     81 CB          2.0275  -25.2673  -47.5617 C.3       14 UNK        -0.1800 
     82 C           0.6739  -26.3785  -49.3920 C.2       14 UNK         0.5000 
     83 O           1.1021  -27.4586  -49.7991 O.2       14 UNK        -0.5000 
     84 N           0.0888  -25.4663  -50.1790 N.am      15 UNK        -0.5000 
     85 CA         -0.2087  -25.6272  -51.6032 C.3       15 UNK         0.1400 
     86 CB         -0.3342  -24.2331  -52.2421 C.3       15 UNK        -0.1800 
     87 C          -1.4685  -26.4771  -51.8842 C.2       15 UNK         0.5000 
     88 O          -1.8510  -26.6015  -53.0474 O.2       15 UNK        -0.5000 
     89 N          -2.1049  -27.0293  -50.8391 N.am      16 UNK        -0.5000 
     90 CA         -3.3009  -27.8786  -50.8736 C.3       16 UNK         0.1400 
     91 CB         -2.9982  -29.2235  -51.5671 C.3       16 UNK        -0.1800 
     92 C          -4.5382  -27.1602  -51.4525 C.2       16 UNK         0.5000 
     93 O          -5.3202  -27.7645  -52.1884 O.2       16 UNK        -0.5000 
     94 N          -4.6825  -25.8742  -51.1021 N.am      17 UNK        -0.5000 
     95 CA         -5.7529  -24.9500  -51.4868 C.3       17 UNK         0.1400 
     96 CB         -7.1302  -25.4472  -50.9998 C.3       17 UNK        -0.1800 
     97 C          -5.7451  -24.5629  -52.9800 C.2       17 UNK         0.5000 
     98 O          -6.7613  -24.0834  -53.4850 O.2       17 UNK        -0.5000 
     99 N          -4.5979  -24.7307  -53.6580 N.am      18 UNK        -0.5000 
    100 CA        -4.3858  -24.2934  -55.0420 C.3       18 UNK         0.1400 
    101 CB        -3.0600  -24.8606  -55.5676 C.3       18 UNK        -0.1800 
    102 C         -4.4154  -22.7596  -55.1862 C.2       18 UNK         0.5000 
    103 O         -4.9151  -22.2485  -56.1894 O.2       18 UNK        -0.5000 
    104 N         -3.9379  -22.0502  -54.1537 N.am      19 UNK        -0.5000 
    105 CA        -4.0528  -20.6000  -53.9982 C.3       19 UNK         0.1400 
    106 CB        -2.8931  -20.0956  -53.1207 C.3       19 UNK        -0.1800 
    107 C         -5.4393  -20.2388  -53.4258 C.2       19 UNK         0.5000 
    108 O         -5.5415  -19.6930  -52.3266 O.2       19 UNK        -0.5000 
    109 N         -6.4940  -20.5823  -54.1778 N.am      20 UNK        -0.5000 
    110 CA        -7.9025  -20.4449  -53.7918 C.3       20 UNK         0.1400 
    111 CB        -8.7805  -21.0913  -54.8733 C.3       20 UNK        -0.1800 
    112 C         -8.3461  -18.9923  -53.5296 C.2       20 UNK         0.5000 
    113 O         -9.2649  -18.7693  -52.7393 O.2       20 UNK        -0.5000 
    114 N         -7.6541  -18.0298  -54.1564 N.am      21 UNK        -0.5000 
    115 CA        -7.8256  -16.5871  -53.9664 C.3       21 UNK         0.1400 
    116 CB        -6.9121  -15.8472  -54.9558 C.3       21 UNK        -0.1800 
    117 C         -7.5591  -16.1054  -52.5242 C.2       21 UNK         0.5000 
    118 O         -8.0627  -15.0480  -52.1424 O.2       21 UNK        -0.5000 
    119 N         -6.7977  -16.8874  -51.7474 N.am      22 UNK        -0.5000 
    120 CA        -6.5554  -16.6667  -50.3138 C.3       22 UNK         0.1400 
    121 C         -7.7691  -17.0230  -49.4029 C.2       22 UNK         0.5000 
    122 N         -8.8220  -17.6644  -49.8997 N.am      22 UNK        -0.7600 
    123 O         -7.7580  -16.7028  -48.2176 O.2       22 UNK        -0.5000 
    124 C124       -5.2802  -17.4015  -49.8292 C.3       23 UNK        -0.0398 
    125 S125       -3.7966  -16.9678  -50.8009 S.3       23 UNK        -0.2404 
    126 C126       -2.5410  -16.8569  -49.4952 C.3       23 UNK        -0.0205 
    127 H127        5.8942  -19.6664  -50.9617 H         1 UNK         0.0600 
    128 H128        7.5103  -19.3142  -50.3434 H         1 UNK         0.0600 
    129 H129        6.9969  -18.6569  -51.9012 H         1 UNK         0.0600 
    130 H130        4.3454  -18.5106  -49.9361 H         1 UNK         0.3000 
    131 H131        3.1254  -16.9658  -49.0654 H         1 UNK         0.0600 
    132 H132        5.0957  -14.6700  -49.3630 H         1 UNK         0.0800 
    133 H133        4.3171  -15.3195  -50.7684 H         1 UNK         0.0800 
    134 H134        1.0634  -13.6472  -50.9783 H         1 UNK         0.0800 
    135 H135        2.3653  -14.5246  -51.7292 H         1 UNK         0.0800 
    136 H136       -0.8181  -14.7793  -49.9353 H         1 UNK         0.1150 
    137 H137       -1.1563  -19.0288  -50.3289 H         1 UNK         0.1150 
    138 H138        2.4575  -17.0550  -51.5142 H         1 UNK         0.1150 
    139 H139        0.5793  -20.3134  -51.3293 H         1 UNK         0.0800 
    140 H140        1.8324  -19.5058  -52.2315 H         1 UNK         0.0800 
    141 H141        2.4566  -19.4306  -47.7106 H         1 UNK         0.0800 
    142 H142        0.9687  -19.0142  -48.4821 H         1 UNK         0.0800 
    143 H143        1.8825  -21.8081  -47.6571 H         1 UNK         0.0600 
    144 H144        0.2493  -19.8328  -46.2875 H         1 UNK         0.3000 
    145 H145       -1.1636  -22.0957  -43.9453 H         1 UNK         0.0600 
    146 H146       -0.0701  -20.6766  -42.2494 H         1 UNK         0.0600 
    147 H147        1.1205  -21.7467  -42.9743 H         1 UNK         0.0600 
    148 H148        1.0621  -20.0529  -43.4463 H         1 UNK         0.0600 
    149 H149       -1.1919  -19.2493  -44.0812 H         1 UNK         0.3000 
    150 H150       -3.3983  -18.8112  -46.7554 H         1 UNK         0.0600 
    151 H151       -5.1367  -19.5906  -45.1277 H         1 UNK         0.0600 
    152 H152       -5.0774  -17.8382  -45.2288 H         1 UNK         0.0600 
    153 H153       -4.3535  -18.6656  -43.8500 H         1 UNK         0.0600 
    154 H154       -2.8750  -16.8840  -44.8649 H         1 UNK         0.3000 
    155 H155        0.4487  -15.9774  -45.4746 H         1 UNK         0.0600 
    156 H156       -0.5593  -13.8445  -46.2629 H         1 UNK         0.0600 
    157 H157       -2.0722  -14.6788  -46.6205 H         1 UNK         0.0600 
    158 H158       -0.6044  -15.0860  -47.5013 H         1 UNK         0.0600 
    159 H159       -0.1809  -15.2858  -43.5192 H         1 UNK         0.3000 
    160 H160       -2.1833  -13.7204  -42.0223 H         1 UNK         0.0600 
    161 H161       -3.6414  -16.3546  -41.4527 H         1 UNK         0.0600 
    162 H162       -4.3848  -14.8072  -41.8318 H         1 UNK         0.0600 
    163 H163       -3.5102  -15.0063  -40.3237 H         1 UNK         0.0600 
    164 H164       -0.4969  -14.5496  -40.8800 H         1 UNK         0.3000 
    165 H165        0.4962  -17.1849  -39.4627 H         1 UNK         0.0600 
    166 H166        1.8612  -17.3165  -42.1959 H         1 UNK         0.0600 
    167 H167        2.6134  -17.8199  -40.6838 H         1 UNK         0.0600 
    168 H168        1.2124  -18.6854  -41.2943 H         1 UNK         0.0600 
    169 H169        1.6930  -14.9935  -41.1212 H         1 UNK         0.3000 
    170 H170        1.9676  -12.8890  -38.3154 H         1 UNK         0.0600 
    171 H171        4.1420  -14.1101  -38.0875 H         1 UNK         0.0600 
    172 H172        4.3204  -14.1377  -39.8380 H         1 UNK         0.0600 
    173 H173        4.3466  -12.6036  -38.9665 H         1 UNK         0.0600 
    174 H174        2.8318  -12.5386  -40.9974 H         1 UNK         0.3000 
    175 H175       -0.2417  -12.0277  -42.6030 H         1 UNK         0.0600 
    176 H176        1.6504   -9.7988  -41.6825 H         1 UNK         0.0600 
    177 H177        0.5150   -9.7111  -43.0301 H         1 UNK         0.0600 
    178 H178       -0.0833   -9.8455  -41.3852 H         1 UNK         0.0600 
    179 H179        2.2836  -11.3543  -43.5453 H         1 UNK         0.3000 
    180 H180        2.7528  -12.9243  -45.4776 H         1 UNK         0.0600 
    181 H181        4.8117  -13.3421  -43.2416 H         1 UNK         0.0600 
    182 H182        4.3805  -11.8231  -44.0100 H         1 UNK         0.0600 
    183 H183        5.2247  -13.0525  -44.9298 H         1 UNK         0.0600 
    184 H184        2.9897  -15.0205  -46.0645 H         1 UNK         0.3000 
    185 H185        4.8734  -17.6522  -45.0936 H         1 UNK         0.0600 
    186 H186        2.9166  -19.2195  -45.2936 H         1 UNK         0.0600 
    187 H187        3.0936  -18.5519  -43.6877 H         1 UNK         0.0600 
    188 H188        1.8408  -17.9269  -44.7590 H         1 UNK         0.0600 
    189 H189        2.7441  -17.3576  -47.0362 H         1 UNK         0.3000 
    190 H190       -1.4367  -20.5109  -47.9893 H         1 UNK         0.3000 
    191 H191       -2.0459  -21.8863  -50.4388 H         1 UNK         0.0600 
    192 H192       -3.3351  -19.8951  -49.6894 H         1 UNK         0.0600 
    193 H193       -4.3882  -21.2744  -49.9314 H         1 UNK         0.0600 
    194 H194       -3.9508  -20.7900  -48.3011 H         1 UNK         0.0600 
    195 H195       -2.4964  -22.6844  -46.9832 H         1 UNK         0.3000 
    196 H196       -3.7451  -25.2049  -47.3154 H         1 UNK         0.0600 
    197 H197       -3.0065  -25.5983  -44.9738 H         1 UNK         0.0600 
    198 H198       -3.6561  -23.9749  -45.1547 H         1 UNK         0.0600 
    199 H199       -1.9145  -24.2229  -45.0609 H         1 UNK         0.0600 
    200 H200       -0.2450  -24.3654  -47.0489 H         1 UNK         0.3000 
    201 H201        0.7767  -26.9932  -47.3435 H         1 UNK         0.0600 
    202 H202        2.1191  -25.0885  -46.4903 H         1 UNK         0.0600 
    203 H203        2.0510  -24.3011  -48.0655 H         1 UNK         0.0600 
    204 H204        2.9121  -25.8225  -47.8757 H         1 UNK         0.0600 
    205 H205       -0.1603  -24.5707  -49.7712 H         1 UNK         0.3000 
    206 H206        0.6327  -26.1380  -52.0753 H         1 UNK         0.0600 
    207 H207        0.5525  -23.6287  -52.0498 H         1 UNK         0.0600 
    208 H208       -0.4441  -24.3042  -53.3243 H         1 UNK         0.0600 
    209 H209       -1.1983  -23.6913  -51.8582 H         1 UNK         0.0600 
    210 H210       -1.7453  -26.8386  -49.9116 H         1 UNK         0.3000 
    211 H211       -3.5437  -28.0973  -49.8329 H         1 UNK         0.0600 
    212 H212       -2.8033  -29.0968  -52.6323 H         1 UNK         0.0600 
    213 H213       -3.8384  -29.9117  -51.4687 H         1 UNK         0.0600 
    214 H214       -2.1294  -29.7088  -51.1222 H         1 UNK         0.0600 
    215 H215       -3.9530  -25.4489  -50.5318 H         1 UNK         0.3000 
    216 H216       -5.5412  -24.0244  -50.9497 H         1 UNK         0.0600 
    217 H217       -7.1049  -25.7049  -49.9411 H         1 UNK         0.0600 
    218 H218       -7.4649  -26.3251  -51.5527 H         1 UNK         0.0600 
    219 H219       -7.8910  -24.6759  -51.1255 H         1 UNK         0.0600 
    220 H220       -3.8187  -25.1797  -53.1953 H         1 UNK         0.3000 
    221 H221       -5.1952  -24.6998  -55.6521 H         1 UNK         0.0600 
    222 H222       -2.2096  -24.4995  -54.9890 H         1 UNK         0.0600 
    223 H223       -3.0543  -25.9500  -55.5279 H         1 UNK         0.0600 
    224 H224       -2.8963  -24.5727  -56.6068 H         1 UNK         0.0600 
    225 H225       -3.5817  -22.5584  -53.3585 H         1 UNK         0.3000 
    226 H226       -3.9626  -20.1203  -54.9751 H         1 UNK         0.0600 
    227 H227       -1.9264  -20.3551  -53.5524 H         1 UNK         0.0600 
    228 H228       -2.9227  -19.0099  -53.0210 H         1 UNK         0.0600 
    229 H229       -2.9356  -20.5155  -52.1176 H         1 UNK         0.0600 
    230 H230       -6.3092  -21.0559  -55.0542 H         1 UNK         0.3000 
    231 H231       -8.0423  -20.9997  -52.8617 H         1 UNK         0.0600 
    232 H232       -9.8367  -21.0331  -54.6069 H         1 UNK         0.0600 
    233 H233       -8.5359  -22.1465  -54.9986 H         1 UNK         0.0600 
    234 H234       -8.6564  -20.5998  -55.8390 H         1 UNK         0.0600 
    235 H235       -6.9139  -18.3158  -54.7799 H         1 UNK         0.3000 
    236 H236       -8.8626  -16.3426  -54.2048 H         1 UNK         0.0600 
    237 H237       -7.1450  -16.1157  -55.9864 H         1 UNK         0.0600 
    238 H238       -7.0341  -14.7667  -54.8679 H         1 UNK         0.0600 
    239 H239       -5.8602  -16.0742  -54.7771 H         1 UNK         0.0600 
    240 H240       -6.4127  -17.7441  -52.1284 H         1 UNK         0.3000 
    241 H241       -6.3830  -15.5979  -50.1735 H         1 UNK         0.0600 
    242 H242       -9.5978  -17.8799  -49.2938 H         1 UNK         0.3800 
    243 H243       -8.8596  -17.9402  -50.8742 H         1 UNK         0.3800 
    244 H244       -5.4203  -18.4820  -49.8866 H         1 UNK         0.0800 
    245 H245       -5.0937  -17.1733  -48.7782 H         1 UNK         0.0800 
    246 H246       -2.6948  -15.9426  -48.9205 H         1 UNK         0.0800 
    247 H247       -2.6570  -17.6862  -48.7969 H         1 UNK         0.0800 
@<TRIPOS>BOND
     1    1    2 1    
     2    1  127 1    
     3    1  128 1    
     4    1  129 1    
     5    2    3 2    
     6    2    4 am   BACKBONE|DICT|INTERRES
     7    4    5 1    
     8    4  130 1    
     9    5    6 1    
    10    5   65 1    
    11    5  131 1    
    12    6    7 1    
    13    6  132 1    
    14    6  133 1    
    15    7    8 1    
    16    8    9 1    
    17    8  134 1    
    18    8  135 1    
    19    9   10 ar   
    20    9   14 ar   
    21   10   11 ar   
    22   10  136 1    
    23   11   12 ar   
    24   11  126 1    
    25   12   13 ar   
    26   12  137 1    
    27   13   14 ar   
    28   13   15 1    
    29   14  138 1    
    30   15   16 1    
    31   15  139 1    
    32   15  140 1    
    33   16   17 1    
    34   17   18 1    
    35   17  141 1    
    36   17  142 1    
    37   18   19 1    
    38   18   67 1    
    39   18  143 1    
    40   19   20 am   BACKBONE|DICT|INTERRES
    41   19  144 1    
    42   20   21 2    
    43   20   22 1    
    44   22   23 1    
    45   22   24 1    
    46   22  145 1    
    47   23  146 1    
    48   23  147 1    
    49   23  148 1    
    50   24   25 am   BACKBONE|DICT|INTERRES
    51   24  149 1    
    52   25   26 2    
    53   25   27 1    
    54   27   28 1    
    55   27   29 1    
    56   27  150 1    
    57   28  151 1    
    58   28  152 1    
    59   28  153 1    
    60   29   30 am   BACKBONE|DICT|INTERRES
    61   29  154 1    
    62   30   31 2    
    63   30   32 1    
    64   32   33 1    
    65   32   34 1    
    66   32  155 1    
    67   33  156 1    
    68   33  157 1    
    69   33  158 1    
    70   34   35 am   BACKBONE|DICT|INTERRES
    71   34  159 1    
    72   35   36 2    
    73   35   37 1    
    74   37   38 1    
    75   37   39 1    
    76   37  160 1    
    77   38  161 1    
    78   38  162 1    
    79   38  163 1    
    80   39   40 am   BACKBONE|DICT|INTERRES
    81   39  164 1    
    82   40   41 2    
    83   40   42 1    
    84   42   43 1    
    85   42   44 1    
    86   42  165 1    
    87   43  166 1    
    88   43  167 1    
    89   43  168 1    
    90   44   45 am   BACKBONE|DICT|INTERRES
    91   44  169 1    
    92   45   46 2    
    93   45   47 1    
    94   47   48 1    
    95   47   49 1    
    96   47  170 1    
    97   48  171 1    
    98   48  172 1    
    99   48  173 1    
   100   49   50 am   BACKBONE|DICT|INTERRES
   101   49  174 1    
   102   50   51 2    
   103   50   52 1    
   104   52   53 1    
   105   52   54 1    
   106   52  175 1    
   107   53  176 1    
   108   53  177 1    
   109   53  178 1    
   110   54   55 am   BACKBONE|DICT|INTERRES
   111   54  179 1    
   112   55   56 2    
   113   55   57 1    
   114   57   58 1    
   115   57   59 1    
   116   57  180 1    
   117   58  181 1    
   118   58  182 1    
   119   58  183 1    
   120   59   60 am   BACKBONE|DICT|INTERRES
   121   59  184 1    
   122   60   61 2    
   123   60   62 1    
   124   62   63 1    
   125   62   64 1    
   126   62  185 1    
   127   63  186 1    
   128   63  187 1    
   129   63  188 1    
   130   64   65 am   BACKBONE|DICT|INTERRES
   131   64  189 1    
   132   65   66 2    
   133   67   68 2    
   134   67   69 am   BACKBONE|DICT|INTERRES
   135   69   70 1    
   136   69  190 1    
   137   70   71 1    
   138   70   72 1    
   139   70  191 1    
   140   71  192 1    
   141   71  193 1    
   142   71  194 1    
   143   72   73 2    
   144   72   74 am   BACKBONE|DICT|INTERRES
   145   74   75 1    
   146   74  195 1    
   147   75   76 1    
   148   75   77 1    
   149   75  196 1    
   150   76  197 1    
   151   76  198 1    
   152   76  199 1    
   153   77   78 2    
   154   77   79 am   BACKBONE|DICT|INTERRES
   155   79   80 1    
   156   79  200 1    
   157   80   81 1    
   158   80   82 1    
   159   80  201 1    
   160   81  202 1    
   161   81  203 1    
   162   81  204 1    
   163   82   83 2    
   164   82   84 am   BACKBONE|DICT|INTERRES
   165   84   85 1    
   166   84  205 1    
   167   85   86 1    
   168   85   87 1    
   169   85  206 1    
   170   86  207 1    
   171   86  208 1    
   172   86  209 1    
   173   87   88 2    
   174   87   89 am   BACKBONE|DICT|INTERRES
   175   89   90 1    
   176   89  210 1    
   177   90   91 1    
   178   90   92 1    
   179   90  211 1    
   180   91  212 1    
   181   91  213 1    
   182   91  214 1    
   183   92   93 2    
   184   92   94 am   BACKBONE|DICT|INTERRES
   185   94   95 1    
   186   94  215 1    
   187   95   96 1    
   188   95   97 1    
   189   95  216 1    
   190   96  217 1    
   191   96  218 1    
   192   96  219 1    
   193   97   98 2    
   194   97   99 am   BACKBONE|DICT|INTERRES
   195   99  100 1    
   196   99  220 1    
   197  100  101 1    
   198  100  102 1    
   199  100  221 1    
   200  101  222 1    
   201  101  223 1    
   202  101  224 1    
   203  102  103 2    
   204  102  104 am   BACKBONE|DICT|INTERRES
   205  104  105 1    
   206  104  225 1    
   207  105  106 1    
   208  105  107 1    
   209  105  226 1    
   210  106  227 1    
   211  106  228 1    
   212  106  229 1    
   213  107  108 2    
   214  107  109 am   BACKBONE|DICT|INTERRES
   215  109  110 1    
   216  109  230 1    
   217  110  111 1    
   218  110  112 1    
   219  110  231 1    
   220  111  232 1    
   221  111  233 1    
   222  111  234 1    
   223  112  113 2    
   224  112  114 am   BACKBONE|DICT|INTERRES
   225  114  115 1    
   226  114  235 1    
   227  115  116 1    
   228  115  117 1    
   229  115  236 1    
   230  116  237 1    
   231  116  238 1    
   232  116  239 1    
   233  117  118 2    
   234  117  119 am   BACKBONE|DICT|INTERRES
   235  119  120 1    
   236  119  240 1    
   237  120  121 1    
   238  120  124 1    
   239  120  241 1    
   240  121  122 am   BACKBONE|DICT|INTERRES
   241  121  123 2    
   242  122  242 1    
   243  122  243 1    
   244  124  125 1    
   245  124  244 1    
   246  124  245 1    
   247  125  126 1    
   248  126  246 1    
   249  126  247 1    
@<TRIPOS>SUBSTRUCTURE
     1 UNK         1 GROUP             0       ****    0 ROOT    
