@<TRIPOS>MOLECULE
3R540
247   249    1
SMALL
USER_CHARGES


@<TRIPOS>ATOM
      1 CA         -1.4064  -12.3526  -47.5184 C.3       0 UNK        -0.1800 
      2 C          -2.8428  -12.8403  -47.7007 C.2       0 UNK         0.5000 
      3 O          -3.7429  -12.0162  -47.8493 O.2       0 UNK        -0.5000 
      4 N          -3.1148  -14.1535  -47.7126 N.am      1 UNK        -0.5000 
      5 CA         -2.1733  -15.2629  -47.5047 C.3       1 UNK         0.1400 
      6 C6         -2.8081  -16.6285  -47.8718 C.3       23 UNK        -0.0398 
      7 S7         -3.3080  -16.7374  -49.6264 S.3       23 UNK        -0.2404 
      8 C8         -3.1691  -18.5346  -49.9318 C.3       23 UNK        -0.0205 
      9 C9         -1.7888  -19.0348  -50.3659 C.ar      23 UNK        -0.0193 
     10 C10        -1.6907  -20.2408  -51.0685 C.ar      23 UNK        -0.1150 
     11 C11        -0.4499  -20.7448  -51.4702 C.ar      23 UNK        -0.0193 
     12 C12         0.7151  -20.0714  -51.0960 C.ar      23 UNK        -0.1150 
     13 C13         0.6383  -18.8888  -50.3576 C.ar      23 UNK        -0.0193 
     14 C14        -0.6120  -18.3542  -50.0402 C.ar      23 UNK        -0.1150 
     15 C15         1.9011  -18.2030  -49.8619 C.3       23 UNK        -0.0205 
     16 S16         2.5297  -18.9744  -48.3314 S.3       23 UNK        -0.2404 
     17 C17         1.0972  -18.8476  -47.2039 C.3       23 UNK        -0.0398 
     18 CA          0.4930  -20.2371  -46.8662 C.3       11 UNK         0.1400 
     19 N           1.1105  -20.8024  -45.6615 N.am      11 UNK        -0.5000 
     20 C           0.8835  -22.0255  -45.1657 C.2       10 UNK         0.5000 
     21 O           0.1835  -22.8685  -45.7241 O.2       10 UNK        -0.5000 
     22 CA          1.4974  -22.3413  -43.7876 C.3       10 UNK         0.1400 
     23 CB          2.9712  -22.7526  -43.9198 C.3       10 UNK        -0.1800 
     24 N           1.3760  -21.2247  -42.8465 N.am      10 UNK        -0.5000 
     25 C           0.2106  -20.7491  -42.3824 C.2       9 UNK         0.5000 
     26 O          -0.8819  -21.2466  -42.6529 O.2       9 UNK        -0.5000 
     27 CA          0.2659  -19.4711  -41.5212 C.3       9 UNK         0.1400 
     28 CB          0.6185  -19.7963  -40.0626 C.3       9 UNK        -0.1800 
     29 N           1.2043  -18.4795  -42.0491 N.am      9 UNK        -0.5000 
     30 C           1.0801  -17.8900  -43.2461 C.2       8 UNK         0.5000 
     31 O           0.1184  -18.0696  -43.9904 O.2       8 UNK        -0.5000 
     32 CA          2.2521  -17.0115  -43.7179 C.3       8 UNK         0.1400 
     33 CB          2.1441  -15.5883  -43.1668 C.3       8 UNK        -0.1800 
     34 N           3.5444  -17.5874  -43.3523 N.am      8 UNK        -0.5000 
     35 C           4.0591  -18.6914  -43.9111 C.2       7 UNK         0.5000 
     36 O           3.5093  -19.3175  -44.8157 O.2       7 UNK        -0.5000 
     37 CA          5.3867  -19.2062  -43.3263 C.3       7 UNK         0.1400 
     38 CB          6.5784  -18.4753  -43.9622 C.3       7 UNK        -0.1800 
     39 N           5.4461  -19.0590  -41.8713 N.am      7 UNK        -0.5000 
     40 C           4.6648  -19.7291  -41.0123 C.2       6 UNK         0.5000 
     41 O           3.8541  -20.5887  -41.3569 O.2       6 UNK        -0.5000 
     42 CA          4.7720  -19.3321  -39.5274 C.3       6 UNK         0.1400 
     43 CB          5.8767  -20.1402  -38.8308 C.3       6 UNK        -0.1800 
     44 N           5.0178  -17.8991  -39.3307 N.am      6 UNK        -0.5000 
     45 C           4.1628  -16.9293  -39.6822 C.2       5 UNK         0.5000 
     46 O           3.0781  -17.1440  -40.2265 O.2       5 UNK        -0.5000 
     47 CA          4.6373  -15.4817  -39.4587 C.3       5 UNK         0.1400 
     48 CB          5.3621  -14.9649  -40.7115 C.3       5 UNK        -0.1800 
     49 N           3.5340  -14.5730  -39.1460 N.am      5 UNK        -0.5000 
     50 C           2.8410  -14.5757  -37.9990 C.2       4 UNK         0.5000 
     51 O           3.0815  -15.3376  -37.0611 O.2       4 UNK        -0.5000 
     52 CA          1.7083  -13.5366  -37.8524 C.3       4 UNK         0.1400 
     53 CB          2.1756  -12.3564  -36.9857 C.3       4 UNK        -0.1800 
     54 N           1.1991  -13.0130  -39.1249 N.am      4 UNK        -0.5000 
     55 C           0.4480  -13.7146  -39.9824 C.2       3 UNK         0.5000 
     56 O           0.1197  -14.8899  -39.7917 O.2       3 UNK        -0.5000 
     57 CA         -0.0158  -12.9908  -41.2612 C.3       3 UNK         0.1400 
     58 CB          1.1634  -12.3592  -42.0330 C.3       3 UNK        -0.1800 
     59 N          -0.7259  -13.9777  -42.0677 N.am      3 UNK        -0.5000 
     60 C          -1.4659  -13.7825  -43.1616 C.2       2 UNK         0.5000 
     61 O          -1.6127  -12.6946  -43.7228 O.2       2 UNK        -0.5000 
     62 CA         -2.2259  -15.0239  -43.6571 C.3       2 UNK         0.1400 
     63 CB         -3.5576  -15.1590  -42.8998 C.3       2 UNK        -0.1800 
     64 N          -2.5093  -14.9803  -45.0899 N.am      2 UNK        -0.5000 
     65 C          -1.6418  -15.3105  -46.0560 C.2       1 UNK         0.5000 
     66 O          -0.4746  -15.6414  -45.8535 O.2       1 UNK        -0.5000 
     67 C          -1.0469  -20.1852  -46.7449 C.2       11 UNK         0.5000 
     68 O          -1.7486  -20.6646  -47.6359 O.2       11 UNK        -0.5000 
     69 N          -1.5554  -19.6564  -45.6240 N.am      12 UNK        -0.5000 
     70 CA         -2.9852  -19.6028  -45.3106 C.3       12 UNK         0.1400 
     71 CB         -3.1944  -18.8070  -44.0174 C.3       12 UNK        -0.1800 
     72 C          -3.6451  -20.9904  -45.2103 C.2       12 UNK         0.5000 
     73 O          -4.7774  -21.1522  -45.6650 O.2       12 UNK        -0.5000 
     74 N          -2.9193  -21.9670  -44.6490 N.am      13 UNK        -0.5000 
     75 CA         -3.3329  -23.3680  -44.5785 C.3       13 UNK         0.1400 
     76 CB         -2.4213  -24.1248  -43.6007 C.3       13 UNK        -0.1800 
     77 C          -3.3554  -24.0602  -45.9556 C.2       13 UNK         0.5000 
     78 O          -4.2096  -24.9194  -46.1779 O.2       13 UNK        -0.5000 
     79 N          -2.4333  -23.6787  -46.8531 N.am      14 UNK        -0.5000 
     80 CA         -2.3612  -24.1734  -48.2289 C.3       14 UNK         0.1400 
     81 CB         -1.0247  -23.7714  -48.8734 C.3       14 UNK        -0.1800 
     82 C          -3.5529  -23.7014  -49.0801 C.2       14 UNK         0.5000 
     83 O          -4.1268  -24.5139  -49.8046 O.2       14 UNK        -0.5000 
     84 N          -3.9117  -22.4120  -48.9620 N.am      15 UNK        -0.5000 
     85 CA         -5.1185  -21.7340  -49.4758 C.3       15 UNK         0.1400 
     86 CB         -6.3810  -22.3388  -48.8341 C.3       15 UNK        -0.1800 
     87 C          -5.2869  -21.6601  -51.0126 C.2       15 UNK         0.5000 
     88 O          -5.9923  -20.7748  -51.4980 O.2       15 UNK        -0.5000 
     89 N          -4.6374  -22.5692  -51.7474 N.am      16 UNK        -0.5000 
     90 CA         -4.7718  -22.8508  -53.1783 C.3       16 UNK         0.1400 
     91 CB         -3.7986  -23.9853  -53.5273 C.3       16 UNK        -0.1800 
     92 C          -4.6005  -21.6646  -54.1477 C.2       16 UNK         0.5000 
     93 O          -5.1147  -21.7350  -55.2648 O.2       16 UNK        -0.5000 
     94 N          -3.9300  -20.5847  -53.7228 N.am      17 UNK        -0.5000 
     95 CA         -3.7589  -19.3511  -54.4976 C.3       17 UNK         0.1400 
     96 CB         -2.7967  -18.3970  -53.7762 C.3       17 UNK        -0.1800 
     97 C          -5.0884  -18.6356  -54.8007 C.2       17 UNK         0.5000 
     98 O          -5.1787  -17.9490  -55.8177 O.2       17 UNK        -0.5000 
     99 N          -6.1134  -18.8597  -53.9636 N.am      18 UNK        -0.5000 
    100 CA        -7.4853  -18.3920  -54.1799 C.3       18 UNK         0.1400 
    101 CB        -8.3124  -18.6736  -52.9167 C.3       18 UNK        -0.1800 
    102 C         -8.1585  -19.0226  -55.4182 C.2       18 UNK         0.5000 
    103 O         -9.0491  -18.4044  -56.0021 O.2       18 UNK        -0.5000 
    104 N         -7.7076  -20.2236  -55.8046 N.am      19 UNK        -0.5000 
    105 CA        -8.1275  -20.9459  -57.0063 C.3       19 UNK         0.1400 
    106 CB        -8.4044  -22.4069  -56.6114 C.3       19 UNK        -0.1800 
    107 C         -7.0622  -20.8813  -58.1213 C.2       19 UNK         0.5000 
    108 O         -7.2688  -21.4772  -59.1791 O.2       19 UNK        -0.5000 
    109 N         -5.9371  -20.1942  -57.8597 N.am      20 UNK        -0.5000 
    110 CA        -4.7136  -20.1303  -58.6695 C.3       20 UNK         0.1400 
    111 CB        -4.9653  -19.3568  -59.9801 C.3       20 UNK        -0.1800 
    112 C         -4.0722  -21.5189  -58.8968 C.2       20 UNK         0.5000 
    113 O         -3.5158  -21.7788  -59.9651 O.2       20 UNK        -0.5000 
    114 N         -4.1790  -22.3925  -57.8871 N.am      21 UNK        -0.5000 
    115 CA        -3.7957  -23.8035  -57.9392 C.3       21 UNK         0.1400 
    116 CB        -4.9507  -24.6399  -57.3585 C.3       21 UNK        -0.1800 
    117 C         -2.4479  -24.0935  -57.2452 C.2       21 UNK         0.5000 
    118 O         -2.1209  -25.2611  -57.0272 O.2       21 UNK        -0.5000 
    119 N         -1.6750  -23.0485  -56.9306 N.am      22 UNK        -0.5000 
    120 CA        -0.2918  -23.1311  -56.4402 C.3       22 UNK         0.1400 
    121 C          0.5988  -22.0289  -57.0798 C.2       22 UNK         0.5000 
    122 N          1.9145  -22.1300  -56.9458 N.am      22 UNK        -0.7600 
    123 O          0.1141  -21.0818  -57.6974 O.2       22 UNK        -0.5000 
    124 C124       -0.2030  -23.1799  -54.8881 C.3       23 UNK        -0.0398 
    125 S125       -0.7106  -21.6345  -54.0592 S.3       23 UNK        -0.2404 
    126 C126       -0.3679  -22.0097  -52.3113 C.3       23 UNK        -0.0205 
    127 H127       -1.0959  -12.4499  -46.4784 H         1 UNK         0.0600 
    128 H128       -0.7101  -12.9054  -48.1480 H         1 UNK         0.0600 
    129 H129       -1.3265  -11.3001  -47.7909 H         1 UNK         0.0600 
    130 H130       -4.0694  -14.4364  -47.8820 H         1 UNK         0.3000 
    131 H131       -1.3157  -15.1130  -48.1628 H         1 UNK         0.0600 
    132 H132       -2.1102  -17.4390  -47.6574 H         1 UNK         0.0800 
    133 H133       -3.6894  -16.8203  -47.2572 H         1 UNK         0.0800 
    134 H134       -3.9067  -18.7980  -50.6905 H         1 UNK         0.0800 
    135 H135       -3.4583  -19.0660  -49.0257 H         1 UNK         0.0800 
    136 H136       -2.5825  -20.7900  -51.3155 H         1 UNK         0.1150 
    137 H137        1.6817  -20.4721  -51.3671 H         1 UNK         0.1150 
    138 H138       -0.6543  -17.4248  -49.4949 H         1 UNK         0.1150 
    139 H139        1.7179  -17.1424  -49.6825 H         1 UNK         0.0800 
    140 H140        2.6739  -18.2540  -50.6302 H         1 UNK         0.0800 
    141 H141        0.3627  -18.1608  -47.6178 H         1 UNK         0.0800 
    142 H142        1.4330  -18.3499  -46.2987 H         1 UNK         0.0800 
    143 H143        0.7029  -20.9230  -47.6900 H         1 UNK         0.0600 
    144 H144        1.7643  -20.1999  -45.1717 H         1 UNK         0.3000 
    145 H145        0.9495  -23.1878  -43.3687 H         1 UNK         0.0600 
    146 H146        3.3892  -23.0351  -42.9534 H         1 UNK         0.0600 
    147 H147        3.0776  -23.6107  -44.5846 H         1 UNK         0.0600 
    148 H148        3.5827  -21.9467  -44.3247 H         1 UNK         0.0600 
    149 H149        2.2397  -20.7973  -42.5276 H         1 UNK         0.3000 
    150 H150       -0.7286  -19.0205  -41.5335 H         1 UNK         0.0600 
    151 H151        1.5939  -20.2739  -39.9779 H         1 UNK         0.0600 
    152 H152       -0.1164  -20.4750  -39.6281 H         1 UNK         0.0600 
    153 H153        0.6330  -18.8943  -39.4502 H         1 UNK         0.0600 
    154 H154        1.9916  -18.2259  -41.4599 H         1 UNK         0.3000 
    155 H155        2.2123  -16.9352  -44.8047 H         1 UNK         0.0600 
    156 H156        2.0635  -15.5729  -42.0800 H         1 UNK         0.0600 
    157 H157        1.2617  -15.0968  -43.5748 H         1 UNK         0.0600 
    158 H158        3.0057  -14.9861  -43.4544 H         1 UNK         0.0600 
    159 H159        4.0257  -17.1664  -42.5726 H         1 UNK         0.3000 
    160 H160        5.4682  -20.2685  -43.5661 H         1 UNK         0.0600 
    161 H161        6.5660  -17.4082  -43.7365 H         1 UNK         0.0600 
    162 H162        6.5659  -18.5816  -45.0479 H         1 UNK         0.0600 
    163 H163        7.5254  -18.8829  -43.6079 H         1 UNK         0.0600 
    164 H164        6.0929  -18.3769  -41.5046 H         1 UNK         0.3000 
    165 H165        3.8201  -19.5763  -39.0515 H         1 UNK         0.0600 
    166 H166        5.9052  -19.9292  -37.7616 H         1 UNK         0.0600 
    167 H167        6.8614  -19.9184  -39.2441 H         1 UNK         0.0600 
    168 H168        5.7065  -21.2117  -38.9445 H         1 UNK         0.0600 
    169 H169        5.8957  -17.6485  -38.8989 H         1 UNK         0.3000 
    170 H170        5.3377  -15.4684  -38.6208 H         1 UNK         0.0600 
    171 H171        6.2077  -15.6037  -40.9697 H         1 UNK         0.0600 
    172 H172        4.6994  -14.9313  -41.5767 H         1 UNK         0.0600 
    173 H173        5.7545  -13.9603  -40.5526 H         1 UNK         0.0600 
    174 H174        3.2533  -13.9311  -39.8708 H         1 UNK         0.3000 
    175 H175        0.8838  -14.0304  -37.3333 H         1 UNK         0.0600 
    176 H176        2.9918  -11.8086  -37.4584 H         1 UNK         0.0600 
    177 H177        1.3616  -11.6552  -36.8008 H         1 UNK         0.0600 
    178 H178        2.5315  -12.7009  -36.0137 H         1 UNK         0.0600 
    179 H179        1.4273  -12.0529  -39.3394 H         1 UNK         0.3000 
    180 H180       -0.7236  -12.2109  -40.9748 H         1 UNK         0.0600 
    181 H181        1.9769  -13.0654  -42.1884 H         1 UNK         0.0600 
    182 H182        1.5755  -11.5108  -41.4864 H         1 UNK         0.0600 
    183 H183        0.8584  -11.9827  -43.0089 H         1 UNK         0.0600 
    184 H184       -0.7043  -14.8954  -41.6361 H         1 UNK         0.3000 
    185 H185       -1.6144  -15.9045  -43.4491 H         1 UNK         0.0600 
    186 H186       -4.1201  -16.0324  -43.2287 H         1 UNK         0.0600 
    187 H187       -3.3895  -15.2687  -41.8277 H         1 UNK         0.0600 
    188 H188       -4.1915  -14.2829  -43.0437 H         1 UNK         0.0600 
    189 H189       -3.4236  -14.6459  -45.3562 H         1 UNK         0.3000 
    190 H190       -0.9226  -19.2388  -44.9438 H         1 UNK         0.3000 
    191 H191       -3.4789  -19.0663  -46.1226 H         1 UNK         0.0600 
    192 H192       -4.2555  -18.6902  -43.7945 H         1 UNK         0.0600 
    193 H193       -2.7658  -17.8120  -44.1085 H         1 UNK         0.0600 
    194 H194       -2.7275  -19.2944  -43.1615 H         1 UNK         0.0600 
    195 H195       -2.0241  -21.7322  -44.2318 H         1 UNK         0.3000 
    196 H196       -4.3491  -23.3968  -44.1797 H         1 UNK         0.0600 
    197 H197       -1.3844  -24.1284  -43.9357 H         1 UNK         0.0600 
    198 H198       -2.4501  -23.6765  -42.6074 H         1 UNK         0.0600 
    199 H199       -2.7364  -25.1639  -43.4984 H         1 UNK         0.0600 
    200 H200       -1.7270  -23.0079  -46.5713 H         1 UNK         0.3000 
    201 H201       -2.3938  -25.2642  -48.1885 H         1 UNK         0.0600 
    202 H202       -0.9343  -22.6927  -48.9966 H         1 UNK         0.0600 
    203 H203       -0.9223  -24.2204  -49.8617 H         1 UNK         0.0600 
    204 H204       -0.1797  -24.1107  -48.2743 H         1 UNK         0.0600 
    205 H205       -3.3094  -21.8313  -48.3853 H         1 UNK         0.3000 
    206 H206       -5.0497  -20.7045  -49.1270 H         1 UNK         0.0600 
    207 H207       -6.3158  -22.3217  -47.7460 H         1 UNK         0.0600 
    208 H208       -7.2714  -21.7744  -49.1144 H         1 UNK         0.0600 
    209 H209       -6.5392  -23.3723  -49.1436 H         1 UNK         0.0600 
    210 H210       -4.1648  -23.2905  -51.2109 H         1 UNK         0.3000 
    211 H211       -5.7869  -23.2211  -53.3321 H         1 UNK         0.0600 
    212 H212       -3.7829  -24.1943  -54.5948 H         1 UNK         0.0600 
    213 H213       -4.0768  -24.9098  -53.0210 H         1 UNK         0.0600 
    214 H214       -2.7811  -23.7402  -53.2305 H         1 UNK         0.0600 
    215 H215       -3.5323  -20.5999  -52.7982 H         1 UNK         0.3000 
    216 H216       -3.3074  -19.6258  -55.4532 H         1 UNK         0.0600 
    217 H217       -3.1997  -18.0619  -52.8215 H         1 UNK         0.0600 
    218 H218       -2.6109  -17.5066  -54.3779 H         1 UNK         0.0600 
    219 H219       -1.8299  -18.8647  -53.5935 H         1 UNK         0.0600 
    220 H220       -5.9628  -19.4532  -53.1542 H         1 UNK         0.3000 
    221 H221       -7.4521  -17.3118  -54.3359 H         1 UNK         0.0600 
    222 H222       -7.8783  -18.1858  -52.0437 H         1 UNK         0.0600 
    223 H223       -8.3727  -19.7424  -52.7068 H         1 UNK         0.0600 
    224 H224       -9.3318  -18.3011  -53.0249 H         1 UNK         0.0600 
    225 H225       -6.9555  -20.6536  -55.2796 H         1 UNK         0.3000 
    226 H226       -9.0476  -20.5185  -57.4092 H         1 UNK         0.0600 
    227 H227       -7.5061  -22.8991  -56.2363 H         1 UNK         0.0600 
    228 H228       -9.1680  -22.4671  -55.8358 H         1 UNK         0.0600 
    229 H229       -8.7634  -22.9847  -57.4639 H         1 UNK         0.0600 
    230 H230       -5.8905  -19.7025  -56.9776 H         1 UNK         0.3000 
    231 H231       -3.9924  -19.5580  -58.0845 H         1 UNK         0.0600 
    232 H232       -5.6335  -19.8989  -60.6497 H         1 UNK         0.0600 
    233 H233       -4.0324  -19.1851  -60.5182 H         1 UNK         0.0600 
    234 H234       -5.4080  -18.3807  -59.7818 H         1 UNK         0.0600 
    235 H235       -4.6181  -22.0880  -57.0208 H         1 UNK         0.3000 
    236 H236       -3.6680  -24.1126  -58.9784 H         1 UNK         0.0600 
    237 H237       -5.8518  -24.5229  -57.9610 H         1 UNK         0.0600 
    238 H238       -4.7100  -25.7034  -57.3451 H         1 UNK         0.0600 
    239 H239       -5.2002  -24.3421  -56.3413 H         1 UNK         0.0600 
    240 H240       -1.9822  -22.1186  -57.1787 H         1 UNK         0.3000 
    241 H241        0.1274  -24.0673  -56.8145 H         1 UNK         0.0600 
    242 H242        2.5013  -21.4193  -57.3548 H         1 UNK         0.3800 
    243 H243        2.3428  -22.8969  -56.4510 H         1 UNK         0.3800 
    244 H244       -0.8145  -24.0001  -54.5122 H         1 UNK         0.0800 
    245 H245        0.8182  -23.4114  -54.5825 H         1 UNK         0.0800 
    246 H246        0.6216  -22.4602  -52.2203 H         1 UNK         0.0800 
    247 H247       -1.0809  -22.7476  -51.9434 H         1 UNK         0.0800 
@<TRIPOS>BOND
     1    1    2 1    
     2    1  127 1    
     3    1  128 1    
     4    1  129 1    
     5    2    3 2    
     6    2    4 am   BACKBONE|DICT|INTERRES
     7    4    5 1    
     8    4  130 1    
     9    5    6 1    
    10    5   65 1    
    11    5  131 1    
    12    6    7 1    
    13    6  132 1    
    14    6  133 1    
    15    7    8 1    
    16    8    9 1    
    17    8  134 1    
    18    8  135 1    
    19    9   10 ar   
    20    9   14 ar   
    21   10   11 ar   
    22   10  136 1    
    23   11   12 ar   
    24   11  126 1    
    25   12   13 ar   
    26   12  137 1    
    27   13   14 ar   
    28   13   15 1    
    29   14  138 1    
    30   15   16 1    
    31   15  139 1    
    32   15  140 1    
    33   16   17 1    
    34   17   18 1    
    35   17  141 1    
    36   17  142 1    
    37   18   19 1    
    38   18   67 1    
    39   18  143 1    
    40   19   20 am   BACKBONE|DICT|INTERRES
    41   19  144 1    
    42   20   21 2    
    43   20   22 1    
    44   22   23 1    
    45   22   24 1    
    46   22  145 1    
    47   23  146 1    
    48   23  147 1    
    49   23  148 1    
    50   24   25 am   BACKBONE|DICT|INTERRES
    51   24  149 1    
    52   25   26 2    
    53   25   27 1    
    54   27   28 1    
    55   27   29 1    
    56   27  150 1    
    57   28  151 1    
    58   28  152 1    
    59   28  153 1    
    60   29   30 am   BACKBONE|DICT|INTERRES
    61   29  154 1    
    62   30   31 2    
    63   30   32 1    
    64   32   33 1    
    65   32   34 1    
    66   32  155 1    
    67   33  156 1    
    68   33  157 1    
    69   33  158 1    
    70   34   35 am   BACKBONE|DICT|INTERRES
    71   34  159 1    
    72   35   36 2    
    73   35   37 1    
    74   37   38 1    
    75   37   39 1    
    76   37  160 1    
    77   38  161 1    
    78   38  162 1    
    79   38  163 1    
    80   39   40 am   BACKBONE|DICT|INTERRES
    81   39  164 1    
    82   40   41 2    
    83   40   42 1    
    84   42   43 1    
    85   42   44 1    
    86   42  165 1    
    87   43  166 1    
    88   43  167 1    
    89   43  168 1    
    90   44   45 am   BACKBONE|DICT|INTERRES
    91   44  169 1    
    92   45   46 2    
    93   45   47 1    
    94   47   48 1    
    95   47   49 1    
    96   47  170 1    
    97   48  171 1    
    98   48  172 1    
    99   48  173 1    
   100   49   50 am   BACKBONE|DICT|INTERRES
   101   49  174 1    
   102   50   51 2    
   103   50   52 1    
   104   52   53 1    
   105   52   54 1    
   106   52  175 1    
   107   53  176 1    
   108   53  177 1    
   109   53  178 1    
   110   54   55 am   BACKBONE|DICT|INTERRES
   111   54  179 1    
   112   55   56 2    
   113   55   57 1    
   114   57   58 1    
   115   57   59 1    
   116   57  180 1    
   117   58  181 1    
   118   58  182 1    
   119   58  183 1    
   120   59   60 am   BACKBONE|DICT|INTERRES
   121   59  184 1    
   122   60   61 2    
   123   60   62 1    
   124   62   63 1    
   125   62   64 1    
   126   62  185 1    
   127   63  186 1    
   128   63  187 1    
   129   63  188 1    
   130   64   65 am   BACKBONE|DICT|INTERRES
   131   64  189 1    
   132   65   66 2    
   133   67   68 2    
   134   67   69 am   BACKBONE|DICT|INTERRES
   135   69   70 1    
   136   69  190 1    
   137   70   71 1    
   138   70   72 1    
   139   70  191 1    
   140   71  192 1    
   141   71  193 1    
   142   71  194 1    
   143   72   73 2    
   144   72   74 am   BACKBONE|DICT|INTERRES
   145   74   75 1    
   146   74  195 1    
   147   75   76 1    
   148   75   77 1    
   149   75  196 1    
   150   76  197 1    
   151   76  198 1    
   152   76  199 1    
   153   77   78 2    
   154   77   79 am   BACKBONE|DICT|INTERRES
   155   79   80 1    
   156   79  200 1    
   157   80   81 1    
   158   80   82 1    
   159   80  201 1    
   160   81  202 1    
   161   81  203 1    
   162   81  204 1    
   163   82   83 2    
   164   82   84 am   BACKBONE|DICT|INTERRES
   165   84   85 1    
   166   84  205 1    
   167   85   86 1    
   168   85   87 1    
   169   85  206 1    
   170   86  207 1    
   171   86  208 1    
   172   86  209 1    
   173   87   88 2    
   174   87   89 am   BACKBONE|DICT|INTERRES
   175   89   90 1    
   176   89  210 1    
   177   90   91 1    
   178   90   92 1    
   179   90  211 1    
   180   91  212 1    
   181   91  213 1    
   182   91  214 1    
   183   92   93 2    
   184   92   94 am   BACKBONE|DICT|INTERRES
   185   94   95 1    
   186   94  215 1    
   187   95   96 1    
   188   95   97 1    
   189   95  216 1    
   190   96  217 1    
   191   96  218 1    
   192   96  219 1    
   193   97   98 2    
   194   97   99 am   BACKBONE|DICT|INTERRES
   195   99  100 1    
   196   99  220 1    
   197  100  101 1    
   198  100  102 1    
   199  100  221 1    
   200  101  222 1    
   201  101  223 1    
   202  101  224 1    
   203  102  103 2    
   204  102  104 am   BACKBONE|DICT|INTERRES
   205  104  105 1    
   206  104  225 1    
   207  105  106 1    
   208  105  107 1    
   209  105  226 1    
   210  106  227 1    
   211  106  228 1    
   212  106  229 1    
   213  107  108 2    
   214  107  109 am   BACKBONE|DICT|INTERRES
   215  109  110 1    
   216  109  230 1    
   217  110  111 1    
   218  110  112 1    
   219  110  231 1    
   220  111  232 1    
   221  111  233 1    
   222  111  234 1    
   223  112  113 2    
   224  112  114 am   BACKBONE|DICT|INTERRES
   225  114  115 1    
   226  114  235 1    
   227  115  116 1    
   228  115  117 1    
   229  115  236 1    
   230  116  237 1    
   231  116  238 1    
   232  116  239 1    
   233  117  118 2    
   234  117  119 am   BACKBONE|DICT|INTERRES
   235  119  120 1    
   236  119  240 1    
   237  120  121 1    
   238  120  124 1    
   239  120  241 1    
   240  121  122 am   BACKBONE|DICT|INTERRES
   241  121  123 2    
   242  122  242 1    
   243  122  243 1    
   244  124  125 1    
   245  124  244 1    
   246  124  245 1    
   247  125  126 1    
   248  126  246 1    
   249  126  247 1    
@<TRIPOS>SUBSTRUCTURE
     1 UNK         1 GROUP             0       ****    0 ROOT    
