@<TRIPOS>MOLECULE
3R540
247   249    1
SMALL
USER_CHARGES


@<TRIPOS>ATOM
      1 CA          5.6478  -12.2881  -42.2934 C.3       0 UNK        -0.1800 
      2 C           4.8862  -12.3651  -43.6071 C.2       0 UNK         0.5000 
      3 O           4.3399  -11.3609  -44.0605 O.2       0 UNK        -0.5000 
      4 N           4.8513  -13.5474  -44.2356 N.am      1 UNK        -0.5000 
      5 CA          4.1408  -13.8104  -45.4964 C.3       1 UNK         0.1400 
      6 C6          4.0136  -15.3324  -45.7656 C.3       23 UNK        -0.0398 
      7 S7          2.4131  -15.7819  -46.5151 S.3       23 UNK        -0.2404 
      8 C8          2.9119  -16.1139  -48.2308 C.3       23 UNK        -0.0205 
      9 C9          1.7226  -16.5270  -49.0818 C.ar      23 UNK        -0.0193 
     10 C10         0.8415  -15.5592  -49.5689 C.ar      23 UNK        -0.1150 
     11 C11        -0.2445  -15.9289  -50.3650 C.ar      23 UNK        -0.0193 
     12 C12        -0.4478  -17.2792  -50.6680 C.ar      23 UNK        -0.1150 
     13 C13         0.4294  -18.2629  -50.1990 C.ar      23 UNK        -0.0193 
     14 C14         1.5156  -17.8719  -49.4018 C.ar      23 UNK        -0.1150 
     15 C15         0.1711  -19.7174  -50.6111 C.3       23 UNK        -0.0205 
     16 S16         1.1956  -20.9860  -49.7827 S.3       23 UNK        -0.2404 
     17 C17         0.5121  -20.9103  -48.0937 C.3       23 UNK        -0.0398 
     18 CA         -0.0785  -22.2400  -47.5725 C.3       11 UNK         0.1400 
     19 N          -0.4403  -22.1131  -46.1587 N.am      11 UNK        -0.5000 
     20 C          -0.9143  -23.0877  -45.3714 C.2       10 UNK         0.5000 
     21 O          -1.0842  -24.2484  -45.7389 O.2       10 UNK        -0.5000 
     22 CA         -1.3244  -22.6750  -43.9492 C.3       10 UNK         0.1400 
     23 CB         -0.0965  -22.5293  -43.0373 C.3       10 UNK        -0.1800 
     24 N          -2.0848  -21.4259  -43.9623 N.am      10 UNK        -0.5000 
     25 C          -3.3460  -21.3185  -44.4042 C.2       9 UNK         0.5000 
     26 O          -4.0235  -22.2761  -44.7789 O.2       9 UNK        -0.5000 
     27 CA         -3.9354  -19.8965  -44.4684 C.3       9 UNK         0.1400 
     28 CB         -4.5289  -19.4938  -43.1104 C.3       9 UNK        -0.1800 
     29 N          -2.9530  -18.8928  -44.8845 N.am      9 UNK        -0.5000 
     30 C          -2.4028  -18.8375  -46.1053 C.2       8 UNK         0.5000 
     31 O          -2.6825  -19.6150  -47.0146 O.2       8 UNK        -0.5000 
     32 CA         -1.3244  -17.7670  -46.3397 C.3       8 UNK         0.1400 
     33 CB         -1.9619  -16.4629  -46.8212 C.3       8 UNK        -0.1800 
     34 N          -0.4785  -17.5130  -45.1710 N.am      8 UNK        -0.5000 
     35 C           0.3294  -18.4314  -44.6181 C.2       7 UNK         0.5000 
     36 O           0.3533  -19.6077  -44.9838 O.2       7 UNK        -0.5000 
     37 CA          1.2657  -17.9865  -43.4797 C.3       7 UNK         0.1400 
     38 CB          2.7026  -18.4790  -43.7250 C.3       7 UNK        -0.1800 
     39 N           1.2838  -16.5308  -43.3142 N.am      7 UNK        -0.5000 
     40 C           0.8325  -15.8783  -42.2359 C.2       6 UNK         0.5000 
     41 O           0.3531  -16.4372  -41.2487 O.2       6 UNK        -0.5000 
     42 CA          0.9282  -14.3386  -42.2480 C.3       6 UNK         0.1400 
     43 CB          2.2005  -13.8856  -41.5159 C.3       6 UNK        -0.1800 
     44 N           0.8939  -13.7032  -43.5711 N.am      6 UNK        -0.5000 
     45 C          -0.1021  -13.8079  -44.4644 C.2       5 UNK         0.5000 
     46 O          -1.0434  -14.5901  -44.3345 O.2       5 UNK        -0.5000 
     47 CA         -0.0417  -12.8615  -45.6796 C.3       5 UNK         0.1400 
     48 CB         -1.4199  -12.6302  -46.3318 C.3       5 UNK        -0.1800 
     49 N           0.5352  -11.5745  -45.2883 N.am      5 UNK        -0.5000 
     50 C           1.1952  -10.7390  -46.0984 C.2       4 UNK         0.5000 
     51 O           1.4206  -10.9776  -47.2849 O.2       4 UNK        -0.5000 
     52 CA          1.6718   -9.4032  -45.5011 C.3       4 UNK         0.1400 
     53 CB          1.2521   -9.1745  -44.0337 C.3       4 UNK        -0.1800 
     54 N           3.1257   -9.3473  -45.5841 N.am      4 UNK        -0.5000 
     55 C           3.8423   -8.3717  -46.1520 C.2       3 UNK         0.5000 
     56 O           3.3510   -7.3896  -46.7103 O.2       3 UNK        -0.5000 
     57 CA          5.3714   -8.5112  -46.0750 C.3       3 UNK         0.1400 
     58 CB          5.8799   -8.0818  -44.6891 C.3       3 UNK        -0.1800 
     59 N           5.8032   -9.8846  -46.3353 N.am      3 UNK        -0.5000 
     60 C           6.2540  -10.3319  -47.5158 C.2       2 UNK         0.5000 
     61 O           6.3488   -9.6287  -48.5225 O.2       2 UNK        -0.5000 
     62 CA          6.6940  -11.8089  -47.5881 C.3       2 UNK         0.1400 
     63 CB          8.2119  -11.9255  -47.3805 C.3       2 UNK        -0.1800 
     64 N           6.0159  -12.6552  -46.6056 N.am      2 UNK        -0.5000 
     65 C           4.7409  -13.0559  -46.7065 C.2       1 UNK         0.5000 
     66 O           4.0407  -12.8295  -47.6913 O.2       1 UNK        -0.5000 
     67 C          -1.2600  -22.7432  -48.4324 C.2       11 UNK         0.5000 
     68 O          -1.0825  -23.6644  -49.2290 O.2       11 UNK        -0.5000 
     69 N          -2.4533  -22.1740  -48.2117 N.am      12 UNK        -0.5000 
     70 CA         -3.7026  -22.5442  -48.8756 C.3       12 UNK         0.1400 
     71 CB         -4.8154  -21.5949  -48.4055 C.3       12 UNK        -0.1800 
     72 C          -4.1167  -24.0112  -48.6536 C.2       12 UNK         0.5000 
     73 O          -4.6611  -24.6300  -49.5705 O.2       12 UNK        -0.5000 
     74 N          -3.8428  -24.5345  -47.4512 N.am      13 UNK        -0.5000 
     75 CA         -4.0634  -25.9314  -47.0868 C.3       13 UNK         0.1400 
     76 CB         -4.1865  -26.0483  -45.5601 C.3       13 UNK        -0.1800 
     77 C          -2.9447  -26.8427  -47.6209 C.2       13 UNK         0.5000 
     78 O          -3.2397  -27.9054  -48.1682 O.2       13 UNK        -0.5000 
     79 N          -1.6849  -26.4062  -47.4732 N.am      14 UNK        -0.5000 
     80 CA         -0.4829  -27.1209  -47.9140 C.3       14 UNK         0.1400 
     81 CB          0.7673  -26.3689  -47.4352 C.3       14 UNK        -0.1800 
     82 C          -0.4236  -27.3486  -49.4351 C.2       14 UNK         0.5000 
     83 O           0.1068  -28.3701  -49.8751 O.2       14 UNK        -0.5000 
     84 N          -1.0091  -26.4254  -50.2087 N.am      15 UNK        -0.5000 
     85 CA         -1.2217  -26.5076  -51.6535 C.3       15 UNK         0.1400 
     86 CB         -1.5509  -25.0977  -52.1759 C.3       15 UNK        -0.1800 
     87 C          -2.3090  -27.5398  -52.0308 C.2       15 UNK         0.5000 
     88 O          -3.3101  -27.1821  -52.6512 O.2       15 UNK        -0.5000 
     89 N          -2.1057  -28.8016  -51.6252 N.am      16 UNK        -0.5000 
     90 CA         -2.9267  -29.9874  -51.9065 C.3       16 UNK         0.1400 
     91 CB         -2.7573  -30.3969  -53.3842 C.3       16 UNK        -0.1800 
     92 C          -4.4130  -29.8501  -51.5026 C.2       16 UNK         0.5000 
     93 O          -5.2772  -30.4598  -52.1353 O.2       16 UNK        -0.5000 
     94 N          -4.6846  -29.0356  -50.4711 N.am      17 UNK        -0.5000 
     95 CA         -6.0065  -28.6372  -49.9767 C.3       17 UNK         0.1400 
     96 CB         -6.7276  -29.8331  -49.3213 C.3       17 UNK        -0.1800 
     97 C          -6.8762  -27.9103  -51.0285 C.2       17 UNK         0.5000 
     98 O          -8.1045  -27.9546  -50.9400 O.2       17 UNK        -0.5000 
     99 N          -6.2369  -27.2389  -51.9993 N.am      18 UNK        -0.5000 
    100 CA        -6.9021  -26.5073  -53.0817 C.3       18 UNK         0.1400 
    101 CB        -5.8991  -26.2741  -54.2226 C.3       18 UNK        -0.1800 
    102 C         -7.5243  -25.1683  -52.6389 C.2       18 UNK         0.5000 
    103 O         -8.2741  -24.5773  -53.4170 O.2       18 UNK        -0.5000 
    104 N         -7.1947  -24.7096  -51.4211 N.am      19 UNK        -0.5000 
    105 CA        -7.5896  -23.4336  -50.8184 C.3       19 UNK         0.1400 
    106 CB        -9.1192  -23.3353  -50.6383 C.3       19 UNK        -0.1800 
    107 C         -6.9789  -22.2383  -51.5765 C.2       19 UNK         0.5000 
    108 O         -7.6676  -21.2574  -51.8642 O.2       19 UNK        -0.5000 
    109 N         -5.6791  -22.3502  -51.8854 N.am      20 UNK        -0.5000 
    110 CA        -4.8676  -21.3747  -52.6207 C.3       20 UNK         0.1400 
    111 CB        -3.6173  -22.0923  -53.1613 C.3       20 UNK        -0.1800 
    112 C         -4.5145  -20.1186  -51.7891 C.2       20 UNK         0.5000 
    113 O         -3.3407  -19.7689  -51.6558 O.2       20 UNK        -0.5000 
    114 N         -5.5411  -19.4720  -51.2279 N.am      21 UNK        -0.5000 
    115 CA        -5.4557  -18.2118  -50.4940 C.3       21 UNK         0.1400 
    116 CB        -6.7334  -18.0540  -49.6540 C.3       21 UNK        -0.1800 
    117 C         -5.2605  -17.0105  -51.4408 C.2       21 UNK         0.5000 
    118 O         -5.4377  -17.1350  -52.6558 O.2       21 UNK        -0.5000 
    119 N         -4.9047  -15.8605  -50.8585 N.am      22 UNK        -0.5000 
    120 CA        -4.5556  -14.6220  -51.5790 C.3       22 UNK         0.1400 
    121 C         -5.7463  -13.8783  -52.2545 C.2       22 UNK         0.5000 
    122 N         -6.9959  -14.2386  -51.9896 N.am      22 UNK        -0.7600 
    123 O         -5.5301  -12.9568  -53.0369 O.2       22 UNK        -0.5000 
    124 C124       -3.7300  -13.6394  -50.7009 C.3       23 UNK        -0.0398 
    125 S125       -2.4496  -14.4372  -49.6733 S.3       23 UNK        -0.2404 
    126 C126       -1.1904  -14.8698  -50.9078 C.3       23 UNK        -0.0205 
    127 H127        6.0768  -13.2511  -42.0163 H         1 UNK         0.0600 
    128 H128        6.4571  -11.5623  -42.3720 H         1 UNK         0.0600 
    129 H129        4.9794  -11.9700  -41.4934 H         1 UNK         0.0600 
    130 H130        5.3384  -14.3337  -43.8287 H         1 UNK         0.3000 
    131 H131        3.1377  -13.4022  -45.3619 H         1 UNK         0.0600 
    132 H132        4.8427  -15.7126  -46.3655 H         1 UNK         0.0800 
    133 H133        4.0664  -15.8835  -44.8260 H         1 UNK         0.0800 
    134 H134        3.3718  -15.2234  -48.6602 H         1 UNK         0.0800 
    135 H135        3.6758  -16.8929  -48.2416 H         1 UNK         0.0800 
    136 H136        1.0010  -14.5177  -49.3256 H         1 UNK         0.1150 
    137 H137       -1.2898  -17.5671  -51.2832 H         1 UNK         0.1150 
    138 H138        2.2169  -18.6035  -49.0300 H         1 UNK         0.1150 
    139 H139       -0.8804  -19.9584  -50.4448 H         1 UNK         0.0800 
    140 H140        0.3359  -19.8002  -51.6860 H         1 UNK         0.0800 
    141 H141       -0.2438  -20.1288  -48.0460 H         1 UNK         0.0800 
    142 H142        1.3184  -20.5833  -47.4354 H         1 UNK         0.0800 
    143 H143        0.7070  -22.9956  -47.6273 H         1 UNK         0.0600 
    144 H144       -0.3010  -21.1941  -45.7457 H         1 UNK         0.3000 
    145 H145       -1.9587  -23.4643  -43.5395 H         1 UNK         0.0600 
    146 H146       -0.3911  -22.2813  -42.0176 H         1 UNK         0.0600 
    147 H147        0.4673  -23.4621  -42.9946 H         1 UNK         0.0600 
    148 H148        0.5837  -21.7526  -43.3875 H         1 UNK         0.0600 
    149 H149       -1.5821  -20.5847  -43.7212 H         1 UNK         0.3000 
    150 H150       -4.7422  -19.9058  -45.2046 H         1 UNK         0.0600 
    151 H151       -5.2788  -20.2153  -42.7832 H         1 UNK         0.0600 
    152 H152       -5.0185  -18.5213  -43.1670 H         1 UNK         0.0600 
    153 H153       -3.7639  -19.4405  -42.3348 H         1 UNK         0.0600 
    154 H154       -2.6642  -18.2149  -44.1945 H         1 UNK         0.3000 
    155 H155       -0.6727  -18.1195  -47.1399 H         1 UNK         0.0600 
    156 H156       -2.5931  -16.6415  -47.6924 H         1 UNK         0.0600 
    157 H157       -1.1947  -15.7478  -47.1175 H         1 UNK         0.0600 
    158 H158       -2.5837  -16.0041  -46.0522 H         1 UNK         0.0600 
    159 H159       -0.4951  -16.5716  -44.7956 H         1 UNK         0.3000 
    160 H160        0.8989  -18.4724  -42.5737 H         1 UNK         0.0600 
    161 H161        3.3783  -18.1341  -42.9423 H         1 UNK         0.0600 
    162 H162        3.0910  -18.1339  -44.6831 H         1 UNK         0.0600 
    163 H163        2.7460  -19.5689  -43.7314 H         1 UNK         0.0600 
    164 H164        1.6360  -15.9954  -44.0956 H         1 UNK         0.3000 
    165 H165        0.0668  -13.9620  -41.6926 H         1 UNK         0.0600 
    166 H166        2.2667  -12.7986  -41.4642 H         1 UNK         0.0600 
    167 H167        2.2147  -14.2590  -40.4911 H         1 UNK         0.0600 
    168 H168        3.0985  -14.2577  -42.0092 H         1 UNK         0.0600 
    169 H169        1.6376  -13.0494  -43.7639 H         1 UNK         0.3000 
    170 H170        0.6099  -13.3405  -46.4130 H         1 UNK         0.0600 
    171 H171       -1.8801  -13.5673  -46.6417 H         1 UNK         0.0600 
    172 H172       -2.1090  -12.1391  -45.6444 H         1 UNK         0.0600 
    173 H173       -1.3365  -12.0094  -47.2239 H         1 UNK         0.0600 
    174 H174        0.3717  -11.2915  -44.3316 H         1 UNK         0.3000 
    175 H175        1.2208   -8.6167  -46.1094 H         1 UNK         0.0600 
    176 H176        1.5838   -8.1956  -43.6869 H         1 UNK         0.0600 
    177 H177        0.1675   -9.1995  -43.9204 H         1 UNK         0.0600 
    178 H178        1.6837   -9.9199  -43.3640 H         1 UNK         0.0600 
    179 H179        3.6157  -10.1187  -45.1354 H         1 UNK         0.3000 
    180 H180        5.8069   -7.8338  -46.8127 H         1 UNK         0.0600 
    181 H181        5.4892   -8.7223  -43.8971 H         1 UNK         0.0600 
    182 H182        5.5784   -7.0583  -44.4626 H         1 UNK         0.0600 
    183 H183        6.9683   -8.1179  -44.6416 H         1 UNK         0.0600 
    184 H184        5.7023  -10.5395  -45.5717 H         1 UNK         0.3000 
    185 H185        6.4586  -12.1767  -48.5893 H         1 UNK         0.0600 
    186 H186        8.5475  -12.9567  -47.4926 H         1 UNK         0.0600 
    187 H187        8.7535  -11.3274  -48.1146 H         1 UNK         0.0600 
    188 H188        8.5114  -11.5795  -46.3903 H         1 UNK         0.0600 
    189 H189        6.5325  -12.8907  -45.7708 H         1 UNK         0.3000 
    190 H190       -2.5055  -21.3762  -47.5823 H         1 UNK         0.3000 
    191 H191       -3.5527  -22.4031  -49.9463 H         1 UNK         0.0600 
    192 H192       -4.9636  -21.6531  -47.3269 H         1 UNK         0.0600 
    193 H193       -5.7680  -21.8255  -48.8778 H         1 UNK         0.0600 
    194 H194       -4.5786  -20.5606  -48.6524 H         1 UNK         0.0600 
    195 H195       -3.3917  -23.9495  -46.7606 H         1 UNK         0.3000 
    196 H196       -5.0069  -26.2633  -47.5244 H         1 UNK         0.0600 
    197 H197       -3.2783  -25.7221  -45.0524 H         1 UNK         0.0600 
    198 H198       -4.3771  -27.0801  -45.2623 H         1 UNK         0.0600 
    199 H199       -5.0120  -25.4428  -45.1853 H         1 UNK         0.0600 
    200 H200       -1.5266  -25.5347  -46.9721 H         1 UNK         0.3000 
    201 H201       -0.4931  -28.1029  -47.4371 H         1 UNK         0.0600 
    202 H202        0.8236  -25.3711  -47.8698 H         1 UNK         0.0600 
    203 H203        1.6764  -26.9017  -47.7167 H         1 UNK         0.0600 
    204 H204        0.7748  -26.2644  -46.3501 H         1 UNK         0.0600 
    205 H205       -1.3528  -25.5831  -49.7576 H         1 UNK         0.3000 
    206 H206       -0.2909  -26.8314  -52.1231 H         1 UNK         0.0600 
    207 H207       -0.7459  -24.3962  -51.9559 H         1 UNK         0.0600 
    208 H208       -1.6939  -25.0987  -53.2572 H         1 UNK         0.0600 
    209 H209       -2.4639  -24.7111  -51.7211 H         1 UNK         0.0600 
    210 H210       -1.2735  -28.9646  -51.0645 H         1 UNK         0.3000 
    211 H211       -2.5215  -30.7912  -51.2905 H         1 UNK         0.0600 
    212 H212       -3.1904  -29.6564  -54.0578 H         1 UNK         0.0600 
    213 H213       -3.2440  -31.3513  -53.5882 H         1 UNK         0.0600 
    214 H214       -1.7049  -30.5112  -53.6437 H         1 UNK         0.0600 
    215 H215       -3.9056  -28.6074  -49.9813 H         1 UNK         0.3000 
    216 H216       -5.8224  -27.9013  -49.1939 H         1 UNK         0.0600 
    217 H217       -6.0959  -30.3101  -48.5720 H         1 UNK         0.0600 
    218 H218       -7.6398  -29.5128  -48.8165 H         1 UNK         0.0600 
    219 H219       -7.0086  -30.5889  -50.0550 H         1 UNK         0.0600 
    220 H220       -5.2214  -27.2600  -52.0326 H         1 UNK         0.3000 
    221 H221       -7.7116  -27.1304  -53.4674 H         1 UNK         0.0600 
    222 H222       -5.0899  -25.6102  -53.9156 H         1 UNK         0.0600 
    223 H223       -5.4560  -27.2120  -54.5583 H         1 UNK         0.0600 
    224 H224       -6.3857  -25.8180  -55.0855 H         1 UNK         0.0600 
    225 H225       -6.5327  -25.2540  -50.8829 H         1 UNK         0.3000 
    226 H226       -7.1527  -23.4260  -49.8202 H         1 UNK         0.0600 
    227 H227       -9.5100  -24.2041  -50.1087 H         1 UNK         0.0600 
    228 H228       -9.3841  -22.4530  -50.0546 H         1 UNK         0.0600 
    229 H229       -9.6417  -23.2603  -51.5921 H         1 UNK         0.0600 
    230 H230       -5.2044  -23.1945  -51.5979 H         1 UNK         0.3000 
    231 H231       -5.4480  -21.0317  -53.4796 H         1 UNK         0.0600 
    232 H232       -3.8854  -22.9656  -53.7565 H         1 UNK         0.0600 
    233 H233       -2.9627  -22.4226  -52.3545 H         1 UNK         0.0600 
    234 H234       -3.0346  -21.4305  -53.8032 H         1 UNK         0.0600 
    235 H235       -6.4726  -19.8326  -51.4120 H         1 UNK         0.3000 
    236 H236       -4.5966  -18.2582  -49.8207 H         1 UNK         0.0600 
    237 H237       -6.7000  -17.1494  -49.0459 H         1 UNK         0.0600 
    238 H238       -7.6227  -17.9963  -50.2830 H         1 UNK         0.0600 
    239 H239       -6.8606  -18.8951  -48.9719 H         1 UNK         0.0600 
    240 H240       -4.7803  -15.8290  -49.8572 H         1 UNK         0.3000 
    241 H241       -3.9113  -14.9240  -52.4063 H         1 UNK         0.0600 
    242 H242       -7.7588  -13.7530  -52.4351 H         1 UNK         0.3800 
    243 H243       -7.1858  -14.9988  -51.3569 H         1 UNK         0.3800 
    244 H244       -3.2556  -12.8782  -51.3227 H         1 UNK         0.0800 
    245 H245       -4.3910  -13.1016  -50.0189 H         1 UNK         0.0800 
    246 H246       -0.6342  -13.9742  -51.1883 H         1 UNK         0.0800 
    247 H247       -1.6668  -15.2359  -51.8175 H         1 UNK         0.0800 
@<TRIPOS>BOND
     1    1    2 1    
     2    1  127 1    
     3    1  128 1    
     4    1  129 1    
     5    2    3 2    
     6    2    4 am   BACKBONE|DICT|INTERRES
     7    4    5 1    
     8    4  130 1    
     9    5    6 1    
    10    5   65 1    
    11    5  131 1    
    12    6    7 1    
    13    6  132 1    
    14    6  133 1    
    15    7    8 1    
    16    8    9 1    
    17    8  134 1    
    18    8  135 1    
    19    9   10 ar   
    20    9   14 ar   
    21   10   11 ar   
    22   10  136 1    
    23   11   12 ar   
    24   11  126 1    
    25   12   13 ar   
    26   12  137 1    
    27   13   14 ar   
    28   13   15 1    
    29   14  138 1    
    30   15   16 1    
    31   15  139 1    
    32   15  140 1    
    33   16   17 1    
    34   17   18 1    
    35   17  141 1    
    36   17  142 1    
    37   18   19 1    
    38   18   67 1    
    39   18  143 1    
    40   19   20 am   BACKBONE|DICT|INTERRES
    41   19  144 1    
    42   20   21 2    
    43   20   22 1    
    44   22   23 1    
    45   22   24 1    
    46   22  145 1    
    47   23  146 1    
    48   23  147 1    
    49   23  148 1    
    50   24   25 am   BACKBONE|DICT|INTERRES
    51   24  149 1    
    52   25   26 2    
    53   25   27 1    
    54   27   28 1    
    55   27   29 1    
    56   27  150 1    
    57   28  151 1    
    58   28  152 1    
    59   28  153 1    
    60   29   30 am   BACKBONE|DICT|INTERRES
    61   29  154 1    
    62   30   31 2    
    63   30   32 1    
    64   32   33 1    
    65   32   34 1    
    66   32  155 1    
    67   33  156 1    
    68   33  157 1    
    69   33  158 1    
    70   34   35 am   BACKBONE|DICT|INTERRES
    71   34  159 1    
    72   35   36 2    
    73   35   37 1    
    74   37   38 1    
    75   37   39 1    
    76   37  160 1    
    77   38  161 1    
    78   38  162 1    
    79   38  163 1    
    80   39   40 am   BACKBONE|DICT|INTERRES
    81   39  164 1    
    82   40   41 2    
    83   40   42 1    
    84   42   43 1    
    85   42   44 1    
    86   42  165 1    
    87   43  166 1    
    88   43  167 1    
    89   43  168 1    
    90   44   45 am   BACKBONE|DICT|INTERRES
    91   44  169 1    
    92   45   46 2    
    93   45   47 1    
    94   47   48 1    
    95   47   49 1    
    96   47  170 1    
    97   48  171 1    
    98   48  172 1    
    99   48  173 1    
   100   49   50 am   BACKBONE|DICT|INTERRES
   101   49  174 1    
   102   50   51 2    
   103   50   52 1    
   104   52   53 1    
   105   52   54 1    
   106   52  175 1    
   107   53  176 1    
   108   53  177 1    
   109   53  178 1    
   110   54   55 am   BACKBONE|DICT|INTERRES
   111   54  179 1    
   112   55   56 2    
   113   55   57 1    
   114   57   58 1    
   115   57   59 1    
   116   57  180 1    
   117   58  181 1    
   118   58  182 1    
   119   58  183 1    
   120   59   60 am   BACKBONE|DICT|INTERRES
   121   59  184 1    
   122   60   61 2    
   123   60   62 1    
   124   62   63 1    
   125   62   64 1    
   126   62  185 1    
   127   63  186 1    
   128   63  187 1    
   129   63  188 1    
   130   64   65 am   BACKBONE|DICT|INTERRES
   131   64  189 1    
   132   65   66 2    
   133   67   68 2    
   134   67   69 am   BACKBONE|DICT|INTERRES
   135   69   70 1    
   136   69  190 1    
   137   70   71 1    
   138   70   72 1    
   139   70  191 1    
   140   71  192 1    
   141   71  193 1    
   142   71  194 1    
   143   72   73 2    
   144   72   74 am   BACKBONE|DICT|INTERRES
   145   74   75 1    
   146   74  195 1    
   147   75   76 1    
   148   75   77 1    
   149   75  196 1    
   150   76  197 1    
   151   76  198 1    
   152   76  199 1    
   153   77   78 2    
   154   77   79 am   BACKBONE|DICT|INTERRES
   155   79   80 1    
   156   79  200 1    
   157   80   81 1    
   158   80   82 1    
   159   80  201 1    
   160   81  202 1    
   161   81  203 1    
   162   81  204 1    
   163   82   83 2    
   164   82   84 am   BACKBONE|DICT|INTERRES
   165   84   85 1    
   166   84  205 1    
   167   85   86 1    
   168   85   87 1    
   169   85  206 1    
   170   86  207 1    
   171   86  208 1    
   172   86  209 1    
   173   87   88 2    
   174   87   89 am   BACKBONE|DICT|INTERRES
   175   89   90 1    
   176   89  210 1    
   177   90   91 1    
   178   90   92 1    
   179   90  211 1    
   180   91  212 1    
   181   91  213 1    
   182   91  214 1    
   183   92   93 2    
   184   92   94 am   BACKBONE|DICT|INTERRES
   185   94   95 1    
   186   94  215 1    
   187   95   96 1    
   188   95   97 1    
   189   95  216 1    
   190   96  217 1    
   191   96  218 1    
   192   96  219 1    
   193   97   98 2    
   194   97   99 am   BACKBONE|DICT|INTERRES
   195   99  100 1    
   196   99  220 1    
   197  100  101 1    
   198  100  102 1    
   199  100  221 1    
   200  101  222 1    
   201  101  223 1    
   202  101  224 1    
   203  102  103 2    
   204  102  104 am   BACKBONE|DICT|INTERRES
   205  104  105 1    
   206  104  225 1    
   207  105  106 1    
   208  105  107 1    
   209  105  226 1    
   210  106  227 1    
   211  106  228 1    
   212  106  229 1    
   213  107  108 2    
   214  107  109 am   BACKBONE|DICT|INTERRES
   215  109  110 1    
   216  109  230 1    
   217  110  111 1    
   218  110  112 1    
   219  110  231 1    
   220  111  232 1    
   221  111  233 1    
   222  111  234 1    
   223  112  113 2    
   224  112  114 am   BACKBONE|DICT|INTERRES
   225  114  115 1    
   226  114  235 1    
   227  115  116 1    
   228  115  117 1    
   229  115  236 1    
   230  116  237 1    
   231  116  238 1    
   232  116  239 1    
   233  117  118 2    
   234  117  119 am   BACKBONE|DICT|INTERRES
   235  119  120 1    
   236  119  240 1    
   237  120  121 1    
   238  120  124 1    
   239  120  241 1    
   240  121  122 am   BACKBONE|DICT|INTERRES
   241  121  123 2    
   242  122  242 1    
   243  122  243 1    
   244  124  125 1    
   245  124  244 1    
   246  124  245 1    
   247  125  126 1    
   248  126  246 1    
   249  126  247 1    
@<TRIPOS>SUBSTRUCTURE
     1 UNK         1 GROUP             0       ****    0 ROOT    
