@<TRIPOS>MOLECULE
3R540
247   249    1
SMALL
USER_CHARGES


@<TRIPOS>ATOM
      1 CA         -2.9676   -8.4578  -45.0886 C.3       0 UNK        -0.1800 
      2 C          -3.5536   -9.8588  -44.9225 C.2       0 UNK         0.5000 
      3 O          -4.2329  -10.1088  -43.9293 O.2       0 UNK        -0.5000 
      4 N          -3.3392  -10.8034  -45.8511 N.am      1 UNK        -0.5000 
      5 CA         -2.4986  -10.7151  -47.0524 C.3       1 UNK         0.1400 
      6 C6         -2.7302  -11.9450  -47.9691 C.3       23 UNK        -0.0398 
      7 S7         -1.7145  -11.9815  -49.4924 S.3       23 UNK        -0.2404 
      8 C8         -0.6563  -13.4387  -49.1991 C.3       23 UNK        -0.0205 
      9 C9         -1.2649  -14.7102  -49.7755 C.ar      23 UNK        -0.0193 
     10 C10        -0.6812  -15.3279  -50.8855 C.ar      23 UNK        -0.1150 
     11 C11        -1.2247  -16.5015  -51.4169 C.ar      23 UNK        -0.0193 
     12 C12        -2.3812  -17.0426  -50.8477 C.ar      23 UNK        -0.1150 
     13 C13        -2.9756  -16.4340  -49.7383 C.ar      23 UNK        -0.0193 
     14 C14        -2.4047  -15.2788  -49.2004 C.ar      23 UNK        -0.1150 
     15 C15        -4.2416  -17.0039  -49.1187 C.3       23 UNK        -0.0205 
     16 S16        -3.8690  -18.1150  -47.7292 S.3       23 UNK        -0.2404 
     17 C17        -3.4652  -19.6465  -48.6324 C.3       23 UNK        -0.0398 
     18 CA         -3.2510  -20.9273  -47.7844 C.3       11 UNK         0.1400 
     19 N          -1.8682  -21.0935  -47.3327 N.am      11 UNK        -0.5000 
     20 C          -1.3135  -22.2922  -47.0949 C.2       10 UNK         0.5000 
     21 O          -1.8987  -23.3632  -47.2569 O.2       10 UNK        -0.5000 
     22 CA          0.1384  -22.3110  -46.5929 C.3       10 UNK         0.1400 
     23 CB          1.1103  -22.2921  -47.7822 C.3       10 UNK        -0.1800 
     24 N           0.4472  -21.2143  -45.6752 N.am      10 UNK        -0.5000 
     25 C          -0.1139  -21.0559  -44.4678 C.2       9 UNK         0.5000 
     26 O          -0.9487  -21.8282  -43.9991 O.2       9 UNK        -0.5000 
     27 CA          0.2835  -19.8021  -43.6682 C.3       9 UNK         0.1400 
     28 CB          1.6544  -19.9838  -43.0011 C.3       9 UNK        -0.1800 
     29 N           0.2905  -18.5944  -44.4916 N.am      9 UNK        -0.5000 
     30 C          -0.7920  -18.0801  -45.0911 C.2       8 UNK         0.5000 
     31 O          -1.9217  -18.5533  -44.9733 O.2       8 UNK        -0.5000 
     32 CA         -0.5659  -16.8655  -46.0093 C.3       8 UNK         0.1400 
     33 CB         -0.5367  -15.5544  -45.2094 C.3       8 UNK        -0.1800 
     34 N           0.6657  -16.9855  -46.7862 N.am      8 UNK        -0.5000 
     35 C           0.8505  -17.8657  -47.7794 C.2       7 UNK         0.5000 
     36 O          -0.0019  -18.6723  -48.1532 O.2       7 UNK        -0.5000 
     37 CA          2.2529  -17.8723  -48.4171 C.3       7 UNK         0.1400 
     38 CB          2.4522  -16.6459  -49.3212 C.3       7 UNK        -0.1800 
     39 N           3.3248  -17.9053  -47.4185 N.am      7 UNK        -0.5000 
     40 C           3.5419  -18.9217  -46.5729 C.2       6 UNK         0.5000 
     41 O           2.8657  -19.9474  -46.5495 O.2       6 UNK        -0.5000 
     42 CA          4.6875  -18.7610  -45.5569 C.3       6 UNK         0.1400 
     43 CB          6.0221  -19.1920  -46.1835 C.3       6 UNK        -0.1800 
     44 N           4.8332  -17.4179  -44.9878 N.am      6 UNK        -0.5000 
     45 C           3.8704  -16.7110  -44.3806 C.2       5 UNK         0.5000 
     46 O           2.6826  -17.0406  -44.3547 O.2       5 UNK        -0.5000 
     47 CA          4.3200  -15.3919  -43.7245 C.3       5 UNK         0.1400 
     48 CB          4.3917  -14.2851  -44.7830 C.3       5 UNK        -0.1800 
     49 N           3.4366  -14.9675  -42.6332 N.am      5 UNK        -0.5000 
     50 C           3.2627  -15.6540  -41.4924 C.2       4 UNK         0.5000 
     51 O           3.8659  -16.6981  -41.2366 O.2       4 UNK        -0.5000 
     52 CA          2.2914  -15.0897  -40.4350 C.3       4 UNK         0.1400 
     53 CB          3.0329  -14.7976  -39.1191 C.3       4 UNK        -0.1800 
     54 N           1.6054  -13.8670  -40.8509 N.am      4 UNK        -0.5000 
     55 C           0.4433  -13.8153  -41.5128 C.2       3 UNK         0.5000 
     56 O          -0.1726  -14.8105  -41.8943 O.2       3 UNK        -0.5000 
     57 CA         -0.1454  -12.4129  -41.7847 C.3       3 UNK         0.1400 
     58 CB          0.4428  -11.3022  -40.8848 C.3       3 UNK        -0.1800 
     59 N          -0.0514  -12.0167  -43.1931 N.am      3 UNK        -0.5000 
     60 C           1.0555  -11.9748  -43.9520 C.2       2 UNK         0.5000 
     61 O           2.1680  -12.3202  -43.5526 O.2       2 UNK        -0.5000 
     62 CA          0.8982  -11.4410  -45.3889 C.3       2 UNK         0.1400 
     63 CB          1.7512  -12.2137  -46.4122 C.3       2 UNK        -0.1800 
     64 N          -0.4995  -11.4284  -45.8258 N.am      2 UNK        -0.5000 
     65 C          -1.0123  -10.5319  -46.6779 C.2       1 UNK         0.5000 
     66 O          -0.3809   -9.5807  -47.1401 O.2       1 UNK        -0.5000 
     67 C          -4.2712  -21.1453  -46.6453 C.2       11 UNK         0.5000 
     68 O          -5.3742  -21.6241  -46.9114 O.2       11 UNK        -0.5000 
     69 N          -3.8814  -20.8235  -45.4027 N.am      12 UNK        -0.5000 
     70 CA         -4.6582  -21.0988  -44.1940 C.3       12 UNK         0.1400 
     71 CB         -4.1201  -20.2417  -43.0382 C.3       12 UNK        -0.1800 
     72 C          -4.6495  -22.5926  -43.8145 C.2       12 UNK         0.5000 
     73 O          -5.6569  -23.0967  -43.3153 O.2       12 UNK        -0.5000 
     74 N          -3.5176  -23.2691  -44.0521 N.am      13 UNK        -0.5000 
     75 CA         -3.3276  -24.7050  -43.8492 C.3       13 UNK         0.1400 
     76 CB         -1.8276  -25.0250  -43.9623 C.3       13 UNK        -0.1800 
     77 C          -4.1345  -25.5633  -44.8432 C.2       13 UNK         0.5000 
     78 O          -4.5905  -25.0697  -45.8768 O.2       13 UNK        -0.5000 
     79 N          -4.2494  -26.8617  -44.5301 N.am      14 UNK        -0.5000 
     80 CA         -4.9822  -27.8720  -45.3044 C.3       14 UNK         0.1400 
     81 CB         -4.9781  -29.1937  -44.5205 C.3       14 UNK        -0.1800 
     82 C          -4.4635  -28.0971  -46.7412 C.2       14 UNK         0.5000 
     83 O          -5.2071  -28.6156  -47.5749 O.2       14 UNK        -0.5000 
     84 N          -3.2153  -27.6898  -47.0137 N.am      15 UNK        -0.5000 
     85 CA         -2.6142  -27.6560  -48.3490 C.3       15 UNK         0.1400 
     86 CB         -1.1153  -27.3477  -48.2091 C.3       15 UNK        -0.1800 
     87 C          -3.2800  -26.6292  -49.2885 C.2       15 UNK         0.5000 
     88 O          -3.2280  -26.8020  -50.5075 O.2       15 UNK        -0.5000 
     89 N          -3.8719  -25.5738  -48.7065 N.am      16 UNK        -0.5000 
     90 CA         -4.6264  -24.4904  -49.3444 C.3       16 UNK         0.1400 
     91 CB         -5.9312  -25.0384  -49.9577 C.3       16 UNK        -0.1800 
     92 C          -3.8273  -23.6494  -50.3617 C.2       16 UNK         0.5000 
     93 O          -4.4355  -22.8931  -51.1181 O.2       16 UNK        -0.5000 
     94 N          -2.4923  -23.7867  -50.3743 N.am      17 UNK        -0.5000 
     95 CA         -1.5379  -23.1668  -51.3021 C.3       17 UNK         0.1400 
     96 CB         -1.3441  -21.6787  -50.9576 C.3       17 UNK        -0.1800 
     97 C          -1.9004  -23.3899  -52.7871 C.2       17 UNK         0.5000 
     98 O          -1.7817  -22.4669  -53.5955 O.2       17 UNK        -0.5000 
     99 N          -2.3804  -24.6031  -53.1039 N.am      18 UNK        -0.5000 
    100 CA        -2.9002  -25.0233  -54.4109 C.3       18 UNK         0.1400 
    101 CB        -1.7638  -25.0950  -55.4529 C.3       18 UNK        -0.1800 
    102 C         -4.0981  -24.1612  -54.8693 C.2       18 UNK         0.5000 
    103 O         -4.1249  -23.6874  -56.0055 O.2       18 UNK        -0.5000 
    104 N         -5.0531  -23.9637  -53.9478 N.am      19 UNK        -0.5000 
    105 CA        -6.2427  -23.1115  -54.0593 C.3       19 UNK         0.1400 
    106 CB        -7.1850  -23.5980  -55.1810 C.3       19 UNK        -0.1800 
    107 C         -5.8733  -21.6174  -54.1656 C.2       19 UNK         0.5000 
    108 O         -6.3492  -20.9157  -55.0600 O.2       19 UNK        -0.5000 
    109 N         -5.0197  -21.1738  -53.2314 N.am      20 UNK        -0.5000 
    110 CA        -4.4983  -19.8144  -53.0570 C.3       20 UNK         0.1400 
    111 CB        -5.6205  -18.8542  -52.6125 C.3       20 UNK        -0.1800 
    112 C         -3.6955  -19.2890  -54.2661 C.2       20 UNK         0.5000 
    113 O         -3.6842  -18.0834  -54.5204 O.2       20 UNK        -0.5000 
    114 N         -3.0305  -20.1995  -54.9861 N.am      21 UNK        -0.5000 
    115 CA        -2.1779  -19.8869  -56.1297 C.3       21 UNK         0.1400 
    116 CB        -2.2206  -21.0589  -57.1212 C.3       21 UNK        -0.1800 
    117 C         -0.7300  -19.6022  -55.6986 C.2       21 UNK         0.5000 
    118 O         -0.0776  -18.7543  -56.3082 O.2       21 UNK        -0.5000 
    119 N         -0.2559  -20.3204  -54.6698 N.am      22 UNK        -0.5000 
    120 CA         1.1213  -20.2873  -54.1426 C.3       22 UNK         0.1400 
    121 C          2.2058  -20.8153  -55.1349 C.2       22 UNK         0.5000 
    122 N          1.8479  -21.5842  -56.1566 N.am      22 UNK        -0.7600 
    123 O          3.3947  -20.5581  -54.9646 O.2       22 UNK        -0.5000 
    124 C124        1.5005  -18.9206  -53.5032 C.3       23 UNK        -0.0398 
    125 S125        0.5161  -18.5426  -52.0150 S.3       23 UNK        -0.2404 
    126 C126       -0.5506  -17.1896  -52.5937 C.3       23 UNK        -0.0205 
    127 H127       -3.5252   -7.7420  -44.4843 H         1 UNK         0.0600 
    128 H128       -3.0136   -8.1150  -46.1214 H         1 UNK         0.0600 
    129 H129       -1.9297   -8.4370  -44.7566 H         1 UNK         0.0600 
    130 H130       -3.7798  -11.7003  -45.7057 H         1 UNK         0.3000 
    131 H131       -2.8077   -9.8333  -47.6164 H         1 UNK         0.0600 
    132 H132       -2.5669  -12.8579  -47.3976 H         1 UNK         0.0800 
    133 H133       -3.7763  -11.9750  -48.2769 H         1 UNK         0.0800 
    134 H134       -0.4643  -13.5695  -48.1340 H         1 UNK         0.0800 
    135 H135        0.3170  -13.2485  -49.6539 H         1 UNK         0.0800 
    136 H136        0.2085  -14.9037  -51.3294 H         1 UNK         0.1150 
    137 H137       -2.8070  -17.9444  -51.2604 H         1 UNK         0.1150 
    138 H138       -2.8628  -14.8229  -48.3369 H         1 UNK         0.1150 
    139 H139       -4.8672  -16.1881  -48.7535 H         1 UNK         0.0800 
    140 H140       -4.8378  -17.5250  -49.8687 H         1 UNK         0.0800 
    141 H141       -4.2791  -19.8304  -49.3358 H         1 UNK         0.0800 
    142 H142       -2.5837  -19.4589  -49.2467 H         1 UNK         0.0800 
    143 H143       -3.4338  -21.7441  -48.4783 H         1 UNK         0.0600 
    144 H144       -1.3138  -20.2521  -47.2225 H         1 UNK         0.3000 
    145 H145        0.2859  -23.2477  -46.0518 H         1 UNK         0.0600 
    146 H146        1.0632  -21.3466  -48.3244 H         1 UNK         0.0600 
    147 H147        0.8812  -23.0898  -48.4902 H         1 UNK         0.0600 
    148 H148        2.1387  -22.4380  -47.4519 H         1 UNK         0.0600 
    149 H149        1.1613  -20.5588  -45.9826 H         1 UNK         0.3000 
    150 H150       -0.4593  -19.6601  -42.8805 H         1 UNK         0.0600 
    151 H151        1.6510  -20.8454  -42.3325 H         1 UNK         0.0600 
    152 H152        1.9247  -19.1099  -42.4073 H         1 UNK         0.0600 
    153 H153        2.4408  -20.1436  -43.7377 H         1 UNK         0.0600 
    154 H154        1.1805  -18.1118  -44.5940 H         1 UNK         0.3000 
    155 H155       -1.4029  -16.8156  -46.7077 H         1 UNK         0.0600 
    156 H156       -1.4309  -15.4520  -44.5933 H         1 UNK         0.0600 
    157 H157       -0.4979  -14.6908  -45.8721 H         1 UNK         0.0600 
    158 H158        0.3265  -15.5073  -44.5441 H         1 UNK         0.0600 
    159 H159        1.4496  -16.4280  -46.4817 H         1 UNK         0.3000 
    160 H160        2.3337  -18.7697  -49.0343 H         1 UNK         0.0600 
    161 H161        2.4061  -15.7124  -48.7591 H         1 UNK         0.0600 
    162 H162        1.6821  -16.6027  -50.0895 H         1 UNK         0.0600 
    163 H163        3.4141  -16.6847  -49.8325 H         1 UNK         0.0600 
    164 H164        3.9254  -17.0965  -47.3617 H         1 UNK         0.3000 
    165 H165        4.4775  -19.4355  -44.7252 H         1 UNK         0.0600 
    166 H166        6.8215  -19.2041  -45.4423 H         1 UNK         0.0600 
    167 H167        5.9523  -20.1985  -46.5988 H         1 UNK         0.0600 
    168 H168        6.3222  -18.5236  -46.9915 H         1 UNK         0.0600 
    169 H169        5.7724  -17.0469  -44.9822 H         1 UNK         0.3000 
    170 H170        5.3173  -15.5359  -43.3037 H         1 UNK         0.0600 
    171 H171        3.4308  -14.1650  -45.2799 H         1 UNK         0.0600 
    172 H172        4.6708  -13.3273  -44.3433 H         1 UNK         0.0600 
    173 H173        5.1303  -14.5185  -45.5507 H         1 UNK         0.0600 
    174 H174        2.9017  -14.1195  -42.7862 H         1 UNK         0.3000 
    175 H175        1.5498  -15.8666  -40.2370 H         1 UNK         0.0600 
    176 H176        3.8054  -14.0393  -39.2528 H         1 UNK         0.0600 
    177 H177        2.3461  -14.4457  -38.3490 H         1 UNK         0.0600 
    178 H178        3.5173  -15.6949  -38.7314 H         1 UNK         0.0600 
    179 H179        2.0588  -12.9960  -40.6154 H         1 UNK         0.3000 
    180 H180       -1.2096  -12.4858  -41.5552 H         1 UNK         0.0600 
    181 H181        1.4947  -11.1088  -41.0979 H         1 UNK         0.0600 
    182 H182        0.3570  -11.5626  -39.8289 H         1 UNK         0.0600 
    183 H183       -0.0959  -10.3651  -41.0260 H         1 UNK         0.0600 
    184 H184       -0.9145  -11.6931  -43.6026 H         1 UNK         0.3000 
    185 H185        1.2665  -10.4136  -45.3524 H         1 UNK         0.0600 
    186 H186        1.4986  -13.2739  -46.4276 H         1 UNK         0.0600 
    187 H187        1.6136  -11.8230  -47.4205 H         1 UNK         0.0600 
    188 H188        2.8125  -12.1213  -46.1813 H         1 UNK         0.0600 
    189 H189       -1.0844  -12.1779  -45.4861 H         1 UNK         0.3000 
    190 H190       -2.9885  -20.3600  -45.2751 H         1 UNK         0.3000 
    191 H191       -5.6944  -20.8070  -44.3771 H         1 UNK         0.0600 
    192 H192       -4.1862  -19.1791  -43.2728 H         1 UNK         0.0600 
    193 H193       -3.0766  -20.4702  -42.8188 H         1 UNK         0.0600 
    194 H194       -4.6934  -20.4107  -42.1259 H         1 UNK         0.0600 
    195 H195       -2.7193  -22.7588  -44.4126 H         1 UNK         0.3000 
    196 H196       -3.6623  -24.9498  -42.8392 H         1 UNK         0.0600 
    197 H197       -1.2474  -24.4535  -43.2376 H         1 UNK         0.0600 
    198 H198       -1.4419  -24.7942  -44.9555 H         1 UNK         0.0600 
    199 H199       -1.6283  -26.0797  -43.7699 H         1 UNK         0.0600 
    200 H200       -3.8280  -27.1888  -43.6725 H         1 UNK         0.3000 
    201 H201       -6.0155  -27.5299  -45.3904 H         1 UNK         0.0600 
    202 H202       -5.4365  -29.0729  -43.5388 H         1 UNK         0.0600 
    203 H203       -3.9651  -29.5713  -44.3756 H         1 UNK         0.0600 
    204 H204       -5.5431  -29.9640  -45.0472 H         1 UNK         0.0600 
    205 H205       -2.6748  -27.2871  -46.2630 H         1 UNK         0.3000 
    206 H206       -2.7263  -28.6434  -48.8014 H         1 UNK         0.0600 
    207 H207       -0.6123  -28.1004  -47.6017 H         1 UNK         0.0600 
    208 H208       -0.9460  -26.3739  -47.7467 H         1 UNK         0.0600 
    209 H209       -0.6253  -27.3382  -49.1837 H         1 UNK         0.0600 
    210 H210       -3.8476  -25.5124  -47.6926 H         1 UNK         0.3000 
    211 H211       -4.9010  -23.8084  -48.5394 H         1 UNK         0.0600 
    212 H212       -5.7364  -25.6880  -50.8114 H         1 UNK         0.0600 
    213 H213       -6.5758  -24.2288  -50.3021 H         1 UNK         0.0600 
    214 H214       -6.4988  -25.6109  -49.2238 H         1 UNK         0.0600 
    215 H215       -2.0959  -24.4069  -49.6821 H         1 UNK         0.3000 
    216 H216       -0.5817  -23.6682  -51.1475 H         1 UNK         0.0600 
    217 H217       -0.6105  -21.2163  -51.6160 H         1 UNK         0.0600 
    218 H218       -0.9764  -21.5514  -49.9418 H         1 UNK         0.0600 
    219 H219       -2.2717  -21.1182  -51.0527 H         1 UNK         0.0600 
    220 H220       -2.4654  -25.2838  -52.3593 H         1 UNK         0.3000 
    221 H221       -3.2870  -26.0348  -54.2790 H         1 UNK         0.0600 
    222 H222       -1.3319  -24.1153  -55.6555 H         1 UNK         0.0600 
    223 H223       -0.9610  -25.7492  -55.1133 H         1 UNK         0.0600 
    224 H224       -2.1274  -25.4939  -56.4005 H         1 UNK         0.0600 
    225 H225       -4.8934  -24.3491  -53.0278 H         1 UNK         0.3000 
    226 H226       -6.7809  -23.2217  -53.1166 H         1 UNK         0.0600 
    227 H227       -7.4293  -24.6533  -55.0605 H         1 UNK         0.0600 
    228 H228       -8.1240  -23.0437  -55.1650 H         1 UNK         0.0600 
    229 H229       -6.7479  -23.4651  -56.1708 H         1 UNK         0.0600 
    230 H230       -4.7153  -21.8435  -52.5250 H         1 UNK         0.3000 
    231 H231       -3.7848  -19.8757  -52.2367 H         1 UNK         0.0600 
    232 H232       -5.2215  -17.8703  -52.3631 H         1 UNK         0.0600 
    233 H233       -6.1309  -19.2295  -51.7255 H         1 UNK         0.0600 
    234 H234       -6.3658  -18.7145  -53.3959 H         1 UNK         0.0600 
    235 H235       -3.0417  -21.1649  -54.6778 H         1 UNK         0.3000 
    236 H236       -2.5591  -19.0005  -56.6412 H         1 UNK         0.0600 
    237 H237       -1.8566  -21.9819  -56.6695 H         1 UNK         0.0600 
    238 H238       -3.2372  -21.2399  -57.4711 H         1 UNK         0.0600 
    239 H239       -1.6049  -20.8540  -57.9978 H         1 UNK         0.0600 
    240 H240       -0.8648  -21.0199  -54.2506 H         1 UNK         0.3000 
    241 H241        1.1337  -21.0253  -53.3402 H         1 UNK         0.0600 
    242 H242        2.5535  -21.9310  -56.7872 H         1 UNK         0.3800 
    243 H243        0.8809  -21.8230  -56.3037 H         1 UNK         0.3800 
    244 H244        1.4230  -18.1117  -54.2297 H         1 UNK         0.0800 
    245 H245        2.5418  -18.9249  -53.1779 H         1 UNK         0.0800 
    246 H246       -1.2986  -17.5840  -53.2814 H         1 UNK         0.0800 
    247 H247        0.0418  -16.4685  -53.1586 H         1 UNK         0.0800 
@<TRIPOS>BOND
     1    1    2 1    
     2    1  127 1    
     3    1  128 1    
     4    1  129 1    
     5    2    3 2    
     6    2    4 am   BACKBONE|DICT|INTERRES
     7    4    5 1    
     8    4  130 1    
     9    5    6 1    
    10    5   65 1    
    11    5  131 1    
    12    6    7 1    
    13    6  132 1    
    14    6  133 1    
    15    7    8 1    
    16    8    9 1    
    17    8  134 1    
    18    8  135 1    
    19    9   10 ar   
    20    9   14 ar   
    21   10   11 ar   
    22   10  136 1    
    23   11   12 ar   
    24   11  126 1    
    25   12   13 ar   
    26   12  137 1    
    27   13   14 ar   
    28   13   15 1    
    29   14  138 1    
    30   15   16 1    
    31   15  139 1    
    32   15  140 1    
    33   16   17 1    
    34   17   18 1    
    35   17  141 1    
    36   17  142 1    
    37   18   19 1    
    38   18   67 1    
    39   18  143 1    
    40   19   20 am   BACKBONE|DICT|INTERRES
    41   19  144 1    
    42   20   21 2    
    43   20   22 1    
    44   22   23 1    
    45   22   24 1    
    46   22  145 1    
    47   23  146 1    
    48   23  147 1    
    49   23  148 1    
    50   24   25 am   BACKBONE|DICT|INTERRES
    51   24  149 1    
    52   25   26 2    
    53   25   27 1    
    54   27   28 1    
    55   27   29 1    
    56   27  150 1    
    57   28  151 1    
    58   28  152 1    
    59   28  153 1    
    60   29   30 am   BACKBONE|DICT|INTERRES
    61   29  154 1    
    62   30   31 2    
    63   30   32 1    
    64   32   33 1    
    65   32   34 1    
    66   32  155 1    
    67   33  156 1    
    68   33  157 1    
    69   33  158 1    
    70   34   35 am   BACKBONE|DICT|INTERRES
    71   34  159 1    
    72   35   36 2    
    73   35   37 1    
    74   37   38 1    
    75   37   39 1    
    76   37  160 1    
    77   38  161 1    
    78   38  162 1    
    79   38  163 1    
    80   39   40 am   BACKBONE|DICT|INTERRES
    81   39  164 1    
    82   40   41 2    
    83   40   42 1    
    84   42   43 1    
    85   42   44 1    
    86   42  165 1    
    87   43  166 1    
    88   43  167 1    
    89   43  168 1    
    90   44   45 am   BACKBONE|DICT|INTERRES
    91   44  169 1    
    92   45   46 2    
    93   45   47 1    
    94   47   48 1    
    95   47   49 1    
    96   47  170 1    
    97   48  171 1    
    98   48  172 1    
    99   48  173 1    
   100   49   50 am   BACKBONE|DICT|INTERRES
   101   49  174 1    
   102   50   51 2    
   103   50   52 1    
   104   52   53 1    
   105   52   54 1    
   106   52  175 1    
   107   53  176 1    
   108   53  177 1    
   109   53  178 1    
   110   54   55 am   BACKBONE|DICT|INTERRES
   111   54  179 1    
   112   55   56 2    
   113   55   57 1    
   114   57   58 1    
   115   57   59 1    
   116   57  180 1    
   117   58  181 1    
   118   58  182 1    
   119   58  183 1    
   120   59   60 am   BACKBONE|DICT|INTERRES
   121   59  184 1    
   122   60   61 2    
   123   60   62 1    
   124   62   63 1    
   125   62   64 1    
   126   62  185 1    
   127   63  186 1    
   128   63  187 1    
   129   63  188 1    
   130   64   65 am   BACKBONE|DICT|INTERRES
   131   64  189 1    
   132   65   66 2    
   133   67   68 2    
   134   67   69 am   BACKBONE|DICT|INTERRES
   135   69   70 1    
   136   69  190 1    
   137   70   71 1    
   138   70   72 1    
   139   70  191 1    
   140   71  192 1    
   141   71  193 1    
   142   71  194 1    
   143   72   73 2    
   144   72   74 am   BACKBONE|DICT|INTERRES
   145   74   75 1    
   146   74  195 1    
   147   75   76 1    
   148   75   77 1    
   149   75  196 1    
   150   76  197 1    
   151   76  198 1    
   152   76  199 1    
   153   77   78 2    
   154   77   79 am   BACKBONE|DICT|INTERRES
   155   79   80 1    
   156   79  200 1    
   157   80   81 1    
   158   80   82 1    
   159   80  201 1    
   160   81  202 1    
   161   81  203 1    
   162   81  204 1    
   163   82   83 2    
   164   82   84 am   BACKBONE|DICT|INTERRES
   165   84   85 1    
   166   84  205 1    
   167   85   86 1    
   168   85   87 1    
   169   85  206 1    
   170   86  207 1    
   171   86  208 1    
   172   86  209 1    
   173   87   88 2    
   174   87   89 am   BACKBONE|DICT|INTERRES
   175   89   90 1    
   176   89  210 1    
   177   90   91 1    
   178   90   92 1    
   179   90  211 1    
   180   91  212 1    
   181   91  213 1    
   182   91  214 1    
   183   92   93 2    
   184   92   94 am   BACKBONE|DICT|INTERRES
   185   94   95 1    
   186   94  215 1    
   187   95   96 1    
   188   95   97 1    
   189   95  216 1    
   190   96  217 1    
   191   96  218 1    
   192   96  219 1    
   193   97   98 2    
   194   97   99 am   BACKBONE|DICT|INTERRES
   195   99  100 1    
   196   99  220 1    
   197  100  101 1    
   198  100  102 1    
   199  100  221 1    
   200  101  222 1    
   201  101  223 1    
   202  101  224 1    
   203  102  103 2    
   204  102  104 am   BACKBONE|DICT|INTERRES
   205  104  105 1    
   206  104  225 1    
   207  105  106 1    
   208  105  107 1    
   209  105  226 1    
   210  106  227 1    
   211  106  228 1    
   212  106  229 1    
   213  107  108 2    
   214  107  109 am   BACKBONE|DICT|INTERRES
   215  109  110 1    
   216  109  230 1    
   217  110  111 1    
   218  110  112 1    
   219  110  231 1    
   220  111  232 1    
   221  111  233 1    
   222  111  234 1    
   223  112  113 2    
   224  112  114 am   BACKBONE|DICT|INTERRES
   225  114  115 1    
   226  114  235 1    
   227  115  116 1    
   228  115  117 1    
   229  115  236 1    
   230  116  237 1    
   231  116  238 1    
   232  116  239 1    
   233  117  118 2    
   234  117  119 am   BACKBONE|DICT|INTERRES
   235  119  120 1    
   236  119  240 1    
   237  120  121 1    
   238  120  124 1    
   239  120  241 1    
   240  121  122 am   BACKBONE|DICT|INTERRES
   241  121  123 2    
   242  122  242 1    
   243  122  243 1    
   244  124  125 1    
   245  124  244 1    
   246  124  245 1    
   247  125  126 1    
   248  126  246 1    
   249  126  247 1    
@<TRIPOS>SUBSTRUCTURE
     1 UNK         1 GROUP             0       ****    0 ROOT    
