@<TRIPOS>MOLECULE
3R540
247   249    1
SMALL
USER_CHARGES


@<TRIPOS>ATOM
      1 CA         -1.6252  -17.8051  -43.6314 C.3       0 UNK        -0.1800 
      2 C          -2.2412  -17.4246  -44.9707 C.2       0 UNK         0.5000 
      3 O          -3.4449  -17.6011  -45.1592 O.2       0 UNK        -0.5000 
      4 N          -1.4248  -16.9176  -45.9045 N.am      1 UNK        -0.5000 
      5 CA         -1.8653  -16.3908  -47.2026 C.3       1 UNK         0.1400 
      6 C6         -0.6783  -16.1238  -48.1661 C.3       23 UNK        -0.0398 
      7 S7          0.3987  -17.5661  -48.4547 S.3       23 UNK        -0.2404 
      8 C8         -0.2290  -18.2058  -50.0342 C.3       23 UNK        -0.0205 
      9 C9          0.8054  -19.0867  -50.7148 C.ar      23 UNK        -0.0193 
     10 C10         1.7254  -18.5217  -51.6026 C.ar      23 UNK        -0.1150 
     11 C11         2.6520  -19.3255  -52.2720 C.ar      23 UNK        -0.0193 
     12 C12         2.6696  -20.7016  -52.0310 C.ar      23 UNK        -0.1150 
     13 C13         1.7530  -21.2787  -51.1493 C.ar      23 UNK        -0.0193 
     14 C14         0.8276  -20.4654  -50.4863 C.ar      23 UNK        -0.1150 
     15 C15         1.7342  -22.7875  -50.9638 C.3       23 UNK        -0.0205 
     16 S16         3.1009  -23.3875  -49.9213 S.3       23 UNK        -0.2404 
     17 C17         2.6984  -22.6831  -48.2873 C.3       23 UNK        -0.0398 
     18 CA          1.7944  -23.6128  -47.4369 C.3       11 UNK         0.1400 
     19 N           2.0968  -23.4956  -46.0099 N.am      11 UNK        -0.5000 
     20 C           2.3339  -24.5241  -45.1834 C.2       10 UNK         0.5000 
     21 O           2.4071  -25.6972  -45.5504 O.2       10 UNK        -0.5000 
     22 CA          2.4989  -24.1961  -43.6829 C.3       10 UNK         0.1400 
     23 CB          3.9855  -24.0449  -43.3268 C.3       10 UNK        -0.1800 
     24 N           1.7874  -22.9871  -43.2621 N.am      10 UNK        -0.5000 
     25 C           0.4629  -22.8032  -43.3569 C.2       9 UNK         0.5000 
     26 O          -0.3175  -23.6766  -43.7297 O.2       9 UNK        -0.5000 
     27 CA         -0.0808  -21.3950  -43.0509 C.3       9 UNK         0.1400 
     28 CB         -0.6877  -21.3552  -41.6419 C.3       9 UNK        -0.1800 
     29 N           0.9019  -20.3126  -43.2019 N.am      9 UNK        -0.5000 
     30 C           1.5931  -20.0319  -44.3209 C.2       8 UNK         0.5000 
     31 O           1.4530  -20.6639  -45.3704 O.2       8 UNK        -0.5000 
     32 CA          2.6403  -18.8980  -44.2685 C.3       8 UNK         0.1400 
     33 CB          2.2709  -17.7522  -45.2196 C.3       8 UNK        -0.1800 
     34 N           2.8606  -18.3515  -42.9293 N.am      8 UNK        -0.5000 
     35 C           3.5475  -18.9688  -41.9565 C.2       7 UNK         0.5000 
     36 O           4.0939  -20.0629  -42.1019 O.2       7 UNK        -0.5000 
     37 CA          3.6062  -18.2691  -40.5817 C.3       7 UNK         0.1400 
     38 CB          4.9269  -17.4996  -40.4292 C.3       7 UNK        -0.1800 
     39 N           2.4923  -17.3495  -40.3312 N.am      7 UNK        -0.5000 
     40 C           1.1951  -17.6879  -40.3063 C.2       6 UNK         0.5000 
     41 O           0.7957  -18.8408  -40.4580 O.2       6 UNK        -0.5000 
     42 CA          0.1685  -16.5522  -40.1255 C.3       6 UNK         0.1400 
     43 CB         -0.3490  -16.5244  -38.6797 C.3       6 UNK        -0.1800 
     44 N           0.6699  -15.2197  -40.4790 N.am      6 UNK        -0.5000 
     45 C           1.0678  -14.8396  -41.7004 C.2       5 UNK         0.5000 
     46 O           1.1136  -15.5961  -42.6747 O.2       5 UNK        -0.5000 
     47 CA          1.5609  -13.3858  -41.8239 C.3       5 UNK         0.1400 
     48 CB          3.0572  -13.3055  -41.4822 C.3       5 UNK        -0.1800 
     49 N           1.3570  -12.8525  -43.1693 N.am      5 UNK        -0.5000 
     50 C           0.1653  -12.5537  -43.7006 C.2       4 UNK         0.5000 
     51 O          -0.8953  -12.5974  -43.0705 O.2       4 UNK        -0.5000 
     52 CA          0.1819  -12.1462  -45.1847 C.3       4 UNK         0.1400 
     53 CB          0.7027  -13.3033  -46.0512 C.3       4 UNK        -0.1800 
     54 N          -1.1629  -11.7902  -45.6391 N.am      4 UNK        -0.5000 
     55 C          -1.5844  -10.5446  -45.8943 C.2       3 UNK         0.5000 
     56 O          -0.8502   -9.5570  -45.8204 O.2       3 UNK        -0.5000 
     57 CA         -3.0739  -10.3507  -46.2670 C.3       3 UNK         0.1400 
     58 CB         -3.2933   -9.1797  -47.2489 C.3       3 UNK        -0.1800 
     59 N          -3.7525  -11.5643  -46.7396 N.am      3 UNK        -0.5000 
     60 C          -3.5021  -12.2607  -47.8574 C.2       2 UNK         0.5000 
     61 O          -2.6452  -11.9623  -48.6917 O.2       2 UNK        -0.5000 
     62 CA         -4.3383  -13.5435  -48.0491 C.3       2 UNK         0.1400 
     63 CB         -5.1111  -13.5045  -49.3770 C.3       2 UNK        -0.1800 
     64 N          -3.5188  -14.7571  -48.0080 N.am      2 UNK        -0.5000 
     65 C          -2.6895  -15.0962  -47.0112 C.2       1 UNK         0.5000 
     66 O          -2.5421  -14.4177  -45.9901 O.2       1 UNK        -0.5000 
     67 C           0.3019  -23.3165  -47.6794 C.2       11 UNK         0.5000 
     68 O          -0.3616  -24.0507  -48.4143 O.2       11 UNK        -0.5000 
     69 N          -0.2183  -22.2545  -47.0473 N.am      12 UNK        -0.5000 
     70 CA         -1.5751  -21.7456  -47.2595 C.3       12 UNK         0.1400 
     71 CB         -1.6759  -20.3218  -46.7057 C.3       12 UNK        -0.1800 
     72 C          -2.7041  -22.6353  -46.7044 C.2       12 UNK         0.5000 
     73 O          -3.8688  -22.3366  -46.9602 O.2       12 UNK        -0.5000 
     74 N          -2.3712  -23.7093  -45.9768 N.am      13 UNK        -0.5000 
     75 CA         -3.3081  -24.7839  -45.6457 C.3       13 UNK         0.1400 
     76 CB         -2.7449  -25.6263  -44.4919 C.3       13 UNK        -0.1800 
     77 C          -3.6170  -25.6784  -46.8630 C.2       13 UNK         0.5000 
     78 O          -4.7340  -26.1858  -46.9673 O.2       13 UNK        -0.5000 
     79 N          -2.6336  -25.8526  -47.7593 N.am      14 UNK        -0.5000 
     80 CA         -2.7760  -26.6013  -49.0071 C.3       14 UNK         0.1400 
     81 CB         -1.4176  -27.1898  -49.4225 C.3       14 UNK        -0.1800 
     82 C          -3.3550  -25.6956  -50.1034 C.2       14 UNK         0.5000 
     83 O          -4.3850  -26.0269  -50.6921 O.2       14 UNK        -0.5000 
     84 N          -2.7199  -24.5352  -50.3152 N.am      15 UNK        -0.5000 
     85 CA         -3.2175  -23.4636  -51.1782 C.3       15 UNK         0.1400 
     86 CB         -2.0221  -22.6856  -51.7554 C.3       15 UNK        -0.1800 
     87 C          -4.1624  -22.5723  -50.3541 C.2       15 UNK         0.5000 
     88 O          -3.7829  -21.4570  -50.0007 O.2       15 UNK        -0.5000 
     89 N          -5.3327  -23.1343  -50.0128 N.am      16 UNK        -0.5000 
     90 CA         -6.3507  -22.6906  -49.0489 C.3       16 UNK         0.1400 
     91 CB         -7.6684  -23.4138  -49.3778 C.3       16 UNK        -0.1800 
     92 C          -6.5582  -21.1650  -48.9344 C.2       16 UNK         0.5000 
     93 O          -7.3907  -20.6039  -49.6456 O.2       16 UNK        -0.5000 
     94 N          -5.7764  -20.5263  -48.0533 N.am      17 UNK        -0.5000 
     95 CA         -5.7268  -19.0816  -47.7934 C.3       17 UNK         0.1400 
     96 CB         -7.0210  -18.6101  -47.0991 C.3       17 UNK        -0.1800 
     97 C          -5.3743  -18.2461  -49.0465 C.2       17 UNK         0.5000 
     98 O          -5.9357  -17.1696  -49.2513 O.2       17 UNK        -0.5000 
     99 N          -4.4411  -18.7683  -49.8540 N.am      18 UNK        -0.5000 
    100 CA        -3.9802  -18.2688  -51.1530 C.3       18 UNK         0.1400 
    101 CB        -3.4903  -16.8075  -51.0826 C.3       18 UNK        -0.1800 
    102 C         -4.9858  -18.5186  -52.2949 C.2       18 UNK         0.5000 
    103 O         -5.0378  -17.7392  -53.2497 O.2       18 UNK        -0.5000 
    104 N         -5.7493  -19.6184  -52.2072 N.am      19 UNK        -0.5000 
    105 CA        -6.5752  -20.1387  -53.2991 C.3       19 UNK         0.1400 
    106 CB        -7.4180  -21.3266  -52.8114 C.3       19 UNK        -0.1800 
    107 C         -5.6921  -20.5564  -54.4876 C.2       19 UNK         0.5000 
    108 O         -4.8010  -21.3902  -54.3128 O.2       19 UNK        -0.5000 
    109 N         -5.9422  -19.9388  -55.6512 N.am      20 UNK        -0.5000 
    110 CA        -5.1388  -20.0198  -56.8778 C.3       20 UNK         0.1400 
    111 CB        -5.1774  -21.4416  -57.4776 C.3       20 UNK        -0.1800 
    112 C         -3.7030  -19.4814  -56.6834 C.2       20 UNK         0.5000 
    113 O         -2.7610  -20.0037  -57.2841 O.2       20 UNK        -0.5000 
    114 N         -3.5662  -18.4490  -55.8349 N.am      21 UNK        -0.5000 
    115 CA        -2.3197  -17.8147  -55.4022 C.3       21 UNK         0.1400 
    116 CB        -1.6656  -17.0345  -56.5654 C.3       21 UNK        -0.1800 
    117 C         -1.3952  -18.8419  -54.7208 C.2       21 UNK         0.5000 
    118 O         -1.7216  -19.3026  -53.6269 O.2       21 UNK        -0.5000 
    119 N         -0.2861  -19.1926  -55.3800 N.am      22 UNK        -0.5000 
    120 CA         0.6495  -20.2369  -54.9394 C.3       22 UNK         0.1400 
    121 C          0.2215  -21.6821  -55.3311 C.2       22 UNK         0.5000 
    122 N         -0.8426  -21.8872  -56.0990 N.am      22 UNK        -0.7600 
    123 O          0.8681  -22.6434  -54.9247 O.2       22 UNK        -0.5000 
    124 C124        2.1055  -19.9395  -55.3923 C.3       23 UNK        -0.0398 
    125 S125        2.7145  -18.3033  -54.8454 S.3       23 UNK        -0.2404 
    126 C126        3.5915  -18.7172  -53.3010 C.3       23 UNK        -0.0205 
    127 H127       -2.0727  -17.2107  -42.8353 H         1 UNK         0.0600 
    128 H128       -0.5492  -17.6393  -43.6110 H         1 UNK         0.0600 
    129 H129       -1.8125  -18.8566  -43.4177 H         1 UNK         0.0600 
    130 H130       -0.4479  -16.7859  -45.6924 H         1 UNK         0.3000 
    131 H131       -2.5155  -17.1396  -47.6603 H         1 UNK         0.0600 
    132 H132       -0.0373  -15.3379  -47.7728 H         1 UNK         0.0800 
    133 H133       -1.0301  -15.7441  -49.1255 H         1 UNK         0.0800 
    134 H134       -0.4889  -17.3813  -50.6991 H         1 UNK         0.0800 
    135 H135       -1.1478  -18.7664  -49.8560 H         1 UNK         0.0800 
    136 H136        1.7021  -17.4585  -51.7966 H         1 UNK         0.1150 
    137 H137        3.3730  -21.3327  -52.5559 H         1 UNK         0.1150 
    138 H138        0.1139  -20.9031  -49.8041 H         1 UNK         0.1150 
    139 H139        0.7813  -23.1169  -50.5537 H         1 UNK         0.0800 
    140 H140        1.8104  -23.2632  -51.9430 H         1 UNK         0.0800 
    141 H141        2.2920  -21.6751  -48.3840 H         1 UNK         0.0800 
    142 H142        3.6576  -22.5499  -47.7848 H         1 UNK         0.0800 
    143 H143        1.9665  -24.6433  -47.7548 H         1 UNK         0.0600 
    144 H144        2.0342  -22.5629  -45.6164 H         1 UNK         0.3000 
    145 H145        2.0915  -25.0360  -43.1166 H         1 UNK         0.0600 
    146 H146        4.1217  -23.8973  -42.2553 H         1 UNK         0.0600 
    147 H147        4.5476  -24.9374  -43.6052 H         1 UNK         0.0600 
    148 H148        4.4378  -23.1967  -43.8424 H         1 UNK         0.0600 
    149 H149        2.3550  -22.2148  -42.9430 H         1 UNK         0.3000 
    150 H150       -0.8853  -21.2109  -43.7612 H         1 UNK         0.0600 
    151 H151       -1.4296  -22.1442  -41.5111 H         1 UNK         0.0600 
    152 H152       -1.1915  -20.4068  -41.4555 H         1 UNK         0.0600 
    153 H153        0.0743  -21.4897  -40.8733 H         1 UNK         0.0600 
    154 H154        1.0720  -19.7545  -42.3729 H         1 UNK         0.3000 
    155 H155        3.5812  -19.3263  -44.6200 H         1 UNK         0.0600 
    156 H156        1.3347  -17.2735  -44.9380 H         1 UNK         0.0600 
    157 H157        2.1664  -18.1196  -46.2400 H         1 UNK         0.0600 
    158 H158        3.0452  -16.9851  -45.2324 H         1 UNK         0.0600 
    159 H159        2.4220  -17.4606  -42.7280 H         1 UNK         0.3000 
    160 H160        3.5709  -19.0488  -39.8182 H         1 UNK         0.0600 
    161 H161        5.0028  -16.6850  -41.1508 H         1 UNK         0.0600 
    162 H162        5.7833  -18.1572  -40.5847 H         1 UNK         0.0600 
    163 H163        5.0235  -17.0743  -39.4301 H         1 UNK         0.0600 
    164 H164        2.7300  -16.3781  -40.1988 H         1 UNK         0.3000 
    165 H165       -0.6731  -16.7739  -40.7844 H         1 UNK         0.0600 
    166 H166       -1.1455  -15.7898  -38.5590 H         1 UNK         0.0600 
    167 H167       -0.7582  -17.4939  -38.3918 H         1 UNK         0.0600 
    168 H168        0.4449  -16.2803  -37.9728 H         1 UNK         0.0600 
    169 H169        0.6859  -14.5411  -39.7311 H         1 UNK         0.3000 
    170 H170        1.0052  -12.7635  -41.1191 H         1 UNK         0.0600 
    171 H171        3.2485  -13.6562  -40.4673 H         1 UNK         0.0600 
    172 H172        3.6582  -13.9153  -42.1585 H         1 UNK         0.0600 
    173 H173        3.4212  -12.2797  -41.5423 H         1 UNK         0.0600 
    174 H174        2.1740  -12.8212  -43.7609 H         1 UNK         0.3000 
    175 H175        0.8620  -11.2994  -45.2959 H         1 UNK         0.0600 
    176 H176        0.1884  -14.2339  -45.8115 H         1 UNK         0.0600 
    177 H177        0.5661  -13.0959  -47.1127 H         1 UNK         0.0600 
    178 H178        1.7678  -13.4718  -45.8899 H         1 UNK         0.0600 
    179 H179       -1.8278  -12.5571  -45.6753 H         1 UNK         0.3000 
    180 H180       -3.5712  -10.0833  -45.3337 H         1 UNK         0.0600 
    181 H181       -2.7547   -9.3286  -48.1850 H         1 UNK         0.0600 
    182 H182       -2.9465   -8.2384  -46.8210 H         1 UNK         0.0600 
    183 H183       -4.3500   -9.0549  -47.4851 H         1 UNK         0.0600 
    184 H184       -4.4509  -11.9298  -46.1069 H         1 UNK         0.3000 
    185 H185       -5.0672  -13.6150  -47.2392 H         1 UNK         0.0600 
    186 H186       -5.7356  -12.6124  -49.4390 H         1 UNK         0.0600 
    187 H187       -4.4381  -13.4947  -50.2354 H         1 UNK         0.0600 
    188 H188       -5.7694  -14.3678  -49.4769 H         1 UNK         0.0600 
    189 H189       -3.5999  -15.3609  -48.8118 H         1 UNK         0.3000 
    190 H190        0.3816  -21.6854  -46.4547 H         1 UNK         0.3000 
    191 H191       -1.7275  -21.6859  -48.3382 H         1 UNK         0.0600 
    192 H192       -1.6900  -20.3111  -45.6184 H         1 UNK         0.0600 
    193 H193       -2.5885  -19.8348  -47.0498 H         1 UNK         0.0600 
    194 H194       -0.8379  -19.7102  -47.0335 H         1 UNK         0.0600 
    195 H195       -1.4062  -23.8425  -45.7040 H         1 UNK         0.3000 
    196 H196       -4.2487  -24.3408  -45.3112 H         1 UNK         0.0600 
    197 H197       -3.4067  -26.4604  -44.2551 H         1 UNK         0.0600 
    198 H198       -2.6423  -25.0300  -43.5853 H         1 UNK         0.0600 
    199 H199       -1.7655  -26.0404  -44.7350 H         1 UNK         0.0600 
    200 H200       -1.7645  -25.3456  -47.6399 H         1 UNK         0.3000 
    201 H201       -3.4660  -27.4341  -48.8543 H         1 UNK         0.0600 
    202 H202       -1.0283  -27.8574  -48.6538 H         1 UNK         0.0600 
    203 H203       -0.6699  -26.4168  -49.6013 H         1 UNK         0.0600 
    204 H204       -1.5116  -27.7713  -50.3404 H         1 UNK         0.0600 
    205 H205       -1.8999  -24.3245  -49.7561 H         1 UNK         0.3000 
    206 H206       -3.7814  -23.8793  -52.0161 H         1 UNK         0.0600 
    207 H207       -1.3714  -23.3336  -52.3428 H         1 UNK         0.0600 
    208 H208       -2.3602  -21.8825  -52.4124 H         1 UNK         0.0600 
    209 H209       -1.4225  -22.2326  -50.9677 H         1 UNK         0.0600 
    210 H210       -5.4779  -24.0728  -50.3627 H         1 UNK         0.3000 
    211 H211       -6.0372  -23.0524  -48.0695 H         1 UNK         0.0600 
    212 H212       -8.0143  -23.1840  -50.3861 H         1 UNK         0.0600 
    213 H213       -8.4590  -23.1224  -48.6851 H         1 UNK         0.0600 
    214 H214       -7.5549  -24.4954  -49.3012 H         1 UNK         0.0600 
    215 H215       -5.0787  -21.0894  -47.5684 H         1 UNK         0.3000 
    216 H216       -4.9069  -18.9294  -47.0911 H         1 UNK         0.0600 
    217 H217       -6.9366  -17.5700  -46.7819 H         1 UNK         0.0600 
    218 H218       -7.2283  -19.2031  -46.2085 H         1 UNK         0.0600 
    219 H219       -7.8850  -18.6822  -47.7603 H         1 UNK         0.0600 
    220 H220       -4.1093  -19.7074  -49.6354 H         1 UNK         0.3000 
    221 H221       -3.1130  -18.8837  -51.3949 H         1 UNK         0.0600 
    222 H222       -4.3186  -16.1030  -51.0071 H         1 UNK         0.0600 
    223 H223       -2.8348  -16.6548  -50.2297 H         1 UNK         0.0600 
    224 H224       -2.9255  -16.5470  -51.9784 H         1 UNK         0.0600 
    225 H225       -5.6730  -20.1945  -51.3812 H         1 UNK         0.3000 
    226 H226       -7.2564  -19.3467  -53.6170 H         1 UNK         0.0600 
    227 H227       -8.1596  -21.0094  -52.0794 H         1 UNK         0.0600 
    228 H228       -7.9634  -21.7848  -53.6374 H         1 UNK         0.0600 
    229 H229       -6.7993  -22.1011  -52.3575 H         1 UNK         0.0600 
    230 H230       -6.6987  -19.2689  -55.6793 H         1 UNK         0.3000 
    231 H231       -5.6134  -19.3507  -57.5968 H         1 UNK         0.0600 
    232 H232       -6.2025  -21.7926  -57.5959 H         1 UNK         0.0600 
    233 H233       -4.6453  -22.1612  -56.8549 H         1 UNK         0.0600 
    234 H234       -4.7130  -21.4608  -58.4642 H         1 UNK         0.0600 
    235 H235       -4.3861  -18.1508  -55.3201 H         1 UNK         0.3000 
    236 H236       -2.5903  -17.0905  -54.6323 H         1 UNK         0.0600 
    237 H237       -0.7549  -16.5320  -56.2364 H         1 UNK         0.0600 
    238 H238       -1.4059  -17.6765  -57.4074 H         1 UNK         0.0600 
    239 H239       -2.3387  -16.2628  -56.9390 H         1 UNK         0.0600 
    240 H240       -0.1050  -18.7806  -56.2830 H         1 UNK         0.3000 
    241 H241        0.6401  -20.2387  -53.8502 H         1 UNK         0.0600 
    242 H242       -1.1014  -22.8312  -56.3353 H         1 UNK         0.3800 
    243 H243       -1.4035  -21.1151  -56.4473 H         1 UNK         0.3800 
    244 H244        2.7895  -20.7074  -55.0273 H         1 UNK         0.0800 
    245 H245        2.1717  -19.9746  -56.4808 H         1 UNK         0.0800 
    246 H246        4.0388  -17.8104  -52.8916 H         1 UNK         0.0800 
    247 H247        4.4181  -19.3942  -53.5222 H         1 UNK         0.0800 
@<TRIPOS>BOND
     1    1    2 1    
     2    1  127 1    
     3    1  128 1    
     4    1  129 1    
     5    2    3 2    
     6    2    4 am   BACKBONE|DICT|INTERRES
     7    4    5 1    
     8    4  130 1    
     9    5    6 1    
    10    5   65 1    
    11    5  131 1    
    12    6    7 1    
    13    6  132 1    
    14    6  133 1    
    15    7    8 1    
    16    8    9 1    
    17    8  134 1    
    18    8  135 1    
    19    9   10 ar   
    20    9   14 ar   
    21   10   11 ar   
    22   10  136 1    
    23   11   12 ar   
    24   11  126 1    
    25   12   13 ar   
    26   12  137 1    
    27   13   14 ar   
    28   13   15 1    
    29   14  138 1    
    30   15   16 1    
    31   15  139 1    
    32   15  140 1    
    33   16   17 1    
    34   17   18 1    
    35   17  141 1    
    36   17  142 1    
    37   18   19 1    
    38   18   67 1    
    39   18  143 1    
    40   19   20 am   BACKBONE|DICT|INTERRES
    41   19  144 1    
    42   20   21 2    
    43   20   22 1    
    44   22   23 1    
    45   22   24 1    
    46   22  145 1    
    47   23  146 1    
    48   23  147 1    
    49   23  148 1    
    50   24   25 am   BACKBONE|DICT|INTERRES
    51   24  149 1    
    52   25   26 2    
    53   25   27 1    
    54   27   28 1    
    55   27   29 1    
    56   27  150 1    
    57   28  151 1    
    58   28  152 1    
    59   28  153 1    
    60   29   30 am   BACKBONE|DICT|INTERRES
    61   29  154 1    
    62   30   31 2    
    63   30   32 1    
    64   32   33 1    
    65   32   34 1    
    66   32  155 1    
    67   33  156 1    
    68   33  157 1    
    69   33  158 1    
    70   34   35 am   BACKBONE|DICT|INTERRES
    71   34  159 1    
    72   35   36 2    
    73   35   37 1    
    74   37   38 1    
    75   37   39 1    
    76   37  160 1    
    77   38  161 1    
    78   38  162 1    
    79   38  163 1    
    80   39   40 am   BACKBONE|DICT|INTERRES
    81   39  164 1    
    82   40   41 2    
    83   40   42 1    
    84   42   43 1    
    85   42   44 1    
    86   42  165 1    
    87   43  166 1    
    88   43  167 1    
    89   43  168 1    
    90   44   45 am   BACKBONE|DICT|INTERRES
    91   44  169 1    
    92   45   46 2    
    93   45   47 1    
    94   47   48 1    
    95   47   49 1    
    96   47  170 1    
    97   48  171 1    
    98   48  172 1    
    99   48  173 1    
   100   49   50 am   BACKBONE|DICT|INTERRES
   101   49  174 1    
   102   50   51 2    
   103   50   52 1    
   104   52   53 1    
   105   52   54 1    
   106   52  175 1    
   107   53  176 1    
   108   53  177 1    
   109   53  178 1    
   110   54   55 am   BACKBONE|DICT|INTERRES
   111   54  179 1    
   112   55   56 2    
   113   55   57 1    
   114   57   58 1    
   115   57   59 1    
   116   57  180 1    
   117   58  181 1    
   118   58  182 1    
   119   58  183 1    
   120   59   60 am   BACKBONE|DICT|INTERRES
   121   59  184 1    
   122   60   61 2    
   123   60   62 1    
   124   62   63 1    
   125   62   64 1    
   126   62  185 1    
   127   63  186 1    
   128   63  187 1    
   129   63  188 1    
   130   64   65 am   BACKBONE|DICT|INTERRES
   131   64  189 1    
   132   65   66 2    
   133   67   68 2    
   134   67   69 am   BACKBONE|DICT|INTERRES
   135   69   70 1    
   136   69  190 1    
   137   70   71 1    
   138   70   72 1    
   139   70  191 1    
   140   71  192 1    
   141   71  193 1    
   142   71  194 1    
   143   72   73 2    
   144   72   74 am   BACKBONE|DICT|INTERRES
   145   74   75 1    
   146   74  195 1    
   147   75   76 1    
   148   75   77 1    
   149   75  196 1    
   150   76  197 1    
   151   76  198 1    
   152   76  199 1    
   153   77   78 2    
   154   77   79 am   BACKBONE|DICT|INTERRES
   155   79   80 1    
   156   79  200 1    
   157   80   81 1    
   158   80   82 1    
   159   80  201 1    
   160   81  202 1    
   161   81  203 1    
   162   81  204 1    
   163   82   83 2    
   164   82   84 am   BACKBONE|DICT|INTERRES
   165   84   85 1    
   166   84  205 1    
   167   85   86 1    
   168   85   87 1    
   169   85  206 1    
   170   86  207 1    
   171   86  208 1    
   172   86  209 1    
   173   87   88 2    
   174   87   89 am   BACKBONE|DICT|INTERRES
   175   89   90 1    
   176   89  210 1    
   177   90   91 1    
   178   90   92 1    
   179   90  211 1    
   180   91  212 1    
   181   91  213 1    
   182   91  214 1    
   183   92   93 2    
   184   92   94 am   BACKBONE|DICT|INTERRES
   185   94   95 1    
   186   94  215 1    
   187   95   96 1    
   188   95   97 1    
   189   95  216 1    
   190   96  217 1    
   191   96  218 1    
   192   96  219 1    
   193   97   98 2    
   194   97   99 am   BACKBONE|DICT|INTERRES
   195   99  100 1    
   196   99  220 1    
   197  100  101 1    
   198  100  102 1    
   199  100  221 1    
   200  101  222 1    
   201  101  223 1    
   202  101  224 1    
   203  102  103 2    
   204  102  104 am   BACKBONE|DICT|INTERRES
   205  104  105 1    
   206  104  225 1    
   207  105  106 1    
   208  105  107 1    
   209  105  226 1    
   210  106  227 1    
   211  106  228 1    
   212  106  229 1    
   213  107  108 2    
   214  107  109 am   BACKBONE|DICT|INTERRES
   215  109  110 1    
   216  109  230 1    
   217  110  111 1    
   218  110  112 1    
   219  110  231 1    
   220  111  232 1    
   221  111  233 1    
   222  111  234 1    
   223  112  113 2    
   224  112  114 am   BACKBONE|DICT|INTERRES
   225  114  115 1    
   226  114  235 1    
   227  115  116 1    
   228  115  117 1    
   229  115  236 1    
   230  116  237 1    
   231  116  238 1    
   232  116  239 1    
   233  117  118 2    
   234  117  119 am   BACKBONE|DICT|INTERRES
   235  119  120 1    
   236  119  240 1    
   237  120  121 1    
   238  120  124 1    
   239  120  241 1    
   240  121  122 am   BACKBONE|DICT|INTERRES
   241  121  123 2    
   242  122  242 1    
   243  122  243 1    
   244  124  125 1    
   245  124  244 1    
   246  124  245 1    
   247  125  126 1    
   248  126  246 1    
   249  126  247 1    
@<TRIPOS>SUBSTRUCTURE
     1 UNK         1 GROUP             0       ****    0 ROOT    
