@<TRIPOS>MOLECULE
3R540
247   249    1
SMALL
USER_CHARGES


@<TRIPOS>ATOM
      1 CA          7.1810  -12.8235  -46.6256 C.3       0 UNK        -0.1800 
      2 C           5.7046  -13.1797  -46.7078 C.2       0 UNK         0.5000 
      3 O           4.8692  -12.4505  -46.1742 O.2       0 UNK        -0.5000 
      4 N           5.3759  -14.2844  -47.3906 N.am      1 UNK        -0.5000 
      5 CA          4.0197  -14.8379  -47.5372 C.3       1 UNK         0.1400 
      6 C6          4.0279  -16.2028  -48.2693 C.3       23 UNK        -0.0398 
      7 S7          5.0885  -17.4465  -47.4570 S.3       23 UNK        -0.2404 
      8 C8          5.0891  -18.7811  -48.6978 C.3       23 UNK        -0.0205 
      9 C9          3.8558  -19.6646  -48.5806 C.ar      23 UNK        -0.0193 
     10 C10         2.6775  -19.3299  -49.2535 C.ar      23 UNK        -0.1150 
     11 C11         1.5323  -20.1232  -49.1350 C.ar      23 UNK        -0.0193 
     12 C12         1.5871  -21.2765  -48.3431 C.ar      23 UNK        -0.1150 
     13 C13         2.7638  -21.6332  -47.6767 C.ar      23 UNK        -0.0193 
     14 C14         3.8942  -20.8221  -47.7986 C.ar      23 UNK        -0.1150 
     15 C15         2.8177  -22.9027  -46.8378 C.3       23 UNK        -0.0205 
     16 S16         2.7771  -22.5914  -45.0393 S.3       23 UNK        -0.2404 
     17 C17         1.2070  -21.6877  -44.8100 C.3       23 UNK        -0.0398 
     18 CA         -0.0072  -22.5652  -44.4152 C.3       11 UNK         0.1400 
     19 N          -1.1303  -21.7413  -43.9534 N.am      11 UNK        -0.5000 
     20 C          -2.2978  -22.1829  -43.4610 C.2       10 UNK         0.5000 
     21 O          -2.5511  -23.3699  -43.2543 O.2       10 UNK        -0.5000 
     22 CA         -3.3706  -21.1200  -43.1543 C.3       10 UNK         0.1400 
     23 CB         -3.1887  -20.5517  -41.7385 C.3       10 UNK        -0.1800 
     24 N          -3.3608  -20.0213  -44.1203 N.am      10 UNK        -0.5000 
     25 C          -3.8897  -20.0813  -45.3510 C.2       9 UNK         0.5000 
     26 O          -4.5069  -21.0533  -45.7918 O.2       9 UNK        -0.5000 
     27 CA         -3.6780  -18.8477  -46.2514 C.3       9 UNK         0.1400 
     28 CB         -4.7673  -17.7949  -45.9963 C.3       9 UNK        -0.1800 
     29 N          -2.3663  -18.2183  -46.0847 N.am      9 UNK        -0.5000 
     30 C          -1.1870  -18.8171  -46.3002 C.2       8 UNK         0.5000 
     31 O          -1.0768  -19.9746  -46.7053 O.2       8 UNK        -0.5000 
     32 CA          0.0743  -18.0095  -45.9279 C.3       8 UNK         0.1400 
     33 CB          0.4262  -16.9791  -47.0092 C.3       8 UNK        -0.1800 
     34 N          -0.0616  -17.3138  -44.6475 N.am      8 UNK        -0.5000 
     35 C          -0.2629  -17.9065  -43.4633 C.2       7 UNK         0.5000 
     36 O          -0.3415  -19.1230  -43.3147 O.2       7 UNK        -0.5000 
     37 CA         -0.4609  -16.9863  -42.2494 C.3       7 UNK         0.1400 
     38 CB          0.8890  -16.5108  -41.6926 C.3       7 UNK        -0.1800 
     39 N          -1.2961  -15.8363  -42.5896 N.am      7 UNK        -0.5000 
     40 C          -2.6218  -15.9043  -42.7774 C.2       6 UNK         0.5000 
     41 O          -3.2834  -16.9302  -42.6155 O.2       6 UNK        -0.5000 
     42 CA         -3.3178  -14.6174  -43.2592 C.3       6 UNK         0.1400 
     43 CB         -3.6885  -13.7230  -42.0670 C.3       6 UNK        -0.1800 
     44 N          -2.5015  -13.8519  -44.2039 N.am      6 UNK        -0.5000 
     45 C          -2.1857  -14.2688  -45.4381 C.2       5 UNK         0.5000 
     46 O          -2.5767  -15.3317  -45.9183 O.2       5 UNK        -0.5000 
     47 CA         -1.2406  -13.3707  -46.2567 C.3       5 UNK         0.1400 
     48 CB         -2.0341  -12.3184  -47.0442 C.3       5 UNK        -0.1800 
     49 N          -0.2152  -12.6992  -45.4556 N.am      5 UNK        -0.5000 
     50 C           0.7247  -13.3125  -44.7248 C.2       4 UNK         0.5000 
     51 O           0.7597  -14.5322  -44.5546 O.2       4 UNK        -0.5000 
     52 CA          1.8005  -12.4073  -44.0900 C.3       4 UNK         0.1400 
     53 CB          2.9165  -13.2105  -43.3985 C.3       4 UNK        -0.1800 
     54 N           2.4117  -11.5248  -45.0833 N.am      4 UNK        -0.5000 
     55 C           1.9071  -10.3629  -45.5173 C.2       3 UNK         0.5000 
     56 O           0.8391   -9.8942  -45.1218 O.2       3 UNK        -0.5000 
     57 CA          2.7040   -9.6379  -46.6117 C.3       3 UNK         0.1400 
     58 CB          3.9832   -9.0068  -46.0388 C.3       3 UNK        -0.1800 
     59 N           3.0538  -10.5672  -47.6840 N.am      3 UNK        -0.5000 
     60 C           2.2793  -10.8229  -48.7476 C.2       2 UNK         0.5000 
     61 O           1.2164  -10.2441  -48.9754 O.2       2 UNK        -0.5000 
     62 CA          2.7701  -11.9097  -49.7248 C.3       2 UNK         0.1400 
     63 CB          3.6188  -11.2849  -50.8426 C.3       2 UNK        -0.1800 
     64 N           3.5468  -12.9612  -49.0665 N.am      2 UNK        -0.5000 
     65 C           3.0302  -13.8753  -48.2326 C.2       1 UNK         0.5000 
     66 O           1.8276  -13.9688  -47.9941 O.2       1 UNK        -0.5000 
     67 C          -0.4401  -23.5016  -45.5606 C.2       11 UNK         0.5000 
     68 O          -0.1476  -24.6968  -45.5073 O.2       11 UNK        -0.5000 
     69 N          -1.1640  -22.9437  -46.5444 N.am      12 UNK        -0.5000 
     70 CA         -1.9303  -23.5999  -47.6129 C.3       12 UNK         0.1400 
     71 CB         -3.0331  -24.4837  -47.0034 C.3       12 UNK        -0.1800 
     72 C          -1.1404  -24.4126  -48.6586 C.2       12 UNK         0.5000 
     73 O          -1.5691  -24.4675  -49.8112 O.2       12 UNK        -0.5000 
     74 N          -0.0369  -25.0499  -48.2535 N.am      13 UNK        -0.5000 
     75 CA          0.7062  -26.0770  -48.9904 C.3       13 UNK         0.1400 
     76 CB          1.8776  -26.5598  -48.1213 C.3       13 UNK        -0.1800 
     77 C           1.2096  -25.6828  -50.3921 C.2       13 UNK         0.5000 
     78 O           1.3775  -26.5672  -51.2323 O.2       13 UNK        -0.5000 
     79 N           1.4325  -24.3832  -50.6323 N.am      14 UNK        -0.5000 
     80 CA          1.8414  -23.8581  -51.9370 C.3       14 UNK         0.1400 
     81 CB          2.3799  -22.4299  -51.7703 C.3       14 UNK        -0.1800 
     82 C           0.7081  -23.8969  -52.9828 C.2       14 UNK         0.5000 
     83 O           0.9964  -24.0272  -54.1733 O.2       14 UNK        -0.5000 
     84 N          -0.5479  -23.7943  -52.5270 N.am      15 UNK        -0.5000 
     85 CA         -1.7465  -23.8675  -53.3635 C.3       15 UNK         0.1400 
     86 CB         -2.7234  -22.7651  -52.9324 C.3       15 UNK        -0.1800 
     87 C          -2.4390  -25.2350  -53.2648 C.2       15 UNK         0.5000 
     88 O          -3.1123  -25.6362  -54.2137 O.2       15 UNK        -0.5000 
     89 N          -2.3146  -25.8974  -52.1054 N.am      16 UNK        -0.5000 
     90 CA         -2.9220  -27.1682  -51.6842 C.3       16 UNK         0.1400 
     91 CB         -2.5498  -28.3219  -52.6340 C.3       16 UNK        -0.1800 
     92 C          -4.4458  -27.0966  -51.4485 C.2       16 UNK         0.5000 
     93 O          -4.9492  -27.7846  -50.5603 O.2       16 UNK        -0.5000 
     94 N          -5.1480  -26.2476  -52.2098 N.am      17 UNK        -0.5000 
     95 CA         -6.5757  -25.9481  -52.0739 C.3       17 UNK         0.1400 
     96 CB         -7.0415  -25.2005  -53.3324 C.3       17 UNK        -0.1800 
     97 C          -6.9233  -25.1458  -50.8014 C.2       17 UNK         0.5000 
     98 O          -8.0743  -25.1926  -50.3650 O.2       17 UNK        -0.5000 
     99 N          -5.9202  -24.4596  -50.2297 N.am      18 UNK        -0.5000 
    100 CA        -5.9480  -23.6648  -48.9960 C.3       18 UNK         0.1400 
    101 CB        -6.4098  -24.5277  -47.7994 C.3       18 UNK        -0.1800 
    102 C         -6.7672  -22.3641  -49.0949 C.2       18 UNK         0.5000 
    103 O         -7.4140  -22.0943  -50.1098 O.2       18 UNK        -0.5000 
    104 N         -6.7038  -21.5694  -48.0168 N.am      19 UNK        -0.5000 
    105 CA        -7.4018  -20.2986  -47.8244 C.3       19 UNK         0.1400 
    106 CB        -8.9230  -20.5352  -47.6796 C.3       19 UNK        -0.1800 
    107 C         -7.0126  -19.2652  -48.9026 C.2       19 UNK         0.5000 
    108 O         -5.8198  -19.0743  -49.1517 O.2       19 UNK        -0.5000 
    109 N         -8.0134  -18.6331  -49.5308 N.am      20 UNK        -0.5000 
    110 CA        -7.8703  -17.5933  -50.5522 C.3       20 UNK         0.1400 
    111 CB        -9.2652  -17.0768  -50.9355 C.3       20 UNK        -0.1800 
    112 C         -7.0940  -18.0278  -51.8106 C.2       20 UNK         0.5000 
    113 O         -6.4995  -17.1725  -52.4680 O.2       20 UNK        -0.5000 
    114 N         -7.0638  -19.3370  -52.1058 N.am      21 UNK        -0.5000 
    115 CA        -6.2830  -19.9187  -53.2025 C.3       21 UNK         0.1400 
    116 CB        -6.6353  -21.4056  -53.3522 C.3       21 UNK        -0.1800 
    117 C         -4.7615  -19.7461  -53.0225 C.2       21 UNK         0.5000 
    118 O         -4.0394  -19.7010  -54.0186 O.2       21 UNK        -0.5000 
    119 N         -4.3130  -19.6278  -51.7656 N.am      22 UNK        -0.5000 
    120 CA        -2.9309  -19.3010  -51.3890 C.3       22 UNK         0.1400 
    121 C         -2.6467  -17.7667  -51.3435 C.2       22 UNK         0.5000 
    122 N         -3.5970  -16.8905  -51.6518 N.am      22 UNK        -0.7600 
    123 O         -1.5330  -17.3523  -51.0402 O.2       22 UNK        -0.5000 
    124 C124       -2.5265  -20.0277  -50.0725 C.3       23 UNK        -0.0398 
    125 S125       -0.9659  -20.9681  -50.2058 S.3       23 UNK        -0.2404 
    126 C126        0.2504  -19.6632  -49.8288 C.3       23 UNK        -0.0205 
    127 H127        7.8030  -13.5470  -47.1531 H         1 UNK         0.0600 
    128 H128        7.3538  -11.8406  -47.0639 H         1 UNK         0.0600 
    129 H129        7.5004  -12.7944  -45.5840 H         1 UNK         0.0600 
    130 H130        6.1118  -14.8448  -47.7972 H         1 UNK         0.3000 
    131 H131        3.6337  -15.0010  -46.5284 H         1 UNK         0.0600 
    132 H132        3.0179  -16.6084  -48.3226 H         1 UNK         0.0800 
    133 H133        4.3644  -16.0773  -49.3000 H         1 UNK         0.0800 
    134 H134        5.9872  -19.3846  -48.5576 H         1 UNK         0.0800 
    135 H135        5.1636  -18.3627  -49.7026 H         1 UNK         0.0800 
    136 H136        2.6459  -18.4351  -49.8588 H         1 UNK         0.1150 
    137 H137        0.7080  -21.8904  -48.2274 H         1 UNK         0.1150 
    138 H138        4.8026  -21.0902  -47.2775 H         1 UNK         0.1150 
    139 H139        2.0006  -23.5691  -47.1062 H         1 UNK         0.0800 
    140 H140        3.7333  -23.4463  -47.0750 H         1 UNK         0.0800 
    141 H141        0.9891  -21.0890  -45.6904 H         1 UNK         0.0800 
    142 H142        1.3970  -20.9667  -44.0146 H         1 UNK         0.0800 
    143 H143        0.2883  -23.1923  -43.5717 H         1 UNK         0.0600 
    144 H144       -0.9847  -20.7362  -43.9918 H         1 UNK         0.3000 
    145 H145       -4.3457  -21.6100  -43.1969 H         1 UNK         0.0600 
    146 H146       -3.9733  -19.8337  -41.4988 H         1 UNK         0.0600 
    147 H147       -3.2333  -21.3451  -40.9914 H         1 UNK         0.0600 
    148 H148       -2.2294  -20.0468  -41.6236 H         1 UNK         0.0600 
    149 H149       -2.8786  -19.1773  -43.8425 H         1 UNK         0.3000 
    150 H150       -3.7627  -19.1832  -47.2856 H         1 UNK         0.0600 
    151 H151       -5.7647  -18.2272  -46.0528 H         1 UNK         0.0600 
    152 H152       -4.7193  -16.9963  -46.7370 H         1 UNK         0.0600 
    153 H153       -4.6653  -17.3426  -45.0096 H         1 UNK         0.0600 
    154 H154       -2.3698  -17.2403  -45.8073 H         1 UNK         0.3000 
    155 H155        0.9117  -18.7034  -45.8368 H         1 UNK         0.0600 
    156 H156       -0.4336  -16.3726  -47.2923 H         1 UNK         0.0600 
    157 H157        0.7974  -17.4627  -47.9089 H         1 UNK         0.0600 
    158 H158        1.2111  -16.3047  -46.6678 H         1 UNK         0.0600 
    159 H159        0.0426  -16.3028  -44.6669 H         1 UNK         0.3000 
    160 H160       -0.9633  -17.5612  -41.4683 H         1 UNK         0.0600 
    161 H161        0.7541  -15.8487  -40.8373 H         1 UNK         0.0600 
    162 H162        1.4731  -15.9784  -42.4426 H         1 UNK         0.0600 
    163 H163        1.4880  -17.3583  -41.3571 H         1 UNK         0.0600 
    164 H164       -0.8158  -14.9753  -42.8080 H         1 UNK         0.3000 
    165 H165       -4.2398  -14.9096  -43.7667 H         1 UNK         0.0600 
    166 H166       -4.2497  -12.8464  -42.3911 H         1 UNK         0.0600 
    167 H167       -4.3138  -14.2627  -41.3545 H         1 UNK         0.0600 
    168 H168       -2.8038  -13.3769  -41.5311 H         1 UNK         0.0600 
    169 H169       -2.1360  -12.9664  -43.8858 H         1 UNK         0.3000 
    170 H170       -0.7245  -14.0099  -46.9748 H         1 UNK         0.0600 
    171 H171       -2.7922  -12.7895  -47.6713 H         1 UNK         0.0600 
    172 H172       -2.5429  -11.6178  -46.3810 H         1 UNK         0.0600 
    173 H173       -1.3800  -11.7448  -47.7017 H         1 UNK         0.0600 
    174 H174       -0.1638  -11.6899  -45.5294 H         1 UNK         0.3000 
    175 H175        1.3066  -11.8000  -43.3289 H         1 UNK         0.0600 
    176 H176        3.4193  -13.8827  -44.0953 H         1 UNK         0.0600 
    177 H177        3.6704  -12.5499  -42.9702 H         1 UNK         0.0600 
    178 H178        2.5172  -13.8147  -42.5839 H         1 UNK         0.0600 
    179 H179        3.2877  -11.8525  -45.4856 H         1 UNK         0.3000 
    180 H180        2.0825   -8.8319  -47.0080 H         1 UNK         0.0600 
    181 H181        4.6604   -9.7562  -45.6274 H         1 UNK         0.0600 
    182 H182        3.7459   -8.3047  -45.2386 H         1 UNK         0.0600 
    183 H183        4.5249   -8.4538  -46.8062 H         1 UNK         0.0600 
    184 H184        3.8771  -11.1364  -47.5328 H         1 UNK         0.3000 
    185 H185        1.8896  -12.3679  -50.1804 H         1 UNK         0.0600 
    186 H186        3.0597  -10.5116  -51.3710 H         1 UNK         0.0600 
    187 H187        4.5261  -10.8238  -50.4502 H         1 UNK         0.0600 
    188 H188        3.9128  -12.0324  -51.5797 H         1 UNK         0.0600 
    189 H189        4.5457  -12.9530  -49.2128 H         1 UNK         0.3000 
    190 H190       -1.2735  -21.9324  -46.5132 H         1 UNK         0.3000 
    191 H191       -2.4189  -22.7932  -48.1610 H         1 UNK         0.0600 
    192 H192       -2.6282  -25.2491  -46.3412 H         1 UNK         0.0600 
    193 H193       -3.5890  -25.0074  -47.7804 H         1 UNK         0.0600 
    194 H194       -3.7394  -23.8860  -46.4270 H         1 UNK         0.0600 
    195 H195        0.1678  -24.9805  -47.2592 H         1 UNK         0.3000 
    196 H196        0.0219  -26.9165  -49.1280 H         1 UNK         0.0600 
    197 H197        2.4037  -27.3873  -48.5991 H         1 UNK         0.0600 
    198 H198        1.5309  -26.9146  -47.1504 H         1 UNK         0.0600 
    199 H199        2.6054  -25.7668  -47.9493 H         1 UNK         0.0600 
    200 H200        1.2617  -23.7134  -49.8976 H         1 UNK         0.3000 
    201 H201        2.6579  -24.4796  -52.3110 H         1 UNK         0.0600 
    202 H202        3.1646  -22.3829  -51.0148 H         1 UNK         0.0600 
    203 H203        1.5920  -21.7366  -51.4814 H         1 UNK         0.0600 
    204 H204        2.8049  -22.0642  -52.7056 H         1 UNK         0.0600 
    205 H205       -0.6992  -23.7160  -51.5277 H         1 UNK         0.3000 
    206 H206       -1.4927  -23.7008  -54.4123 H         1 UNK         0.0600 
    207 H207       -2.2810  -21.7833  -53.0920 H         1 UNK         0.0600 
    208 H208       -3.6451  -22.8019  -53.5146 H         1 UNK         0.0600 
    209 H209       -2.9931  -22.8459  -51.8785 H         1 UNK         0.0600 
    210 H210       -1.8277  -25.4112  -51.3563 H         1 UNK         0.3000 
    211 H211       -2.4737  -27.3894  -50.7142 H         1 UNK         0.0600 
    212 H212       -3.0009  -28.2040  -53.6193 H         1 UNK         0.0600 
    213 H213       -2.8918  -29.2773  -52.2343 H         1 UNK         0.0600 
    214 H214       -1.4697  -28.3914  -52.7637 H         1 UNK         0.0600 
    215 H215       -4.6507  -25.7865  -52.9640 H         1 UNK         0.3000 
    216 H216       -7.1173  -26.8946  -52.0186 H         1 UNK         0.0600 
    217 H217       -8.0957  -24.9290  -53.2630 H         1 UNK         0.0600 
    218 H218       -6.9230  -25.8182  -54.2228 H         1 UNK         0.0600 
    219 H219       -6.4735  -24.2833  -53.4854 H         1 UNK         0.0600 
    220 H220       -5.0295  -24.4881  -50.7025 H         1 UNK         0.3000 
    221 H221       -4.9161  -23.3587  -48.8251 H         1 UNK         0.0600 
    222 H222       -7.4840  -24.7132  -47.8247 H         1 UNK         0.0600 
    223 H223       -5.9092  -25.4958  -47.7867 H         1 UNK         0.0600 
    224 H224       -6.1917  -24.0388  -46.8496 H         1 UNK         0.0600 
    225 H225       -6.0829  -21.8255  -47.2585 H         1 UNK         0.3000 
    226 H226       -7.0457  -19.9019  -46.8748 H         1 UNK         0.0600 
    227 H227       -9.1279  -21.2635  -46.8948 H         1 UNK         0.0600 
    228 H228       -9.4431  -19.6177  -47.4016 H         1 UNK         0.0600 
    229 H229       -9.3721  -20.9114  -48.5996 H         1 UNK         0.0600 
    230 H230       -8.9595  -18.8768  -49.2763 H         1 UNK         0.3000 
    231 H231       -7.3131  -16.7698  -50.1010 H         1 UNK         0.0600 
    232 H232       -9.7884  -16.6707  -50.0696 H         1 UNK         0.0600 
    233 H233       -9.8831  -17.8679  -51.3623 H         1 UNK         0.0600 
    234 H234       -9.1974  -16.2780  -51.6754 H         1 UNK         0.0600 
    235 H235       -7.5453  -19.9860  -51.4971 H         1 UNK         0.3000 
    236 H236       -6.5687  -19.4054  -54.1229 H         1 UNK         0.0600 
    237 H237       -6.1526  -21.8306  -54.2330 H         1 UNK         0.0600 
    238 H238       -6.3048  -21.9848  -52.4898 H         1 UNK         0.0600 
    239 H239       -7.7093  -21.5530  -53.4663 H         1 UNK         0.0600 
    240 H240       -4.9852  -19.6173  -51.0064 H         1 UNK         0.3000 
    241 H241       -2.2820  -19.6657  -52.1859 H         1 UNK         0.0600 
    242 H242       -3.3789  -15.9076  -51.6213 H         1 UNK         0.3800 
    243 H243       -4.5229  -17.1851  -51.9367 H         1 UNK         0.3800 
    244 H244       -2.4738  -19.3412  -49.2269 H         1 UNK         0.0800 
    245 H245       -3.2885  -20.7546  -49.7870 H         1 UNK         0.0800 
    246 H246        0.4986  -19.1588  -50.7636 H         1 UNK         0.0800 
    247 H247       -0.2235  -18.9183  -49.1947 H         1 UNK         0.0800 
@<TRIPOS>BOND
     1    1    2 1    
     2    1  127 1    
     3    1  128 1    
     4    1  129 1    
     5    2    3 2    
     6    2    4 am   BACKBONE|DICT|INTERRES
     7    4    5 1    
     8    4  130 1    
     9    5    6 1    
    10    5   65 1    
    11    5  131 1    
    12    6    7 1    
    13    6  132 1    
    14    6  133 1    
    15    7    8 1    
    16    8    9 1    
    17    8  134 1    
    18    8  135 1    
    19    9   10 ar   
    20    9   14 ar   
    21   10   11 ar   
    22   10  136 1    
    23   11   12 ar   
    24   11  126 1    
    25   12   13 ar   
    26   12  137 1    
    27   13   14 ar   
    28   13   15 1    
    29   14  138 1    
    30   15   16 1    
    31   15  139 1    
    32   15  140 1    
    33   16   17 1    
    34   17   18 1    
    35   17  141 1    
    36   17  142 1    
    37   18   19 1    
    38   18   67 1    
    39   18  143 1    
    40   19   20 am   BACKBONE|DICT|INTERRES
    41   19  144 1    
    42   20   21 2    
    43   20   22 1    
    44   22   23 1    
    45   22   24 1    
    46   22  145 1    
    47   23  146 1    
    48   23  147 1    
    49   23  148 1    
    50   24   25 am   BACKBONE|DICT|INTERRES
    51   24  149 1    
    52   25   26 2    
    53   25   27 1    
    54   27   28 1    
    55   27   29 1    
    56   27  150 1    
    57   28  151 1    
    58   28  152 1    
    59   28  153 1    
    60   29   30 am   BACKBONE|DICT|INTERRES
    61   29  154 1    
    62   30   31 2    
    63   30   32 1    
    64   32   33 1    
    65   32   34 1    
    66   32  155 1    
    67   33  156 1    
    68   33  157 1    
    69   33  158 1    
    70   34   35 am   BACKBONE|DICT|INTERRES
    71   34  159 1    
    72   35   36 2    
    73   35   37 1    
    74   37   38 1    
    75   37   39 1    
    76   37  160 1    
    77   38  161 1    
    78   38  162 1    
    79   38  163 1    
    80   39   40 am   BACKBONE|DICT|INTERRES
    81   39  164 1    
    82   40   41 2    
    83   40   42 1    
    84   42   43 1    
    85   42   44 1    
    86   42  165 1    
    87   43  166 1    
    88   43  167 1    
    89   43  168 1    
    90   44   45 am   BACKBONE|DICT|INTERRES
    91   44  169 1    
    92   45   46 2    
    93   45   47 1    
    94   47   48 1    
    95   47   49 1    
    96   47  170 1    
    97   48  171 1    
    98   48  172 1    
    99   48  173 1    
   100   49   50 am   BACKBONE|DICT|INTERRES
   101   49  174 1    
   102   50   51 2    
   103   50   52 1    
   104   52   53 1    
   105   52   54 1    
   106   52  175 1    
   107   53  176 1    
   108   53  177 1    
   109   53  178 1    
   110   54   55 am   BACKBONE|DICT|INTERRES
   111   54  179 1    
   112   55   56 2    
   113   55   57 1    
   114   57   58 1    
   115   57   59 1    
   116   57  180 1    
   117   58  181 1    
   118   58  182 1    
   119   58  183 1    
   120   59   60 am   BACKBONE|DICT|INTERRES
   121   59  184 1    
   122   60   61 2    
   123   60   62 1    
   124   62   63 1    
   125   62   64 1    
   126   62  185 1    
   127   63  186 1    
   128   63  187 1    
   129   63  188 1    
   130   64   65 am   BACKBONE|DICT|INTERRES
   131   64  189 1    
   132   65   66 2    
   133   67   68 2    
   134   67   69 am   BACKBONE|DICT|INTERRES
   135   69   70 1    
   136   69  190 1    
   137   70   71 1    
   138   70   72 1    
   139   70  191 1    
   140   71  192 1    
   141   71  193 1    
   142   71  194 1    
   143   72   73 2    
   144   72   74 am   BACKBONE|DICT|INTERRES
   145   74   75 1    
   146   74  195 1    
   147   75   76 1    
   148   75   77 1    
   149   75  196 1    
   150   76  197 1    
   151   76  198 1    
   152   76  199 1    
   153   77   78 2    
   154   77   79 am   BACKBONE|DICT|INTERRES
   155   79   80 1    
   156   79  200 1    
   157   80   81 1    
   158   80   82 1    
   159   80  201 1    
   160   81  202 1    
   161   81  203 1    
   162   81  204 1    
   163   82   83 2    
   164   82   84 am   BACKBONE|DICT|INTERRES
   165   84   85 1    
   166   84  205 1    
   167   85   86 1    
   168   85   87 1    
   169   85  206 1    
   170   86  207 1    
   171   86  208 1    
   172   86  209 1    
   173   87   88 2    
   174   87   89 am   BACKBONE|DICT|INTERRES
   175   89   90 1    
   176   89  210 1    
   177   90   91 1    
   178   90   92 1    
   179   90  211 1    
   180   91  212 1    
   181   91  213 1    
   182   91  214 1    
   183   92   93 2    
   184   92   94 am   BACKBONE|DICT|INTERRES
   185   94   95 1    
   186   94  215 1    
   187   95   96 1    
   188   95   97 1    
   189   95  216 1    
   190   96  217 1    
   191   96  218 1    
   192   96  219 1    
   193   97   98 2    
   194   97   99 am   BACKBONE|DICT|INTERRES
   195   99  100 1    
   196   99  220 1    
   197  100  101 1    
   198  100  102 1    
   199  100  221 1    
   200  101  222 1    
   201  101  223 1    
   202  101  224 1    
   203  102  103 2    
   204  102  104 am   BACKBONE|DICT|INTERRES
   205  104  105 1    
   206  104  225 1    
   207  105  106 1    
   208  105  107 1    
   209  105  226 1    
   210  106  227 1    
   211  106  228 1    
   212  106  229 1    
   213  107  108 2    
   214  107  109 am   BACKBONE|DICT|INTERRES
   215  109  110 1    
   216  109  230 1    
   217  110  111 1    
   218  110  112 1    
   219  110  231 1    
   220  111  232 1    
   221  111  233 1    
   222  111  234 1    
   223  112  113 2    
   224  112  114 am   BACKBONE|DICT|INTERRES
   225  114  115 1    
   226  114  235 1    
   227  115  116 1    
   228  115  117 1    
   229  115  236 1    
   230  116  237 1    
   231  116  238 1    
   232  116  239 1    
   233  117  118 2    
   234  117  119 am   BACKBONE|DICT|INTERRES
   235  119  120 1    
   236  119  240 1    
   237  120  121 1    
   238  120  124 1    
   239  120  241 1    
   240  121  122 am   BACKBONE|DICT|INTERRES
   241  121  123 2    
   242  122  242 1    
   243  122  243 1    
   244  124  125 1    
   245  124  244 1    
   246  124  245 1    
   247  125  126 1    
   248  126  246 1    
   249  126  247 1    
@<TRIPOS>SUBSTRUCTURE
     1 UNK         1 GROUP             0       ****    0 ROOT    
