@<TRIPOS>MOLECULE
3R540
247   249    1
SMALL
USER_CHARGES


@<TRIPOS>ATOM
      1 CA         -0.7987  -13.7829  -50.1136 C.3       0 UNK        -0.1800 
      2 C           0.1213  -13.9986  -48.9235 C.2       0 UNK         0.5000 
      3 O          -0.0080  -13.2977  -47.9218 O.2       0 UNK        -0.5000 
      4 N           1.0459  -14.9630  -49.0256 N.am      1 UNK        -0.5000 
      5 CA          2.1197  -15.2352  -48.0597 C.3       1 UNK         0.1400 
      6 C6          3.0730  -16.3831  -48.4945 C.3       23 UNK        -0.0398 
      7 S7          3.3996  -16.4537  -50.2922 S.3       23 UNK        -0.2404 
      8 C8          3.4937  -18.2537  -50.6105 C.3       23 UNK        -0.0205 
      9 C9          2.3230  -19.0728  -50.0656 C.ar      23 UNK        -0.0193 
     10 C10         1.0000  -18.6276  -50.1802 C.ar      23 UNK        -0.1150 
     11 C11        -0.0566  -19.3766  -49.6464 C.ar      23 UNK        -0.0193 
     12 C12         0.2198  -20.6055  -49.0451 C.ar      23 UNK        -0.1150 
     13 C13         1.5297  -21.0797  -48.9486 C.ar      23 UNK        -0.0193 
     14 C14         2.5768  -20.3023  -49.4485 C.ar      23 UNK        -0.1150 
     15 C15         1.8032  -22.4614  -48.3704 C.3       23 UNK        -0.0205 
     16 S16         2.4605  -22.4304  -46.6713 S.3       23 UNK        -0.2404 
     17 C17         1.1376  -21.6407  -45.6923 C.3       23 UNK        -0.0398 
     18 CA          0.0183  -22.6173  -45.2306 C.3       11 UNK         0.1400 
     19 N          -0.3114  -22.4721  -43.8059 N.am      11 UNK        -0.5000 
     20 C          -1.0764  -23.3359  -43.1153 C.2       10 UNK         0.5000 
     21 O          -1.5474  -24.3608  -43.6095 O.2       10 UNK        -0.5000 
     22 CA         -1.4008  -23.0062  -41.6434 C.3       10 UNK         0.1400 
     23 CB         -0.5280  -23.8516  -40.7034 C.3       10 UNK        -0.1800 
     24 N          -1.2334  -21.5958  -41.2950 N.am      10 UNK        -0.5000 
     25 C          -1.9538  -20.5748  -41.7816 C.2       9 UNK         0.5000 
     26 O          -2.8974  -20.7127  -42.5587 O.2       9 UNK        -0.5000 
     27 CA         -1.4897  -19.1587  -41.3788 C.3       9 UNK         0.1400 
     28 CB         -2.2550  -18.6707  -40.1402 C.3       9 UNK        -0.1800 
     29 N          -0.0459  -19.0805  -41.1202 N.am      9 UNK        -0.5000 
     30 C           0.8940  -19.3509  -42.0354 C.2       8 UNK         0.5000 
     31 O           0.6329  -19.6657  -43.1982 O.2       8 UNK        -0.5000 
     32 CA          2.3548  -19.3643  -41.5475 C.3       8 UNK         0.1400 
     33 CB          2.6815  -20.7232  -40.9075 C.3       8 UNK        -0.1800 
     34 N           3.2966  -19.1257  -42.6418 N.am      8 UNK        -0.5000 
     35 C           3.3986  -17.9637  -43.2942 C.2       7 UNK         0.5000 
     36 O           2.7688  -16.9509  -42.9768 O.2       7 UNK        -0.5000 
     37 CA          4.3487  -17.9343  -44.5028 C.3       7 UNK         0.1400 
     38 CB          3.7265  -18.6739  -45.6994 C.3       7 UNK        -0.1800 
     39 N           4.5609  -16.5383  -44.8610 N.am      7 UNK        -0.5000 
     40 C           5.7290  -15.8873  -44.8505 C.2       6 UNK         0.5000 
     41 O           6.8273  -16.4379  -44.7693 O.2       6 UNK        -0.5000 
     42 CA          5.6434  -14.3492  -44.8919 C.3       6 UNK         0.1400 
     43 CB          5.6875  -13.8345  -46.3382 C.3       6 UNK        -0.1800 
     44 N           4.4165  -13.8744  -44.2505 N.am      6 UNK        -0.5000 
     45 C           4.2331  -13.7715  -42.9267 C.2       5 UNK         0.5000 
     46 O           5.1389  -13.9129  -42.1031 O.2       5 UNK        -0.5000 
     47 CA          2.7897  -13.4969  -42.4504 C.3       5 UNK         0.1400 
     48 CB          2.7253  -12.7488  -41.1021 C.3       5 UNK        -0.1800 
     49 N           1.9615  -12.8491  -43.4729 N.am      5 UNK        -0.5000 
     50 C           2.0721  -11.6009  -43.9505 C.2       4 UNK         0.5000 
     51 O           2.8811  -10.7718  -43.5330 O.2       4 UNK        -0.5000 
     52 CA          1.1415  -11.2160  -45.1179 C.3       4 UNK         0.1400 
     53 CB          1.9502  -11.1050  -46.4207 C.3       4 UNK        -0.1800 
     54 N           0.0418  -12.1588  -45.3342 N.am      4 UNK        -0.5000 
     55 C          -1.0379  -12.2920  -44.5518 C.2       3 UNK         0.5000 
     56 O          -1.2427  -11.6124  -43.5458 O.2       3 UNK        -0.5000 
     57 CA         -2.0433  -13.3860  -44.9515 C.3       3 UNK         0.1400 
     58 CB         -2.9995  -12.8784  -46.0422 C.3       3 UNK        -0.1800 
     59 N          -1.3640  -14.5915  -45.4272 N.am      3 UNK        -0.5000 
     60 C          -0.8881  -15.5610  -44.6328 C.2       2 UNK         0.5000 
     61 O          -1.0135  -15.5632  -43.4084 O.2       2 UNK        -0.5000 
     62 CA         -0.1387  -16.7197  -45.3189 C.3       2 UNK         0.1400 
     63 CB         -1.0936  -17.8871  -45.6170 C.3       2 UNK        -0.1800 
     64 N           0.5175  -16.3186  -46.5632 N.am      2 UNK        -0.5000 
     65 C           1.5922  -15.5215  -46.6409 C.2       1 UNK         0.5000 
     66 O           2.1544  -15.0177  -45.6682 O.2       1 UNK        -0.5000 
     67 C          -1.2368  -22.4950  -46.1213 C.2       11 UNK         0.5000 
     68 O          -1.2844  -23.1138  -47.1806 O.2       11 UNK        -0.5000 
     69 N          -2.2606  -21.7578  -45.6599 N.am      12 UNK        -0.5000 
     70 CA         -3.5344  -21.5439  -46.3555 C.3       12 UNK         0.1400 
     71 CB         -4.3321  -20.4576  -45.6189 C.3       12 UNK        -0.1800 
     72 C          -4.3912  -22.8155  -46.5626 C.2       12 UNK         0.5000 
     73 O          -5.3995  -22.7543  -47.2650 O.2       12 UNK        -0.5000 
     74 N          -3.9842  -23.9476  -45.9751 N.am      13 UNK        -0.5000 
     75 CA         -4.5376  -25.2714  -46.2573 C.3       13 UNK         0.1400 
     76 CB         -4.2456  -26.1836  -45.0551 C.3       13 UNK        -0.1800 
     77 C          -3.9808  -25.8966  -47.5572 C.2       13 UNK         0.5000 
     78 O          -4.5004  -26.9267  -47.9890 O.2       13 UNK        -0.5000 
     79 N          -2.9297  -25.3041  -48.1395 N.am      14 UNK        -0.5000 
     80 CA         -2.1796  -25.8227  -49.2795 C.3       14 UNK         0.1400 
     81 CB         -0.8909  -26.4742  -48.7409 C.3       14 UNK        -0.1800 
     82 C          -1.8674  -24.7033  -50.2912 C.2       14 UNK         0.5000 
     83 O          -2.3100  -23.5635  -50.1257 O.2       14 UNK        -0.5000 
     84 N          -1.0985  -25.0652  -51.3289 N.am      15 UNK        -0.5000 
     85 CA         -0.5259  -24.1947  -52.3605 C.3       15 UNK         0.1400 
     86 CB          0.6108  -23.3439  -51.7517 C.3       15 UNK        -0.1800 
     87 C          -1.5928  -23.3715  -53.1132 C.2       15 UNK         0.5000 
     88 O          -2.6078  -23.9344  -53.5294 O.2       15 UNK        -0.5000 
     89 N          -1.3547  -22.0624  -53.2769 N.am      16 UNK        -0.5000 
     90 CA         -2.2277  -21.1231  -53.9823 C.3       16 UNK         0.1400 
     91 CB         -1.5663  -19.7368  -54.0104 C.3       16 UNK        -0.1800 
     92 C          -3.6453  -21.0334  -53.3916 C.2       16 UNK         0.5000 
     93 O          -4.6047  -20.8952  -54.1484 O.2       16 UNK        -0.5000 
     94 N          -3.7599  -21.1586  -52.0625 N.am      17 UNK        -0.5000 
     95 CA         -5.0348  -21.1395  -51.3468 C.3       17 UNK         0.1400 
     96 CB         -4.7738  -20.9639  -49.8502 C.3       17 UNK        -0.1800 
     97 C          -5.8956  -22.3855  -51.6096 C.2       17 UNK         0.5000 
     98 O          -7.1205  -22.2719  -51.6508 O.2       17 UNK        -0.5000 
     99 N          -5.2467  -23.5395  -51.8131 N.am      18 UNK        -0.5000 
    100 CA        -5.9067  -24.7745  -52.2328 C.3       18 UNK         0.1400 
    101 CB        -5.0120  -25.9779  -51.9044 C.3       18 UNK        -0.1800 
    102 C         -6.2744  -24.7456  -53.7274 C.2       18 UNK         0.5000 
    103 O         -7.3152  -25.2864  -54.1031 O.2       18 UNK        -0.5000 
    104 N         -5.4243  -24.1110  -54.5477 N.am      19 UNK        -0.5000 
    105 CA        -5.6286  -23.9415  -55.9858 C.3       19 UNK         0.1400 
    106 CB        -4.3232  -23.4662  -56.6418 C.3       19 UNK        -0.1800 
    107 C         -6.7914  -22.9878  -56.3201 C.2       19 UNK         0.5000 
    108 O         -7.6105  -23.3206  -57.1783 O.2       19 UNK        -0.5000 
    109 N         -6.8529  -21.8336  -55.6424 N.am      20 UNK        -0.5000 
    110 CA        -7.8898  -20.8217  -55.8324 C.3       20 UNK         0.1400 
    111 CB        -7.6091  -19.9872  -57.0988 C.3       20 UNK        -0.1800 
    112 C         -8.0283  -19.9411  -54.5828 C.2       20 UNK         0.5000 
    113 O         -9.0393  -20.0288  -53.8850 O.2       20 UNK        -0.5000 
    114 N         -7.0189  -19.1025  -54.3295 N.am      21 UNK        -0.5000 
    115 CA        -6.9458  -18.1481  -53.2288 C.3       21 UNK         0.1400 
    116 CB        -7.8545  -16.9363  -53.5064 C.3       21 UNK        -0.1800 
    117 C         -5.4846  -17.7059  -53.0709 C.2       21 UNK         0.5000 
    118 O         -4.7479  -17.6788  -54.0601 O.2       21 UNK        -0.5000 
    119 N         -5.0918  -17.3721  -51.8360 N.am      22 UNK        -0.5000 
    120 CA        -3.7487  -16.8791  -51.5009 C.3       22 UNK         0.1400 
    121 C         -3.4980  -15.4572  -52.0763 C.2       22 UNK         0.5000 
    122 N         -2.4514  -15.2685  -52.8683 N.am      22 UNK        -0.7600 
    123 O         -4.2399  -14.5206  -51.7896 O.2       22 UNK        -0.5000 
    124 C124       -3.4986  -16.9412  -49.9689 C.3       23 UNK        -0.0398 
    125 S125       -1.7335  -17.1222  -49.5473 S.3       23 UNK        -0.2404 
    126 C126       -1.5078  -18.9182  -49.7477 C.3       23 UNK        -0.0205 
    127 H127       -1.8347  -13.9577  -49.8237 H         1 UNK         0.0600 
    128 H128       -0.5534  -14.4547  -50.9358 H         1 UNK         0.0600 
    129 H129       -0.7128  -12.7580  -50.4738 H         1 UNK         0.0600 
    130 H130        1.0979  -15.5045  -49.8766 H         1 UNK         0.3000 
    131 H131        2.7082  -14.3177  -48.0054 H         1 UNK         0.0600 
    132 H132        4.0302  -16.2880  -47.9798 H         1 UNK         0.0800 
    133 H133        2.6726  -17.3459  -48.1791 H         1 UNK         0.0800 
    134 H134        3.5567  -18.4144  -51.6873 H         1 UNK         0.0800 
    135 H135        4.4333  -18.6170  -50.1913 H         1 UNK         0.0800 
    136 H136        0.7958  -17.6922  -50.6797 H         1 UNK         0.1150 
    137 H137       -0.5959  -21.2107  -48.6795 H         1 UNK         0.1150 
    138 H138        3.5909  -20.6689  -49.3722 H         1 UNK         0.1150 
    139 H139        0.9089  -23.0819  -48.4105 H         1 UNK         0.0800 
    140 H140        2.5314  -22.9675  -49.0056 H         1 UNK         0.0800 
    141 H141        0.7506  -20.7636  -46.2127 H         1 UNK         0.0800 
    142 H142        1.6593  -21.2424  -44.8237 H         1 UNK         0.0800 
    143 H143        0.3835  -23.6397  -45.3513 H         1 UNK         0.0600 
    144 H144        0.0096  -21.6211  -43.3578 H         1 UNK         0.3000 
    145 H145       -2.4465  -23.2712  -41.4741 H         1 UNK         0.0600 
    146 H146       -0.8021  -23.6929  -39.6602 H         1 UNK         0.0600 
    147 H147       -0.6472  -24.9161  -40.9100 H         1 UNK         0.0600 
    148 H148        0.5305  -23.6122  -40.8138 H         1 UNK         0.0600 
    149 H149       -0.4787  -21.3787  -40.6619 H         1 UNK         0.3000 
    150 H150       -1.7180  -18.4875  -42.2094 H         1 UNK         0.0600 
    151 H151       -2.0450  -19.2889  -39.2665 H         1 UNK         0.0600 
    152 H152       -3.3320  -18.6985  -40.3114 H         1 UNK         0.0600 
    153 H153       -1.9930  -17.6411  -39.8958 H         1 UNK         0.0600 
    154 H154        0.2328  -18.8356  -40.1808 H         1 UNK         0.3000 
    155 H155        2.4834  -18.5783  -40.8004 H         1 UNK         0.0600 
    156 H156        2.5560  -21.5433  -41.6162 H         1 UNK         0.0600 
    157 H157        2.0318  -20.9243  -40.0548 H         1 UNK         0.0600 
    158 H158        3.7082  -20.7503  -40.5420 H         1 UNK         0.0600 
    159 H159        3.8187  -19.9245  -42.9698 H         1 UNK         0.3000 
    160 H160        5.2896  -18.4127  -44.2236 H         1 UNK         0.0600 
    161 H161        2.7232  -18.3108  -45.9240 H         1 UNK         0.0600 
    162 H162        3.6460  -19.7418  -45.4970 H         1 UNK         0.0600 
    163 H163        4.3365  -18.5627  -46.5958 H         1 UNK         0.0600 
    164 H164        3.7118  -15.9808  -44.8642 H         1 UNK         0.3000 
    165 H165        6.5066  -13.9466  -44.3578 H         1 UNK         0.0600 
    166 H166        5.6718  -12.7449  -46.3683 H         1 UNK         0.0600 
    167 H167        6.5985  -14.1615  -46.8411 H         1 UNK         0.0600 
    168 H168        4.8420  -14.1968  -46.9214 H         1 UNK         0.0600 
    169 H169        3.5927  -13.8154  -44.8376 H         1 UNK         0.3000 
    170 H170        2.3365  -14.4752  -42.2913 H         1 UNK         0.0600 
    171 H171        3.1812  -13.3407  -40.3078 H         1 UNK         0.0600 
    172 H172        3.2526  -11.7955  -41.1379 H         1 UNK         0.0600 
    173 H173        1.6940  -12.5534  -40.8082 H         1 UNK         0.0600 
    174 H174        1.2945  -13.4548  -43.9318 H         1 UNK         0.3000 
    175 H175        0.7160  -10.2365  -44.8906 H         1 UNK         0.0600 
    176 H176        2.7601  -10.3811  -46.3218 H         1 UNK         0.0600 
    177 H177        2.3956  -12.0613  -46.6979 H         1 UNK         0.0600 
    178 H178        1.3213  -10.7769  -47.2485 H         1 UNK         0.0600 
    179 H179        0.0913  -12.7119  -46.1875 H         1 UNK         0.3000 
    180 H180       -2.6400  -13.6335  -44.0708 H         1 UNK         0.0600 
    181 H181       -2.4687  -12.6097  -46.9560 H         1 UNK         0.0600 
    182 H182       -3.5395  -11.9928  -45.7047 H         1 UNK         0.0600 
    183 H183       -3.7422  -13.6345  -46.2971 H         1 UNK         0.0600 
    184 H184       -1.1686  -14.6379  -46.4178 H         1 UNK         0.3000 
    185 H185        0.6272  -17.0755  -44.6274 H         1 UNK         0.0600 
    186 H186       -1.5618  -18.2515  -44.7021 H         1 UNK         0.0600 
    187 H187       -1.8900  -17.5937  -46.3020 H         1 UNK         0.0600 
    188 H188       -0.5619  -18.7275  -46.0626 H         1 UNK         0.0600 
    189 H189        0.1116  -16.6641  -47.4220 H         1 UNK         0.3000 
    190 H190       -2.1757  -21.3278  -44.7479 H         1 UNK         0.3000 
    191 H191       -3.2901  -21.1619  -47.3475 H         1 UNK         0.0600 
    192 H192       -3.7492  -19.5434  -45.5063 H         1 UNK         0.0600 
    193 H193       -5.2380  -20.1977  -46.1680 H         1 UNK         0.0600 
    194 H194       -4.6356  -20.7889  -44.6254 H         1 UNK         0.0600 
    195 H195       -3.1525  -23.9221  -45.4002 H         1 UNK         0.3000 
    196 H196       -5.6210  -25.1913  -46.3678 H         1 UNK         0.0600 
    197 H197       -4.6848  -27.1720  -45.1964 H         1 UNK         0.0600 
    198 H198       -4.6626  -25.7718  -44.1359 H         1 UNK         0.0600 
    199 H199       -3.1736  -26.3187  -44.9055 H         1 UNK         0.0600 
    200 H200       -2.5718  -24.4269  -47.7697 H         1 UNK         0.3000 
    201 H201       -2.7633  -26.5794  -49.8059 H         1 UNK         0.0600 
    202 H202       -0.3207  -26.9600  -49.5328 H         1 UNK         0.0600 
    203 H203       -1.1182  -27.2396  -47.9986 H         1 UNK         0.0600 
    204 H204       -0.2400  -25.7367  -48.2686 H         1 UNK         0.0600 
    205 H205       -0.8363  -26.0373  -51.4044 H         1 UNK         0.3000 
    206 H206       -0.0802  -24.8556  -53.1050 H         1 UNK         0.0600 
    207 H207        1.3353  -23.9729  -51.2346 H         1 UNK         0.0600 
    208 H208        1.1588  -22.7959  -52.5190 H         1 UNK         0.0600 
    209 H209        0.2285  -22.6226  -51.0302 H         1 UNK         0.0600 
    210 H210       -0.5000  -21.6828  -52.8969 H         1 UNK         0.3000 
    211 H211       -2.3226  -21.4731  -55.0113 H         1 UNK         0.0600 
    212 H212       -1.3717  -19.3589  -53.0070 H         1 UNK         0.0600 
    213 H213       -2.2033  -19.0100  -54.5169 H         1 UNK         0.0600 
    214 H214       -0.6176  -19.7642  -54.5466 H         1 UNK         0.0600 
    215 H215       -2.9327  -21.3603  -51.5186 H         1 UNK         0.3000 
    216 H216       -5.6056  -20.2776  -51.6897 H         1 UNK         0.0600 
    217 H217       -5.7087  -20.9503  -49.2886 H         1 UNK         0.0600 
    218 H218       -4.2608  -20.0288  -49.6445 H         1 UNK         0.0600 
    219 H219       -4.1634  -21.7782  -49.4619 H         1 UNK         0.0600 
    220 H220       -4.2357  -23.5449  -51.7754 H         1 UNK         0.3000 
    221 H221       -6.8337  -24.8866  -51.6662 H         1 UNK         0.0600 
    222 H222       -4.0414  -25.9113  -52.3962 H         1 UNK         0.0600 
    223 H223       -4.8458  -26.0534  -50.8304 H         1 UNK         0.0600 
    224 H224       -5.4789  -26.9101  -52.2247 H         1 UNK         0.0600 
    225 H225       -4.5576  -23.7529  -54.1621 H         1 UNK         0.3000 
    226 H226       -5.8718  -24.9211  -56.4027 H         1 UNK         0.0600 
    227 H227       -4.4268  -23.4275  -57.7268 H         1 UNK         0.0600 
    228 H228       -4.0428  -22.4685  -56.3068 H         1 UNK         0.0600 
    229 H229       -3.4973  -24.1413  -56.4165 H         1 UNK         0.0600 
    230 H230       -6.1262  -21.6128  -54.9638 H         1 UNK         0.3000 
    231 H231       -8.8495  -21.3261  -55.9657 H         1 UNK         0.0600 
    232 H232       -6.6107  -19.5490  -57.0834 H         1 UNK         0.0600 
    233 H233       -8.3270  -19.1720  -57.1976 H         1 UNK         0.0600 
    234 H234       -7.6888  -20.5967  -57.9989 H         1 UNK         0.0600 
    235 H235       -6.1817  -19.1326  -54.9006 H         1 UNK         0.3000 
    236 H236       -7.2683  -18.6419  -52.3100 H         1 UNK         0.0600 
    237 H237       -8.9019  -17.2296  -53.5760 H         1 UNK         0.0600 
    238 H238       -7.7788  -16.1988  -52.7064 H         1 UNK         0.0600 
    239 H239       -7.5834  -16.4391  -54.4386 H         1 UNK         0.0600 
    240 H240       -5.7697  -17.3639  -51.0883 H         1 UNK         0.3000 
    241 H241       -3.0502  -17.5661  -51.9826 H         1 UNK         0.0600 
    242 H242       -1.8420  -16.0274  -53.1281 H         1 UNK         0.3800 
    243 H243       -2.2842  -14.3489  -53.2446 H         1 UNK         0.3800 
    244 H244       -3.8906  -16.0542  -49.4678 H         1 UNK         0.0800 
    245 H245       -4.0317  -17.7795  -49.5224 H         1 UNK         0.0800 
    246 H246       -1.9049  -19.2357  -50.7106 H         1 UNK         0.0800 
    247 H247       -2.1031  -19.4152  -48.9807 H         1 UNK         0.0800 
@<TRIPOS>BOND
     1    1    2 1    
     2    1  127 1    
     3    1  128 1    
     4    1  129 1    
     5    2    3 2    
     6    2    4 am   BACKBONE|DICT|INTERRES
     7    4    5 1    
     8    4  130 1    
     9    5    6 1    
    10    5   65 1    
    11    5  131 1    
    12    6    7 1    
    13    6  132 1    
    14    6  133 1    
    15    7    8 1    
    16    8    9 1    
    17    8  134 1    
    18    8  135 1    
    19    9   10 ar   
    20    9   14 ar   
    21   10   11 ar   
    22   10  136 1    
    23   11   12 ar   
    24   11  126 1    
    25   12   13 ar   
    26   12  137 1    
    27   13   14 ar   
    28   13   15 1    
    29   14  138 1    
    30   15   16 1    
    31   15  139 1    
    32   15  140 1    
    33   16   17 1    
    34   17   18 1    
    35   17  141 1    
    36   17  142 1    
    37   18   19 1    
    38   18   67 1    
    39   18  143 1    
    40   19   20 am   BACKBONE|DICT|INTERRES
    41   19  144 1    
    42   20   21 2    
    43   20   22 1    
    44   22   23 1    
    45   22   24 1    
    46   22  145 1    
    47   23  146 1    
    48   23  147 1    
    49   23  148 1    
    50   24   25 am   BACKBONE|DICT|INTERRES
    51   24  149 1    
    52   25   26 2    
    53   25   27 1    
    54   27   28 1    
    55   27   29 1    
    56   27  150 1    
    57   28  151 1    
    58   28  152 1    
    59   28  153 1    
    60   29   30 am   BACKBONE|DICT|INTERRES
    61   29  154 1    
    62   30   31 2    
    63   30   32 1    
    64   32   33 1    
    65   32   34 1    
    66   32  155 1    
    67   33  156 1    
    68   33  157 1    
    69   33  158 1    
    70   34   35 am   BACKBONE|DICT|INTERRES
    71   34  159 1    
    72   35   36 2    
    73   35   37 1    
    74   37   38 1    
    75   37   39 1    
    76   37  160 1    
    77   38  161 1    
    78   38  162 1    
    79   38  163 1    
    80   39   40 am   BACKBONE|DICT|INTERRES
    81   39  164 1    
    82   40   41 2    
    83   40   42 1    
    84   42   43 1    
    85   42   44 1    
    86   42  165 1    
    87   43  166 1    
    88   43  167 1    
    89   43  168 1    
    90   44   45 am   BACKBONE|DICT|INTERRES
    91   44  169 1    
    92   45   46 2    
    93   45   47 1    
    94   47   48 1    
    95   47   49 1    
    96   47  170 1    
    97   48  171 1    
    98   48  172 1    
    99   48  173 1    
   100   49   50 am   BACKBONE|DICT|INTERRES
   101   49  174 1    
   102   50   51 2    
   103   50   52 1    
   104   52   53 1    
   105   52   54 1    
   106   52  175 1    
   107   53  176 1    
   108   53  177 1    
   109   53  178 1    
   110   54   55 am   BACKBONE|DICT|INTERRES
   111   54  179 1    
   112   55   56 2    
   113   55   57 1    
   114   57   58 1    
   115   57   59 1    
   116   57  180 1    
   117   58  181 1    
   118   58  182 1    
   119   58  183 1    
   120   59   60 am   BACKBONE|DICT|INTERRES
   121   59  184 1    
   122   60   61 2    
   123   60   62 1    
   124   62   63 1    
   125   62   64 1    
   126   62  185 1    
   127   63  186 1    
   128   63  187 1    
   129   63  188 1    
   130   64   65 am   BACKBONE|DICT|INTERRES
   131   64  189 1    
   132   65   66 2    
   133   67   68 2    
   134   67   69 am   BACKBONE|DICT|INTERRES
   135   69   70 1    
   136   69  190 1    
   137   70   71 1    
   138   70   72 1    
   139   70  191 1    
   140   71  192 1    
   141   71  193 1    
   142   71  194 1    
   143   72   73 2    
   144   72   74 am   BACKBONE|DICT|INTERRES
   145   74   75 1    
   146   74  195 1    
   147   75   76 1    
   148   75   77 1    
   149   75  196 1    
   150   76  197 1    
   151   76  198 1    
   152   76  199 1    
   153   77   78 2    
   154   77   79 am   BACKBONE|DICT|INTERRES
   155   79   80 1    
   156   79  200 1    
   157   80   81 1    
   158   80   82 1    
   159   80  201 1    
   160   81  202 1    
   161   81  203 1    
   162   81  204 1    
   163   82   83 2    
   164   82   84 am   BACKBONE|DICT|INTERRES
   165   84   85 1    
   166   84  205 1    
   167   85   86 1    
   168   85   87 1    
   169   85  206 1    
   170   86  207 1    
   171   86  208 1    
   172   86  209 1    
   173   87   88 2    
   174   87   89 am   BACKBONE|DICT|INTERRES
   175   89   90 1    
   176   89  210 1    
   177   90   91 1    
   178   90   92 1    
   179   90  211 1    
   180   91  212 1    
   181   91  213 1    
   182   91  214 1    
   183   92   93 2    
   184   92   94 am   BACKBONE|DICT|INTERRES
   185   94   95 1    
   186   94  215 1    
   187   95   96 1    
   188   95   97 1    
   189   95  216 1    
   190   96  217 1    
   191   96  218 1    
   192   96  219 1    
   193   97   98 2    
   194   97   99 am   BACKBONE|DICT|INTERRES
   195   99  100 1    
   196   99  220 1    
   197  100  101 1    
   198  100  102 1    
   199  100  221 1    
   200  101  222 1    
   201  101  223 1    
   202  101  224 1    
   203  102  103 2    
   204  102  104 am   BACKBONE|DICT|INTERRES
   205  104  105 1    
   206  104  225 1    
   207  105  106 1    
   208  105  107 1    
   209  105  226 1    
   210  106  227 1    
   211  106  228 1    
   212  106  229 1    
   213  107  108 2    
   214  107  109 am   BACKBONE|DICT|INTERRES
   215  109  110 1    
   216  109  230 1    
   217  110  111 1    
   218  110  112 1    
   219  110  231 1    
   220  111  232 1    
   221  111  233 1    
   222  111  234 1    
   223  112  113 2    
   224  112  114 am   BACKBONE|DICT|INTERRES
   225  114  115 1    
   226  114  235 1    
   227  115  116 1    
   228  115  117 1    
   229  115  236 1    
   230  116  237 1    
   231  116  238 1    
   232  116  239 1    
   233  117  118 2    
   234  117  119 am   BACKBONE|DICT|INTERRES
   235  119  120 1    
   236  119  240 1    
   237  120  121 1    
   238  120  124 1    
   239  120  241 1    
   240  121  122 am   BACKBONE|DICT|INTERRES
   241  121  123 2    
   242  122  242 1    
   243  122  243 1    
   244  124  125 1    
   245  124  244 1    
   246  124  245 1    
   247  125  126 1    
   248  126  246 1    
   249  126  247 1    
@<TRIPOS>SUBSTRUCTURE
     1 UNK         1 GROUP             0       ****    0 ROOT    
