@<TRIPOS>MOLECULE
3R540
247   249    1
SMALL
USER_CHARGES


@<TRIPOS>ATOM
      1 CA         -6.7511  -17.4512  -43.6293 C.3       0 UNK        -0.1800 
      2 C          -6.3169  -16.1402  -44.2686 C.2       0 UNK         0.5000 
      3 O          -6.7606  -15.0712  -43.8466 O.2       0 UNK        -0.5000 
      4 N          -5.4466  -16.2149  -45.2833 N.am      1 UNK        -0.5000 
      5 CA         -4.8899  -15.0777  -46.0240 C.3       1 UNK         0.1400 
      6 C6         -4.4207  -15.5266  -47.4322 C.3       23 UNK        -0.0398 
      7 S7         -4.1849  -14.1417  -48.6040 S.3       23 UNK        -0.2404 
      8 C8         -2.3966  -14.2191  -48.9584 C.3       23 UNK        -0.0205 
      9 C9         -2.0569  -15.2770  -49.9999 C.ar      23 UNK        -0.0193 
     10 C10        -1.8951  -14.9261  -51.3453 C.ar      23 UNK        -0.1150 
     11 C11        -1.5656  -15.8972  -52.2984 C.ar      23 UNK        -0.0193 
     12 C12        -1.4219  -17.2272  -51.8999 C.ar      23 UNK        -0.1150 
     13 C13        -1.5700  -17.5873  -50.5602 C.ar      23 UNK        -0.0193 
     14 C14        -1.8768  -16.6082  -49.6164 C.ar      23 UNK        -0.1150 
     15 C15        -1.3992  -19.0333  -50.1365 C.3       23 UNK        -0.0205 
     16 S16        -2.9970  -19.8976  -50.1449 S.3       23 UNK        -0.2404 
     17 C17        -3.5537  -19.7045  -48.4248 C.3       23 UNK        -0.0398 
     18 CA         -3.2131  -20.9725  -47.6100 C.3       11 UNK         0.1400 
     19 N          -1.7990  -21.0345  -47.2279 N.am      11 UNK        -0.5000 
     20 C          -1.1728  -22.1682  -46.8794 C.2       10 UNK         0.5000 
     21 O          -1.7271  -23.2645  -46.8538 O.2       10 UNK        -0.5000 
     22 CA          0.2965  -22.0616  -46.4290 C.3       10 UNK         0.1400 
     23 CB          1.2326  -22.1218  -47.6446 C.3       10 UNK        -0.1800 
     24 N           0.5791  -20.8512  -45.6589 N.am      10 UNK        -0.5000 
     25 C          -0.0602  -20.4802  -44.5409 C.2       9 UNK         0.5000 
     26 O          -0.9153  -21.1688  -43.9856 O.2       9 UNK        -0.5000 
     27 CA          0.2534  -19.0820  -43.9824 C.3       9 UNK         0.1400 
     28 CB          1.2850  -19.1756  -42.8501 C.3       9 UNK        -0.1800 
     29 N           0.7312  -18.1360  -44.9930 N.am      9 UNK        -0.5000 
     30 C           0.0501  -17.7229  -46.0724 C.2       8 UNK         0.5000 
     31 O          -1.0806  -18.1161  -46.3639 O.2       8 UNK        -0.5000 
     32 CA          0.7907  -16.7460  -47.0008 C.3       8 UNK         0.1400 
     33 CB          0.8006  -15.3230  -46.4210 C.3       8 UNK        -0.1800 
     34 N           2.1638  -17.1864  -47.2328 N.am      8 UNK        -0.5000 
     35 C           2.5158  -18.1237  -48.1235 C.2       7 UNK         0.5000 
     36 O           1.7244  -18.6739  -48.8873 O.2       7 UNK        -0.5000 
     37 CA          4.0020  -18.5281  -48.1563 C.3       7 UNK         0.1400 
     38 CB          4.7663  -17.6740  -49.1791 C.3       7 UNK        -0.1800 
     39 N           4.6585  -18.4179  -46.8515 N.am      7 UNK        -0.5000 
     40 C           4.3829  -19.1950  -45.7945 C.2       6 UNK         0.5000 
     41 O           3.5572  -20.1074  -45.8126 O.2       6 UNK        -0.5000 
     42 CA          5.1194  -18.8602  -44.4823 C.3       6 UNK         0.1400 
     43 CB          6.4859  -19.5604  -44.4389 C.3       6 UNK        -0.1800 
     44 N           5.3022  -17.4222  -44.2483 N.am      6 UNK        -0.5000 
     45 C           4.3094  -16.5264  -44.1736 C.2       5 UNK         0.5000 
     46 O           3.1217  -16.8052  -44.3610 O.2       5 UNK        -0.5000 
     47 CA          4.7033  -15.0735  -43.8801 C.3       5 UNK         0.1400 
     48 CB          5.2924  -14.3981  -45.1303 C.3       5 UNK        -0.1800 
     49 N           3.5013  -14.3622  -43.4643 N.am      5 UNK        -0.5000 
     50 C           3.4366  -13.3345  -42.6139 C.2       4 UNK         0.5000 
     51 O           4.4265  -12.8076  -42.1042 O.2       4 UNK        -0.5000 
     52 CA          2.0305  -12.7965  -42.2753 C.3       4 UNK         0.1400 
     53 CB          1.7751  -11.4667  -43.0021 C.3       4 UNK        -0.1800 
     54 N           0.9409  -13.7206  -42.6054 N.am      4 UNK        -0.5000 
     55 C           0.6372  -14.8366  -41.9269 C.2       3 UNK         0.5000 
     56 O           1.2828  -15.2410  -40.9591 O.2       3 UNK        -0.5000 
     57 CA         -0.5964  -15.6199  -42.4282 C.3       3 UNK         0.1400 
     58 CB         -1.1616  -16.6081  -41.3867 C.3       3 UNK        -0.1800 
     59 N          -1.6562  -14.7510  -42.9520 N.am      3 UNK        -0.5000 
     60 C          -2.3472  -13.8073  -42.2975 C.2       2 UNK         0.5000 
     61 O          -2.2008  -13.5558  -41.1012 O.2       2 UNK        -0.5000 
     62 CA         -3.3731  -12.9899  -43.1114 C.3       2 UNK         0.1400 
     63 CB         -2.6910  -11.7813  -43.7829 C.3       2 UNK        -0.1800 
     64 N          -4.1706  -13.7549  -44.0833 N.am      2 UNK        -0.5000 
     65 C          -3.7780  -14.3903  -45.1966 C.2       1 UNK         0.5000 
     66 O          -2.5995  -14.4857  -45.5406 O.2       1 UNK        -0.5000 
     67 C          -4.1477  -21.1184  -46.3974 C.2       11 UNK         0.5000 
     68 O          -5.2259  -21.6913  -46.5504 O.2       11 UNK        -0.5000 
     69 N          -3.7264  -20.6399  -45.2195 N.am      12 UNK        -0.5000 
     70 CA         -4.4555  -20.8405  -43.9664 C.3       12 UNK         0.1400 
     71 CB         -3.9264  -19.8710  -42.8966 C.3       12 UNK        -0.1800 
     72 C          -4.3735  -22.3047  -43.4931 C.2       12 UNK         0.5000 
     73 O          -5.3776  -22.8566  -43.0429 O.2       12 UNK        -0.5000 
     74 N          -3.1859  -22.9091  -43.6316 N.am      13 UNK        -0.5000 
     75 CA         -2.9011  -24.2935  -43.2621 C.3       13 UNK         0.1400 
     76 CB         -1.3786  -24.5005  -43.2202 C.3       13 UNK        -0.1800 
     77 C          -3.5642  -25.3211  -44.1981 C.2       13 UNK         0.5000 
     78 O          -4.2054  -26.2542  -43.7132 O.2       13 UNK        -0.5000 
     79 N          -3.3889  -25.1452  -45.5155 N.am      14 UNK        -0.5000 
     80 CA         -3.8006  -26.1085  -46.5419 C.3       14 UNK         0.1400 
     81 CB         -2.7294  -26.1490  -47.6470 C.3       14 UNK        -0.1800 
     82 C          -5.1941  -25.8233  -47.1366 C.2       14 UNK         0.5000 
     83 O          -5.5818  -26.5059  -48.0850 O.2       14 UNK        -0.5000 
     84 N          -5.9165  -24.8313  -46.5933 N.am      15 UNK        -0.5000 
     85 CA         -7.2643  -24.4002  -46.9888 C.3       15 UNK         0.1400 
     86 CB         -8.3054  -25.4954  -46.6750 C.3       15 UNK        -0.1800 
     87 C          -7.3161  -23.9118  -48.4526 C.2       15 UNK         0.5000 
     88 O          -8.0661  -24.4448  -49.2725 O.2       15 UNK        -0.5000 
     89 N          -6.4818  -22.9043  -48.7381 N.am      16 UNK        -0.5000 
     90 CA         -6.3252  -22.1811  -50.0059 C.3       16 UNK         0.1400 
     91 CB         -7.6365  -21.4759  -50.4086 C.3       16 UNK        -0.1800 
     92 C          -5.7226  -23.0005  -51.1668 C.2       16 UNK         0.5000 
     93 O          -5.6964  -22.5080  -52.2948 O.2       16 UNK        -0.5000 
     94 N          -5.2023  -24.2071  -50.8952 N.am      17 UNK        -0.5000 
     95 CA         -4.5819  -25.0784  -51.9018 C.3       17 UNK         0.1400 
     96 CB         -4.3278  -26.4632  -51.2878 C.3       17 UNK        -0.1800 
     97 C          -3.2785  -24.5060  -52.4995 C.2       17 UNK         0.5000 
     98 O          -2.9450  -24.8167  -53.6433 O.2       17 UNK        -0.5000 
     99 N          -2.5793  -23.6639  -51.7261 N.am      18 UNK        -0.5000 
    100 CA        -1.3387  -22.9907  -52.1157 C.3       18 UNK         0.1400 
    101 CB        -0.5122  -22.7147  -50.8477 C.3       18 UNK        -0.1800 
    102 C         -1.5613  -21.7008  -52.9359 C.2       18 UNK         0.5000 
    103 O         -0.5788  -21.0504  -53.3003 O.2       18 UNK        -0.5000 
    104 N         -2.8231  -21.3362  -53.2210 N.am      19 UNK        -0.5000 
    105 CA        -3.1996  -20.1021  -53.9225 C.3       19 UNK         0.1400 
    106 CB        -4.7267  -19.9468  -53.9206 C.3       19 UNK        -0.1800 
    107 C         -2.6474  -20.0061  -55.3562 C.2       19 UNK         0.5000 
    108 O         -2.3598  -18.9050  -55.8267 O.2       19 UNK        -0.5000 
    109 N         -2.4830  -21.1649  -56.0078 N.am      20 UNK        -0.5000 
    110 CA        -1.8758  -21.2978  -57.3312 C.3       20 UNK         0.1400 
    111 CB        -2.2334  -22.6789  -57.9017 C.3       20 UNK        -0.1800 
    112 C         -0.3465  -21.0996  -57.3205 C.2       20 UNK         0.5000 
    113 O          0.2186  -20.7595  -58.3609 O.2       20 UNK        -0.5000 
    114 N          0.2963  -21.3232  -56.1651 N.am      21 UNK        -0.5000 
    115 CA         1.7330  -21.1438  -55.9737 C.3       21 UNK         0.1400 
    116 CB         2.2514  -22.1428  -54.9246 C.3       21 UNK        -0.1800 
    117 C          2.0466  -19.6939  -55.5762 C.2       21 UNK         0.5000 
    118 O          2.8343  -19.0396  -56.2605 O.2       21 UNK        -0.5000 
    119 N          1.4114  -19.2158  -54.4942 N.am      22 UNK        -0.5000 
    120 CA         1.5680  -17.8514  -53.9515 C.3       22 UNK         0.1400 
    121 C          3.0133  -17.5142  -53.4571 C.2       22 UNK         0.5000 
    122 N          3.8041  -18.4998  -53.0470 N.am      22 UNK        -0.7600 
    123 O          3.4301  -16.3597  -53.4279 O.2       22 UNK        -0.5000 
    124 C124        0.9435  -16.7907  -54.9072 C.3       23 UNK        -0.0398 
    125 S125        0.4151  -15.2314  -54.1056 S.3       23 UNK        -0.2404 
    126 C126       -1.3525  -15.5133  -53.7543 C.3       23 UNK        -0.0205 
    127 H127       -6.4363  -18.3114  -44.2208 H         1 UNK         0.0600 
    128 H128       -7.8375  -17.4842  -43.5385 H         1 UNK         0.0600 
    129 H129       -6.3208  -17.5429  -42.6318 H         1 UNK         0.0600 
    130 H130       -5.0976  -17.1217  -45.5575 H         1 UNK         0.3000 
    131 H131       -5.6885  -14.3453  -46.1631 H         1 UNK         0.0600 
    132 H132       -5.1721  -16.1794  -47.8793 H         1 UNK         0.0800 
    133 H133       -3.5205  -16.1317  -47.3493 H         1 UNK         0.0800 
    134 H134       -1.8392  -14.4051  -48.0406 H         1 UNK         0.0800 
    135 H135       -2.0719  -13.2390  -49.3102 H         1 UNK         0.0800 
    136 H136       -2.0141  -13.8953  -51.6491 H         1 UNK         0.1150 
    137 H137       -1.1786  -17.9814  -52.6321 H         1 UNK         0.1150 
    138 H138       -1.9690  -16.8915  -48.5810 H         1 UNK         0.1150 
    139 H139       -0.7155  -19.5408  -50.8188 H         1 UNK         0.0800 
    140 H140       -0.9365  -19.0910  -49.1508 H         1 UNK         0.0800 
    141 H141       -4.6315  -19.5341  -48.4651 H         1 UNK         0.0800 
    142 H142       -3.1259  -18.8108  -47.9713 H         1 UNK         0.0800 
    143 H143       -3.4217  -21.8404  -48.2407 H         1 UNK         0.0600 
    144 H144       -1.3031  -20.1538  -47.1633 H         1 UNK         0.3000 
    145 H145        0.5108  -22.9175  -45.7862 H         1 UNK         0.0600 
    146 H146        2.2792  -22.0952  -47.3404 H         1 UNK         0.0600 
    147 H147        1.0823  -23.0444  -48.2064 H         1 UNK         0.0600 
    148 H148        1.0605  -21.2888  -48.3274 H         1 UNK         0.0600 
    149 H149        1.3240  -20.2578  -46.0020 H         1 UNK         0.3000 
    150 H150       -0.6756  -18.6828  -43.5715 H         1 UNK         0.0600 
    151 H151        0.9150  -19.8003  -42.0359 H         1 UNK         0.0600 
    152 H152        1.5100  -18.1941  -42.4323 H         1 UNK         0.0600 
    153 H153        2.2204  -19.6122  -43.1997 H         1 UNK         0.0600 
    154 H154        1.6573  -17.7453  -44.8312 H         1 UNK         0.3000 
    155 H155        0.2696  -16.7154  -47.9572 H         1 UNK         0.0600 
    156 H156        1.2820  -15.2776  -45.4452 H         1 UNK         0.0600 
    157 H157       -0.2136  -14.9483  -46.2993 H         1 UNK         0.0600 
    158 H158        1.3213  -14.6318  -47.0840 H         1 UNK         0.0600 
    159 H159        2.8663  -16.8319  -46.5993 H         1 UNK         0.3000 
    160 H160        4.0519  -19.5715  -48.4755 H         1 UNK         0.0600 
    161 H161        4.7790  -16.6208  -48.8956 H         1 UNK         0.0600 
    162 H162        4.3054  -17.7416  -50.1655 H         1 UNK         0.0600 
    163 H163        5.7990  -18.0085  -49.2800 H         1 UNK         0.0600 
    164 H164        5.3501  -17.6903  -46.7468 H         1 UNK         0.3000 
    165 H165        4.5162  -19.2499  -43.6606 H         1 UNK         0.0600 
    166 H166        6.9721  -19.4177  -43.4736 H         1 UNK         0.0600 
    167 H167        6.3791  -20.6355  -44.5906 H         1 UNK         0.0600 
    168 H168        7.1567  -19.1845  -45.2125 H         1 UNK         0.0600 
    169 H169        6.2515  -17.1120  -44.0969 H         1 UNK         0.3000 
    170 H170        5.4366  -15.0706  -43.0709 H         1 UNK         0.0600 
    171 H171        6.1974  -14.9064  -45.4649 H         1 UNK         0.0600 
    172 H172        4.5846  -14.4025  -45.9604 H         1 UNK         0.0600 
    173 H173        5.5611  -13.3613  -44.9274 H         1 UNK         0.0600 
    174 H174        2.6417  -14.7899  -43.7802 H         1 UNK         0.3000 
    175 H175        2.0046  -12.6082  -41.1999 H         1 UNK         0.0600 
    176 H176        1.7785  -11.5936  -44.0854 H         1 UNK         0.0600 
    177 H177        0.8138  -11.0387  -42.7164 H         1 UNK         0.0600 
    178 H178        2.5423  -10.7316  -42.7554 H         1 UNK         0.0600 
    179 H179        0.3499  -13.4589  -43.3806 H         1 UNK         0.3000 
    180 H180       -0.2457  -16.2040  -43.2776 H         1 UNK         0.0600 
    181 H181       -2.0056  -17.1665  -41.7919 H         1 UNK         0.0600 
    182 H182       -1.4994  -16.0971  -40.4849 H         1 UNK         0.0600 
    183 H183       -0.4084  -17.3358  -41.0840 H         1 UNK         0.0600 
    184 H184       -1.8569  -14.8363  -43.9474 H         1 UNK         0.3000 
    185 H185       -4.0939  -12.5977  -42.3914 H         1 UNK         0.0600 
    186 H186       -3.4205  -11.1480  -44.2879 H         1 UNK         0.0600 
    187 H187       -2.1805  -11.1618  -43.0439 H         1 UNK         0.0600 
    188 H188       -1.9463  -12.0873  -44.5190 H         1 UNK         0.0600 
    189 H189       -5.1558  -13.8421  -43.8505 H         1 UNK         0.3000 
    190 H190       -2.8074  -20.2258  -45.1563 H         1 UNK         0.3000 
    191 H191       -5.5080  -20.6061  -44.1397 H         1 UNK         0.0600 
    192 H192       -4.5202  -19.9413  -41.9844 H         1 UNK         0.0600 
    193 H193       -3.9766  -18.8369  -43.2382 H         1 UNK         0.0600 
    194 H194       -2.8919  -20.0831  -42.6272 H         1 UNK         0.0600 
    195 H195       -2.3978  -22.3537  -43.9539 H         1 UNK         0.3000 
    196 H196       -3.2899  -24.4609  -42.2551 H         1 UNK         0.0600 
    197 H197       -0.9191  -24.3153  -44.1920 H         1 UNK         0.0600 
    198 H198       -0.9106  -23.8306  -42.4984 H         1 UNK         0.0600 
    199 H199       -1.1296  -25.5213  -42.9269 H         1 UNK         0.0600 
    200 H200       -2.8346  -24.3586  -45.8481 H         1 UNK         0.3000 
    201 H201       -3.8447  -27.1064  -46.0987 H         1 UNK         0.0600 
    202 H202       -2.7515  -25.2511  -48.2671 H         1 UNK         0.0600 
    203 H203       -2.8827  -27.0067  -48.3026 H         1 UNK         0.0600 
    204 H204       -1.7272  -26.2437  -47.2273 H         1 UNK         0.0600 
    205 H205       -5.4904  -24.3046  -45.8433 H         1 UNK         0.3000 
    206 H206       -7.5052  -23.5362  -46.3669 H         1 UNK         0.0600 
    207 H207       -8.2656  -25.7868  -45.6250 H         1 UNK         0.0600 
    208 H208       -9.3167  -25.1385  -46.8748 H         1 UNK         0.0600 
    209 H209       -8.1513  -26.3913  -47.2773 H         1 UNK         0.0600 
    210 H210       -5.9407  -22.5334  -47.9581 H         1 UNK         0.3000 
    211 H211       -5.5966  -21.3979  -49.8021 H         1 UNK         0.0600 
    212 H212       -7.4774  -20.8053  -51.2541 H         1 UNK         0.0600 
    213 H213       -8.0278  -20.8728  -49.5891 H         1 UNK         0.0600 
    214 H214       -8.4079  -22.1888  -50.7006 H         1 UNK         0.0600 
    215 H215       -5.2907  -24.5763  -49.9586 H         1 UNK         0.3000 
    216 H216       -5.2932  -25.1980  -52.7232 H         1 UNK         0.0600 
    217 H217       -3.6138  -26.4102  -50.4656 H         1 UNK         0.0600 
    218 H218       -3.9226  -27.1525  -52.0301 H         1 UNK         0.0600 
    219 H219       -5.2500  -26.9033  -50.9061 H         1 UNK         0.0600 
    220 H220       -2.9362  -23.4545  -50.8060 H         1 UNK         0.3000 
    221 H221       -0.7554  -23.6629  -52.7486 H         1 UNK         0.0600 
    222 H222       -0.2552  -23.6448  -50.3395 H         1 UNK         0.0600 
    223 H223       -1.0525  -22.0899  -50.1373 H         1 UNK         0.0600 
    224 H224        0.4249  -22.2082  -51.0850 H         1 UNK         0.0600 
    225 H225       -3.5866  -21.9104  -52.8860 H         1 UNK         0.3000 
    226 H226       -2.7876  -19.2674  -53.3585 H         1 UNK         0.0600 
    227 H227       -5.2167  -20.7802  -54.4254 H         1 UNK         0.0600 
    228 H228       -5.1138  -19.8930  -52.9027 H         1 UNK         0.0600 
    229 H229       -5.0282  -19.0296  -54.4288 H         1 UNK         0.0600 
    230 H230       -2.7516  -22.0190  -55.5401 H         1 UNK         0.3000 
    231 H231       -2.3034  -20.5356  -57.9864 H         1 UNK         0.0600 
    232 H232       -1.8434  -23.4852  -57.2788 H         1 UNK         0.0600 
    233 H233       -1.8196  -22.8075  -58.9029 H         1 UNK         0.0600 
    234 H234       -3.3136  -22.8063  -57.9792 H         1 UNK         0.0600 
    235 H235       -0.2462  -21.5193  -55.3338 H         1 UNK         0.3000 
    236 H236        2.2538  -21.3564  -56.9101 H         1 UNK         0.0600 
    237 H237        2.0617  -23.1702  -55.2354 H         1 UNK         0.0600 
    238 H238        3.3289  -22.0388  -54.7907 H         1 UNK         0.0600 
    239 H239        1.7866  -22.0001  -53.9492 H         1 UNK         0.0600 
    240 H240        0.7687  -19.8270  -53.9973 H         1 UNK         0.3000 
    241 H241        0.9847  -17.8516  -53.0343 H         1 UNK         0.0600 
    242 H242        4.7383  -18.2858  -52.7364 H         1 UNK         0.3800 
    243 H243        3.4836  -19.4544  -53.0584 H         1 UNK         0.3800 
    244 H244        0.0777  -17.2151  -55.4177 H         1 UNK         0.0800 
    245 H245        1.6497  -16.5430  -55.7014 H         1 UNK         0.0800 
    246 H246       -1.9022  -14.5974  -53.9791 H         1 UNK         0.0800 
    247 H247       -1.7654  -16.2800  -54.4122 H         1 UNK         0.0800 
@<TRIPOS>BOND
     1    1    2 1    
     2    1  127 1    
     3    1  128 1    
     4    1  129 1    
     5    2    3 2    
     6    2    4 am   BACKBONE|DICT|INTERRES
     7    4    5 1    
     8    4  130 1    
     9    5    6 1    
    10    5   65 1    
    11    5  131 1    
    12    6    7 1    
    13    6  132 1    
    14    6  133 1    
    15    7    8 1    
    16    8    9 1    
    17    8  134 1    
    18    8  135 1    
    19    9   10 ar   
    20    9   14 ar   
    21   10   11 ar   
    22   10  136 1    
    23   11   12 ar   
    24   11  126 1    
    25   12   13 ar   
    26   12  137 1    
    27   13   14 ar   
    28   13   15 1    
    29   14  138 1    
    30   15   16 1    
    31   15  139 1    
    32   15  140 1    
    33   16   17 1    
    34   17   18 1    
    35   17  141 1    
    36   17  142 1    
    37   18   19 1    
    38   18   67 1    
    39   18  143 1    
    40   19   20 am   BACKBONE|DICT|INTERRES
    41   19  144 1    
    42   20   21 2    
    43   20   22 1    
    44   22   23 1    
    45   22   24 1    
    46   22  145 1    
    47   23  146 1    
    48   23  147 1    
    49   23  148 1    
    50   24   25 am   BACKBONE|DICT|INTERRES
    51   24  149 1    
    52   25   26 2    
    53   25   27 1    
    54   27   28 1    
    55   27   29 1    
    56   27  150 1    
    57   28  151 1    
    58   28  152 1    
    59   28  153 1    
    60   29   30 am   BACKBONE|DICT|INTERRES
    61   29  154 1    
    62   30   31 2    
    63   30   32 1    
    64   32   33 1    
    65   32   34 1    
    66   32  155 1    
    67   33  156 1    
    68   33  157 1    
    69   33  158 1    
    70   34   35 am   BACKBONE|DICT|INTERRES
    71   34  159 1    
    72   35   36 2    
    73   35   37 1    
    74   37   38 1    
    75   37   39 1    
    76   37  160 1    
    77   38  161 1    
    78   38  162 1    
    79   38  163 1    
    80   39   40 am   BACKBONE|DICT|INTERRES
    81   39  164 1    
    82   40   41 2    
    83   40   42 1    
    84   42   43 1    
    85   42   44 1    
    86   42  165 1    
    87   43  166 1    
    88   43  167 1    
    89   43  168 1    
    90   44   45 am   BACKBONE|DICT|INTERRES
    91   44  169 1    
    92   45   46 2    
    93   45   47 1    
    94   47   48 1    
    95   47   49 1    
    96   47  170 1    
    97   48  171 1    
    98   48  172 1    
    99   48  173 1    
   100   49   50 am   BACKBONE|DICT|INTERRES
   101   49  174 1    
   102   50   51 2    
   103   50   52 1    
   104   52   53 1    
   105   52   54 1    
   106   52  175 1    
   107   53  176 1    
   108   53  177 1    
   109   53  178 1    
   110   54   55 am   BACKBONE|DICT|INTERRES
   111   54  179 1    
   112   55   56 2    
   113   55   57 1    
   114   57   58 1    
   115   57   59 1    
   116   57  180 1    
   117   58  181 1    
   118   58  182 1    
   119   58  183 1    
   120   59   60 am   BACKBONE|DICT|INTERRES
   121   59  184 1    
   122   60   61 2    
   123   60   62 1    
   124   62   63 1    
   125   62   64 1    
   126   62  185 1    
   127   63  186 1    
   128   63  187 1    
   129   63  188 1    
   130   64   65 am   BACKBONE|DICT|INTERRES
   131   64  189 1    
   132   65   66 2    
   133   67   68 2    
   134   67   69 am   BACKBONE|DICT|INTERRES
   135   69   70 1    
   136   69  190 1    
   137   70   71 1    
   138   70   72 1    
   139   70  191 1    
   140   71  192 1    
   141   71  193 1    
   142   71  194 1    
   143   72   73 2    
   144   72   74 am   BACKBONE|DICT|INTERRES
   145   74   75 1    
   146   74  195 1    
   147   75   76 1    
   148   75   77 1    
   149   75  196 1    
   150   76  197 1    
   151   76  198 1    
   152   76  199 1    
   153   77   78 2    
   154   77   79 am   BACKBONE|DICT|INTERRES
   155   79   80 1    
   156   79  200 1    
   157   80   81 1    
   158   80   82 1    
   159   80  201 1    
   160   81  202 1    
   161   81  203 1    
   162   81  204 1    
   163   82   83 2    
   164   82   84 am   BACKBONE|DICT|INTERRES
   165   84   85 1    
   166   84  205 1    
   167   85   86 1    
   168   85   87 1    
   169   85  206 1    
   170   86  207 1    
   171   86  208 1    
   172   86  209 1    
   173   87   88 2    
   174   87   89 am   BACKBONE|DICT|INTERRES
   175   89   90 1    
   176   89  210 1    
   177   90   91 1    
   178   90   92 1    
   179   90  211 1    
   180   91  212 1    
   181   91  213 1    
   182   91  214 1    
   183   92   93 2    
   184   92   94 am   BACKBONE|DICT|INTERRES
   185   94   95 1    
   186   94  215 1    
   187   95   96 1    
   188   95   97 1    
   189   95  216 1    
   190   96  217 1    
   191   96  218 1    
   192   96  219 1    
   193   97   98 2    
   194   97   99 am   BACKBONE|DICT|INTERRES
   195   99  100 1    
   196   99  220 1    
   197  100  101 1    
   198  100  102 1    
   199  100  221 1    
   200  101  222 1    
   201  101  223 1    
   202  101  224 1    
   203  102  103 2    
   204  102  104 am   BACKBONE|DICT|INTERRES
   205  104  105 1    
   206  104  225 1    
   207  105  106 1    
   208  105  107 1    
   209  105  226 1    
   210  106  227 1    
   211  106  228 1    
   212  106  229 1    
   213  107  108 2    
   214  107  109 am   BACKBONE|DICT|INTERRES
   215  109  110 1    
   216  109  230 1    
   217  110  111 1    
   218  110  112 1    
   219  110  231 1    
   220  111  232 1    
   221  111  233 1    
   222  111  234 1    
   223  112  113 2    
   224  112  114 am   BACKBONE|DICT|INTERRES
   225  114  115 1    
   226  114  235 1    
   227  115  116 1    
   228  115  117 1    
   229  115  236 1    
   230  116  237 1    
   231  116  238 1    
   232  116  239 1    
   233  117  118 2    
   234  117  119 am   BACKBONE|DICT|INTERRES
   235  119  120 1    
   236  119  240 1    
   237  120  121 1    
   238  120  124 1    
   239  120  241 1    
   240  121  122 am   BACKBONE|DICT|INTERRES
   241  121  123 2    
   242  122  242 1    
   243  122  243 1    
   244  124  125 1    
   245  124  244 1    
   246  124  245 1    
   247  125  126 1    
   248  126  246 1    
   249  126  247 1    
@<TRIPOS>SUBSTRUCTURE
     1 UNK         1 GROUP             0       ****    0 ROOT    
