@<TRIPOS>MOLECULE
3R540
247   249    1
SMALL
USER_CHARGES


@<TRIPOS>ATOM
      1 CA          8.7770  -10.7870  -48.3684 C.3       0 UNK        -0.1800 
      2 C           7.8539  -11.9756  -48.1390 C.2       0 UNK         0.5000 
      3 O           7.5822  -12.3269  -46.9905 O.2       0 UNK        -0.5000 
      4 N           7.3798  -12.5995  -49.2245 N.am      1 UNK        -0.5000 
      5 CA          6.4170  -13.7048  -49.2008 C.3       1 UNK         0.1400 
      6 C6          6.4068  -14.4618  -50.5535 C.3       23 UNK        -0.0398 
      7 S7          5.7650  -16.1625  -50.3912 S.3       23 UNK        -0.2404 
      8 C8          4.1473  -16.0243  -51.2320 C.3       23 UNK        -0.0205 
      9 C9          3.0880  -17.0357  -50.7870 C.ar      23 UNK        -0.0193 
     10 C10         1.7459  -16.7613  -51.0793 C.ar      23 UNK        -0.1150 
     11 C11         0.7308  -17.6286  -50.6675 C.ar      23 UNK        -0.0193 
     12 C12         1.0673  -18.7947  -49.9816 C.ar      23 UNK        -0.1150 
     13 C13         2.3957  -19.0895  -49.6807 C.ar      23 UNK        -0.0193 
     14 C14         3.4037  -18.2135  -50.0917 C.ar      23 UNK        -0.1150 
     15 C15         2.7175  -20.3430  -48.8847 C.3       23 UNK        -0.0205 
     16 S16         2.2390  -20.1260  -47.1425 S.3       23 UNK        -0.2404 
     17 C17         2.3513  -21.8294  -46.5101 C.3       23 UNK        -0.0398 
     18 CA          1.0035  -22.5795  -46.3642 C.3       11 UNK         0.1400 
     19 N           0.0540  -21.9639  -45.4287 N.am      11 UNK        -0.5000 
     20 C          -0.9508  -22.6555  -44.8667 C.2       10 UNK         0.5000 
     21 O          -1.1443  -23.8549  -45.0738 O.2       10 UNK        -0.5000 
     22 CA         -1.9270  -21.8915  -43.9546 C.3       10 UNK         0.1400 
     23 CB         -1.2977  -21.6039  -42.5833 C.3       10 UNK        -0.1800 
     24 N          -2.4259  -20.6549  -44.5562 N.am      10 UNK        -0.5000 
     25 C          -3.1763  -20.6101  -45.6665 C.2       9 UNK         0.5000 
     26 O          -3.5284  -21.6109  -46.2876 O.2       9 UNK        -0.5000 
     27 CA         -3.5757  -19.2218  -46.1990 C.3       9 UNK         0.1400 
     28 CB         -4.8298  -18.6997  -45.4838 C.3       9 UNK        -0.1800 
     29 N          -2.4949  -18.2430  -46.0937 N.am      9 UNK        -0.5000 
     30 C          -1.3275  -18.3493  -46.7441 C.2       8 UNK         0.5000 
     31 O          -1.0718  -19.2601  -47.5285 O.2       8 UNK        -0.5000 
     32 CA         -0.2480  -17.3024  -46.4155 C.3       8 UNK         0.1400 
     33 CB         -0.5488  -15.9589  -47.0967 C.3       8 UNK        -0.1800 
     34 N          -0.1004  -17.0975  -44.9750 N.am      8 UNK        -0.5000 
     35 C           0.2486  -18.0468  -44.0937 C.2       7 UNK         0.5000 
     36 O           0.5310  -19.2057  -44.3969 O.2       7 UNK        -0.5000 
     37 CA          0.2236  -17.6420  -42.6113 C.3       7 UNK         0.1400 
     38 CB          1.5048  -16.8876  -42.2275 C.3       7 UNK        -0.1800 
     39 N          -0.9487  -16.8257  -42.2952 N.am      7 UNK        -0.5000 
     40 C          -2.2051  -17.2932  -42.2677 C.2       6 UNK         0.5000 
     41 O          -2.5025  -18.4693  -42.4747 O.2       6 UNK        -0.5000 
     42 CA         -3.3188  -16.2642  -42.0028 C.3       6 UNK         0.1400 
     43 CB         -3.4559  -15.9858  -40.4985 C.3       6 UNK        -0.1800 
     44 N          -3.0990  -15.0040  -42.7137 N.am      6 UNK        -0.5000 
     45 C          -3.1315  -14.8761  -44.0474 C.2       5 UNK         0.5000 
     46 O          -3.3788  -15.8034  -44.8170 O.2       5 UNK        -0.5000 
     47 CA         -2.7896  -13.4891  -44.6213 C.3       5 UNK         0.1400 
     48 CB         -4.0486  -12.6131  -44.6994 C.3       5 UNK        -0.1800 
     49 N          -1.7469  -12.7748  -43.8784 N.am      5 UNK        -0.5000 
     50 C          -0.4980  -13.2196  -43.6905 C.2       4 UNK         0.5000 
     51 O          -0.0984  -14.3227  -44.0687 O.2       4 UNK        -0.5000 
     52 CA          0.4790  -12.2538  -43.0027 C.3       4 UNK         0.1400 
     53 CB          1.3300  -12.9653  -41.9387 C.3       4 UNK        -0.1800 
     54 N           1.3583  -11.6893  -44.0185 N.am      4 UNK        -0.5000 
     55 C           1.0422  -10.6790  -44.8349 C.2       3 UNK         0.5000 
     56 O           0.0238   -9.9971  -44.7123 O.2       3 UNK        -0.5000 
     57 CA          1.9976  -10.4128  -46.0138 C.3       3 UNK         0.1400 
     58 CB          3.3233   -9.7789  -45.5484 C.3       3 UNK        -0.1800 
     59 N           2.2191  -11.5949  -46.8589 N.am      3 UNK        -0.5000 
     60 C           2.8674  -12.7332  -46.5694 C.2       2 UNK         0.5000 
     61 O           3.4329  -12.9500  -45.4962 O.2       2 UNK        -0.5000 
     62 CA          2.8742  -13.8373  -47.6459 C.3       2 UNK         0.1400 
     63 CB          1.8643  -13.6156  -48.7959 C.3       2 UNK        -0.1800 
     64 N           4.2247  -14.0722  -48.1627 N.am      2 UNK        -0.5000 
     65 C           5.0088  -13.1989  -48.8114 C.2       1 UNK         0.5000 
     66 O           4.6611  -12.0570  -49.1248 O.2       1 UNK        -0.5000 
     67 C           0.3483  -22.9303  -47.7163 C.2       11 UNK         0.5000 
     68 O           0.6845  -23.9698  -48.2818 O.2       11 UNK        -0.5000 
     69 N          -0.6110  -22.1166  -48.1859 N.am      12 UNK        -0.5000 
     70 CA         -1.4159  -22.4067  -49.3751 C.3       12 UNK         0.1400 
     71 CB         -2.3026  -21.2075  -49.7233 C.3       12 UNK        -0.1800 
     72 C          -2.2885  -23.6609  -49.2157 C.2       12 UNK         0.5000 
     73 O          -2.3825  -24.4537  -50.1527 O.2       12 UNK        -0.5000 
     74 N          -2.9077  -23.8256  -48.0387 N.am      13 UNK        -0.5000 
     75 CA         -3.6930  -25.0046  -47.6733 C.3       13 UNK         0.1400 
     76 CB         -4.4201  -24.7558  -46.3433 C.3       13 UNK        -0.1800 
     77 C          -2.8352  -26.2793  -47.5889 C.2       13 UNK         0.5000 
     78 O          -3.2881  -27.3419  -48.0126 O.2       13 UNK        -0.5000 
     79 N          -1.6110  -26.1468  -47.0633 N.am      14 UNK        -0.5000 
     80 CA         -0.6448  -27.2361  -46.9533 C.3       14 UNK         0.1400 
     81 CB          0.4722  -26.8316  -45.9784 C.3       14 UNK        -0.1800 
     82 C          -0.0597  -27.6547  -48.3150 C.2       14 UNK         0.5000 
     83 O          -0.0219  -28.8487  -48.6153 O.2       14 UNK        -0.5000 
     84 N           0.4114  -26.6750  -49.0979 N.am      15 UNK        -0.5000 
     85 CA          1.1615  -26.9095  -50.3305 C.3       15 UNK         0.1400 
     86 CB          2.0766  -25.7058  -50.6088 C.3       15 UNK        -0.1800 
     87 C           0.2677  -27.1930  -51.5477 C.2       15 UNK         0.5000 
     88 O           0.5370  -28.1452  -52.2816 O.2       15 UNK        -0.5000 
     89 N          -0.7446  -26.3445  -51.7671 N.am      16 UNK        -0.5000 
     90 CA         -1.5371  -26.3194  -53.0005 C.3       16 UNK         0.1400 
     91 CB         -1.5102  -24.8857  -53.5588 C.3       16 UNK        -0.1800 
     92 C          -2.9917  -26.7730  -52.7989 C.2       16 UNK         0.5000 
     93 O          -3.6649  -27.0661  -53.7872 O.2       16 UNK        -0.5000 
     94 N          -3.4629  -26.7749  -51.5432 N.am      17 UNK        -0.5000 
     95 CA         -4.8582  -26.9497  -51.1168 C.3       17 UNK         0.1400 
     96 CB         -5.4092  -28.3335  -51.5202 C.3       17 UNK        -0.1800 
     97 C          -5.7764  -25.7839  -51.5507 C.2       17 UNK         0.5000 
     98 O          -6.9984  -25.9378  -51.5579 O.2       17 UNK        -0.5000 
     99 N          -5.1764  -24.6338  -51.8922 N.am      18 UNK        -0.5000 
    100 CA        -5.8748  -23.4230  -52.3264 C.3       18 UNK         0.1400 
    101 CB        -4.9026  -22.5423  -53.1274 C.3       18 UNK        -0.1800 
    102 C         -6.4626  -22.6356  -51.1441 C.2       18 UNK         0.5000 
    103 O         -7.5244  -22.0278  -51.2837 O.2       18 UNK        -0.5000 
    104 N         -5.7573  -22.6669  -50.0041 N.am      19 UNK        -0.5000 
    105 CA        -6.0798  -21.9762  -48.7550 C.3       19 UNK         0.1400 
    106 CB        -7.2646  -22.6773  -48.0535 C.3       19 UNK        -0.1800 
    107 C         -6.2691  -20.4579  -48.9673 C.2       19 UNK         0.5000 
    108 O         -5.3790  -19.8092  -49.5206 O.2       19 UNK        -0.5000 
    109 N         -7.4258  -19.9219  -48.5569 N.am      20 UNK        -0.5000 
    110 CA        -7.7963  -18.5087  -48.6549 C.3       20 UNK         0.1400 
    111 CB        -9.1440  -18.2994  -47.9485 C.3       20 UNK        -0.1800 
    112 C         -7.8476  -17.9491  -50.0917 C.2       20 UNK         0.5000 
    113 O         -7.7080  -16.7369  -50.2603 O.2       20 UNK        -0.5000 
    114 N         -7.9985  -18.8183  -51.1052 N.am      21 UNK        -0.5000 
    115 CA        -7.9797  -18.4463  -52.5262 C.3       21 UNK         0.1400 
    116 CB        -8.4063  -19.6485  -53.3816 C.3       21 UNK        -0.1800 
    117 C         -6.6176  -17.8989  -53.0037 C.2       21 UNK         0.5000 
    118 O         -6.5681  -17.2061  -54.0206 O.2       21 UNK        -0.5000 
    119 N         -5.5487  -18.1923  -52.2517 N.am      22 UNK        -0.5000 
    120 CA        -4.2186  -17.5863  -52.4018 C.3       22 UNK         0.1400 
    121 C         -4.1481  -16.0961  -51.9397 C.2       22 UNK         0.5000 
    122 N         -5.1221  -15.5703  -51.2036 N.am      22 UNK        -0.7600 
    123 O         -3.2054  -15.3872  -52.2778 O.2       22 UNK        -0.5000 
    124 C124       -3.1640  -18.4718  -51.6937 C.3       23 UNK        -0.0398 
    125 S125       -1.4448  -18.2541  -52.2745 S.3       23 UNK        -0.2404 
    126 C126       -0.7330  -17.2928  -50.9011 C.3       23 UNK        -0.0205 
    127 H127        8.3481   -9.8884  -47.9248 H         1 UNK         0.0600 
    128 H128        8.9390  -10.5978  -49.4299 H         1 UNK         0.0600 
    129 H129        9.7461  -10.9688  -47.9039 H         1 UNK         0.0600 
    130 H130        7.6137  -12.2404  -50.1390 H         1 UNK         0.3000 
    131 H131        6.7529  -14.3977  -48.4255 H         1 UNK         0.0600 
    132 H132        5.8617  -13.9089  -51.3209 H         1 UNK         0.0800 
    133 H133        7.4267  -14.5568  -50.9292 H         1 UNK         0.0800 
    134 H134        4.3011  -16.1235  -52.3072 H         1 UNK         0.0800 
    135 H135        3.7535  -15.0204  -51.0661 H         1 UNK         0.0800 
    136 H136        1.4873  -15.8547  -51.6085 H         1 UNK         0.1150 
    137 H137        0.2916  -19.4672  -49.6510 H         1 UNK         0.1150 
    138 H138        4.4288  -18.4540  -49.8525 H         1 UNK         0.1150 
    139 H139        2.1809  -21.1886  -49.3170 H         1 UNK         0.0800 
    140 H140        3.7804  -20.5812  -48.9439 H         1 UNK         0.0800 
    141 H141        3.0374  -22.4032  -47.1357 H         1 UNK         0.0800 
    142 H142        2.8313  -21.7759  -45.5322 H         1 UNK         0.0800 
    143 H143        1.2738  -23.5418  -45.9237 H         1 UNK         0.0600 
    144 H144        0.1713  -20.9744  -45.2241 H         1 UNK         0.3000 
    145 H145       -2.7896  -22.5406  -43.7893 H         1 UNK         0.0600 
    146 H146       -2.0198  -21.1468  -41.9068 H         1 UNK         0.0600 
    147 H147       -0.9516  -22.5253  -42.1134 H         1 UNK         0.0600 
    148 H148       -0.4412  -20.9354  -42.6601 H         1 UNK         0.0600 
    149 H149       -2.2024  -19.7905  -44.0761 H         1 UNK         0.3000 
    150 H150       -3.8162  -19.3314  -47.2579 H         1 UNK         0.0600 
    151 H151       -5.6519  -19.4118  -45.5666 H         1 UNK         0.0600 
    152 H152       -5.1688  -17.7605  -45.9214 H         1 UNK         0.0600 
    153 H153       -4.6452  -18.5275  -44.4228 H         1 UNK         0.0600 
    154 H154       -2.6600  -17.4403  -45.4923 H         1 UNK         0.3000 
    155 H155        0.7075  -17.6653  -46.7964 H         1 UNK         0.0600 
    156 H156       -1.5459  -15.5937  -46.8522 H         1 UNK         0.0600 
    157 H157       -0.4887  -16.0504  -48.1808 H         1 UNK         0.0600 
    158 H158        0.1666  -15.1955  -46.7939 H         1 UNK         0.0600 
    159 H159       -0.2735  -16.1581  -44.6284 H         1 UNK         0.3000 
    160 H160        0.1753  -18.5535  -42.0118 H         1 UNK         0.0600 
    161 H161        1.6437  -15.9940  -42.8353 H         1 UNK         0.0600 
    162 H162        2.3825  -17.5184  -42.3731 H         1 UNK         0.0600 
    163 H163        1.4902  -16.5857  -41.1802 H         1 UNK         0.0600 
    164 H164       -0.7949  -15.8351  -42.1798 H         1 UNK         0.3000 
    165 H165       -4.2585  -16.6938  -42.3569 H         1 UNK         0.0600 
    166 H166       -4.2945  -15.3193  -40.2960 H         1 UNK         0.0600 
    167 H167       -3.6354  -16.9092  -39.9462 H         1 UNK         0.0600 
    168 H168       -2.5554  -15.5273  -40.0879 H         1 UNK         0.0600 
    169 H169       -2.8866  -14.1904  -42.1556 H         1 UNK         0.3000 
    170 H170       -2.4196  -13.6396  -45.6372 H         1 UNK         0.0600 
    171 H171       -4.8362  -13.1109  -45.2668 H         1 UNK         0.0600 
    172 H172       -4.4474  -12.3911  -43.7088 H         1 UNK         0.0600 
    173 H173       -3.8402  -11.6663  -45.1981 H         1 UNK         0.0600 
    174 H174       -1.9795  -11.8424  -43.5666 H         1 UNK         0.3000 
    175 H175       -0.0834  -11.4567  -42.5118 H         1 UNK         0.0600 
    176 H176        1.9942  -13.7076  -42.3817 H         1 UNK         0.0600 
    177 H177        1.9493  -12.2525  -41.3942 H         1 UNK         0.0600 
    178 H178        0.7012  -13.4758  -41.2082 H         1 UNK         0.0600 
    179 H179        2.1844  -12.2318  -44.2567 H         1 UNK         0.3000 
    180 H180        1.5033   -9.6834  -46.6575 H         1 UNK         0.0600 
    181 H181        3.8747  -10.4260  -44.8660 H         1 UNK         0.0600 
    182 H182        3.1397   -8.8397  -45.0253 H         1 UNK         0.0600 
    183 H183        3.9718   -9.5581  -46.3963 H         1 UNK         0.0600 
    184 H184        1.7963  -11.5385  -47.7748 H         1 UNK         0.3000 
    185 H185        2.5820  -14.7550  -47.1333 H         1 UNK         0.0600 
    186 H186        0.8542  -13.4655  -48.4132 H         1 UNK         0.0600 
    187 H187        2.1149  -12.7547  -49.4158 H         1 UNK         0.0600 
    188 H188        1.8269  -14.4874  -49.4461 H         1 UNK         0.0600 
    189 H189        4.6085  -14.9825  -47.9504 H         1 UNK         0.3000 
    190 H190       -0.8072  -21.2443  -47.7030 H         1 UNK         0.3000 
    191 H191       -0.7344  -22.5813  -50.2102 H         1 UNK         0.0600 
    192 H192       -2.9399  -20.9209  -48.8880 H         1 UNK         0.0600 
    193 H193       -2.9527  -21.4318  -50.5681 H         1 UNK         0.0600 
    194 H194       -1.7057  -20.3412  -49.9970 H         1 UNK         0.0600 
    195 H195       -2.8339  -23.0955  -47.3350 H         1 UNK         0.3000 
    196 H196       -4.4484  -25.1561  -48.4460 H         1 UNK         0.0600 
    197 H197       -5.0352  -25.6133  -46.0682 H         1 UNK         0.0600 
    198 H198       -5.0793  -23.8911  -46.4045 H         1 UNK         0.0600 
    199 H199       -3.7191  -24.5791  -45.5272 H         1 UNK         0.0600 
    200 H200       -1.3361  -25.2461  -46.6882 H         1 UNK         0.3000 
    201 H201       -1.1577  -28.1027  -46.5304 H         1 UNK         0.0600 
    202 H202        0.0683  -26.5889  -44.9953 H         1 UNK         0.0600 
    203 H203        1.0259  -25.9630  -46.3349 H         1 UNK         0.0600 
    204 H204        1.1872  -27.6444  -45.8457 H         1 UNK         0.0600 
    205 H205        0.3704  -25.7121  -48.7696 H         1 UNK         0.3000 
    206 H206        1.8059  -27.7794  -50.1841 H         1 UNK         0.0600 
    207 H207        2.7608  -25.5311  -49.7782 H         1 UNK         0.0600 
    208 H208        2.6825  -25.8731  -51.5001 H         1 UNK         0.0600 
    209 H209        1.5054  -24.7903  -50.7679 H         1 UNK         0.0600 
    210 H210       -0.9343  -25.6096  -51.0953 H         1 UNK         0.3000 
    211 H211       -1.1013  -26.9775  -53.7549 H         1 UNK         0.0600 
    212 H212       -1.9373  -24.1683  -52.8574 H         1 UNK         0.0600 
    213 H213       -2.0779  -24.8139  -54.4875 H         1 UNK         0.0600 
    214 H214       -0.4903  -24.5697  -53.7786 H         1 UNK         0.0600 
    215 H215       -2.8285  -26.4701  -50.8158 H         1 UNK         0.3000 
    216 H216       -4.8481  -26.9195  -50.0291 H         1 UNK         0.0600 
    217 H217       -6.3689  -28.5252  -51.0391 H         1 UNK         0.0600 
    218 H218       -4.7312  -29.1309  -51.2163 H         1 UNK         0.0600 
    219 H219       -5.5657  -28.4149  -52.5959 H         1 UNK         0.0600 
    220 H220       -4.1685  -24.5916  -51.8369 H         1 UNK         0.3000 
    221 H221       -6.7001  -23.7053  -52.9837 H         1 UNK         0.0600 
    222 H222       -4.0319  -22.2572  -52.5369 H         1 UNK         0.0600 
    223 H223       -4.5458  -23.0612  -54.0174 H         1 UNK         0.0600 
    224 H224       -5.3877  -21.6236  -53.4600 H         1 UNK         0.0600 
    225 H225       -4.8941  -23.1876  -50.0068 H         1 UNK         0.3000 
    226 H226       -5.2068  -22.0828  -48.1155 H         1 UNK         0.0600 
    227 H227       -7.0602  -23.7392  -47.9167 H         1 UNK         0.0600 
    228 H228       -7.4423  -22.2581  -47.0624 H         1 UNK         0.0600 
    229 H229       -8.1890  -22.5969  -48.6267 H         1 UNK         0.0600 
    230 H230       -8.1139  -20.5349  -48.1446 H         1 UNK         0.3000 
    231 H231       -7.0376  -17.9363  -48.1171 H         1 UNK         0.0600 
    232 H232       -9.4400  -17.2497  -47.9724 H         1 UNK         0.0600 
    233 H233       -9.0912  -18.5957  -46.9007 H         1 UNK         0.0600 
    234 H234       -9.9395  -18.8757  -48.4225 H         1 UNK         0.0600 
    235 H235       -8.0663  -19.8074  -50.8979 H         1 UNK         0.3000 
    236 H236       -8.7167  -17.6531  -52.6676 H         1 UNK         0.0600 
    237 H237       -9.3532  -20.0662  -53.0393 H         1 UNK         0.0600 
    238 H238       -8.5378  -19.3549  -54.4237 H         1 UNK         0.0600 
    239 H239       -7.6597  -20.4420  -53.3620 H         1 UNK         0.0600 
    240 H240       -5.6827  -18.7609  -51.4236 H         1 UNK         0.3000 
    241 H241       -3.9884  -17.5871  -53.4689 H         1 UNK         0.0600 
    242 H242       -5.0578  -14.6023  -50.9323 H         1 UNK         0.3800 
    243 H243       -5.9416  -16.1051  -50.9380 H         1 UNK         0.3800 
    244 H244       -3.2319  -18.3613  -50.6104 H         1 UNK         0.0800 
    245 H245       -3.4004  -19.5185  -51.8875 H         1 UNK         0.0800 
    246 H246       -0.8569  -16.2283  -51.1049 H         1 UNK         0.0800 
    247 H247       -1.2781  -17.4917  -49.9779 H         1 UNK         0.0800 
@<TRIPOS>BOND
     1    1    2 1    
     2    1  127 1    
     3    1  128 1    
     4    1  129 1    
     5    2    3 2    
     6    2    4 am   BACKBONE|DICT|INTERRES
     7    4    5 1    
     8    4  130 1    
     9    5    6 1    
    10    5   65 1    
    11    5  131 1    
    12    6    7 1    
    13    6  132 1    
    14    6  133 1    
    15    7    8 1    
    16    8    9 1    
    17    8  134 1    
    18    8  135 1    
    19    9   10 ar   
    20    9   14 ar   
    21   10   11 ar   
    22   10  136 1    
    23   11   12 ar   
    24   11  126 1    
    25   12   13 ar   
    26   12  137 1    
    27   13   14 ar   
    28   13   15 1    
    29   14  138 1    
    30   15   16 1    
    31   15  139 1    
    32   15  140 1    
    33   16   17 1    
    34   17   18 1    
    35   17  141 1    
    36   17  142 1    
    37   18   19 1    
    38   18   67 1    
    39   18  143 1    
    40   19   20 am   BACKBONE|DICT|INTERRES
    41   19  144 1    
    42   20   21 2    
    43   20   22 1    
    44   22   23 1    
    45   22   24 1    
    46   22  145 1    
    47   23  146 1    
    48   23  147 1    
    49   23  148 1    
    50   24   25 am   BACKBONE|DICT|INTERRES
    51   24  149 1    
    52   25   26 2    
    53   25   27 1    
    54   27   28 1    
    55   27   29 1    
    56   27  150 1    
    57   28  151 1    
    58   28  152 1    
    59   28  153 1    
    60   29   30 am   BACKBONE|DICT|INTERRES
    61   29  154 1    
    62   30   31 2    
    63   30   32 1    
    64   32   33 1    
    65   32   34 1    
    66   32  155 1    
    67   33  156 1    
    68   33  157 1    
    69   33  158 1    
    70   34   35 am   BACKBONE|DICT|INTERRES
    71   34  159 1    
    72   35   36 2    
    73   35   37 1    
    74   37   38 1    
    75   37   39 1    
    76   37  160 1    
    77   38  161 1    
    78   38  162 1    
    79   38  163 1    
    80   39   40 am   BACKBONE|DICT|INTERRES
    81   39  164 1    
    82   40   41 2    
    83   40   42 1    
    84   42   43 1    
    85   42   44 1    
    86   42  165 1    
    87   43  166 1    
    88   43  167 1    
    89   43  168 1    
    90   44   45 am   BACKBONE|DICT|INTERRES
    91   44  169 1    
    92   45   46 2    
    93   45   47 1    
    94   47   48 1    
    95   47   49 1    
    96   47  170 1    
    97   48  171 1    
    98   48  172 1    
    99   48  173 1    
   100   49   50 am   BACKBONE|DICT|INTERRES
   101   49  174 1    
   102   50   51 2    
   103   50   52 1    
   104   52   53 1    
   105   52   54 1    
   106   52  175 1    
   107   53  176 1    
   108   53  177 1    
   109   53  178 1    
   110   54   55 am   BACKBONE|DICT|INTERRES
   111   54  179 1    
   112   55   56 2    
   113   55   57 1    
   114   57   58 1    
   115   57   59 1    
   116   57  180 1    
   117   58  181 1    
   118   58  182 1    
   119   58  183 1    
   120   59   60 am   BACKBONE|DICT|INTERRES
   121   59  184 1    
   122   60   61 2    
   123   60   62 1    
   124   62   63 1    
   125   62   64 1    
   126   62  185 1    
   127   63  186 1    
   128   63  187 1    
   129   63  188 1    
   130   64   65 am   BACKBONE|DICT|INTERRES
   131   64  189 1    
   132   65   66 2    
   133   67   68 2    
   134   67   69 am   BACKBONE|DICT|INTERRES
   135   69   70 1    
   136   69  190 1    
   137   70   71 1    
   138   70   72 1    
   139   70  191 1    
   140   71  192 1    
   141   71  193 1    
   142   71  194 1    
   143   72   73 2    
   144   72   74 am   BACKBONE|DICT|INTERRES
   145   74   75 1    
   146   74  195 1    
   147   75   76 1    
   148   75   77 1    
   149   75  196 1    
   150   76  197 1    
   151   76  198 1    
   152   76  199 1    
   153   77   78 2    
   154   77   79 am   BACKBONE|DICT|INTERRES
   155   79   80 1    
   156   79  200 1    
   157   80   81 1    
   158   80   82 1    
   159   80  201 1    
   160   81  202 1    
   161   81  203 1    
   162   81  204 1    
   163   82   83 2    
   164   82   84 am   BACKBONE|DICT|INTERRES
   165   84   85 1    
   166   84  205 1    
   167   85   86 1    
   168   85   87 1    
   169   85  206 1    
   170   86  207 1    
   171   86  208 1    
   172   86  209 1    
   173   87   88 2    
   174   87   89 am   BACKBONE|DICT|INTERRES
   175   89   90 1    
   176   89  210 1    
   177   90   91 1    
   178   90   92 1    
   179   90  211 1    
   180   91  212 1    
   181   91  213 1    
   182   91  214 1    
   183   92   93 2    
   184   92   94 am   BACKBONE|DICT|INTERRES
   185   94   95 1    
   186   94  215 1    
   187   95   96 1    
   188   95   97 1    
   189   95  216 1    
   190   96  217 1    
   191   96  218 1    
   192   96  219 1    
   193   97   98 2    
   194   97   99 am   BACKBONE|DICT|INTERRES
   195   99  100 1    
   196   99  220 1    
   197  100  101 1    
   198  100  102 1    
   199  100  221 1    
   200  101  222 1    
   201  101  223 1    
   202  101  224 1    
   203  102  103 2    
   204  102  104 am   BACKBONE|DICT|INTERRES
   205  104  105 1    
   206  104  225 1    
   207  105  106 1    
   208  105  107 1    
   209  105  226 1    
   210  106  227 1    
   211  106  228 1    
   212  106  229 1    
   213  107  108 2    
   214  107  109 am   BACKBONE|DICT|INTERRES
   215  109  110 1    
   216  109  230 1    
   217  110  111 1    
   218  110  112 1    
   219  110  231 1    
   220  111  232 1    
   221  111  233 1    
   222  111  234 1    
   223  112  113 2    
   224  112  114 am   BACKBONE|DICT|INTERRES
   225  114  115 1    
   226  114  235 1    
   227  115  116 1    
   228  115  117 1    
   229  115  236 1    
   230  116  237 1    
   231  116  238 1    
   232  116  239 1    
   233  117  118 2    
   234  117  119 am   BACKBONE|DICT|INTERRES
   235  119  120 1    
   236  119  240 1    
   237  120  121 1    
   238  120  124 1    
   239  120  241 1    
   240  121  122 am   BACKBONE|DICT|INTERRES
   241  121  123 2    
   242  122  242 1    
   243  122  243 1    
   244  124  125 1    
   245  124  244 1    
   246  124  245 1    
   247  125  126 1    
   248  126  246 1    
   249  126  247 1    
@<TRIPOS>SUBSTRUCTURE
     1 UNK         1 GROUP             0       ****    0 ROOT    
