@<TRIPOS>MOLECULE
3R540
247   249    1
SMALL
USER_CHARGES


@<TRIPOS>ATOM
      1 CA          3.5669   -9.4213  -50.7091 C.3       0 UNK        -0.1800 
      2 C           3.6608  -10.9369  -50.8166 C.2       0 UNK         0.5000 
      3 O           3.8128  -11.4654  -51.9183 O.2       0 UNK        -0.5000 
      4 N           3.5754  -11.6340  -49.6799 N.am      1 UNK        -0.5000 
      5 CA          3.6177  -13.0952  -49.5833 C.3       1 UNK         0.1400 
      6 C6          2.2708  -13.7825  -49.9495 C.3       23 UNK        -0.0398 
      7 S7          0.8111  -13.1462  -49.0490 S.3       23 UNK        -0.2404 
      8 C8          0.2245  -14.6377  -48.1887 C.3       23 UNK        -0.0205 
      9 C9         -0.5428  -15.5811  -49.1003 C.ar      23 UNK        -0.0193 
     10 C10        -1.8751  -15.3071  -49.4205 C.ar      23 UNK        -0.1150 
     11 C11        -2.6122  -16.1903  -50.2128 C.ar      23 UNK        -0.0193 
     12 C12        -2.0028  -17.3544  -50.6899 C.ar      23 UNK        -0.1150 
     13 C13        -0.6673  -17.6350  -50.3889 C.ar      23 UNK        -0.0193 
     14 C14         0.0576  -16.7454  -49.5898 C.ar      23 UNK        -0.1150 
     15 C15        -0.0010  -18.8835  -50.9507 C.3       23 UNK        -0.0205 
     16 S16         0.2627  -20.1636  -49.6852 S.3       23 UNK        -0.2404 
     17 C17        -1.4440  -20.7115  -49.3523 C.3       23 UNK        -0.0398 
     18 CA         -1.4647  -22.0276  -48.5397 C.3       11 UNK         0.1400 
     19 N          -0.9694  -21.8507  -47.1716 N.am      11 UNK        -0.5000 
     20 C          -0.7356  -22.8554  -46.3185 C.2       10 UNK         0.5000 
     21 O          -0.8433  -24.0406  -46.6302 O.2       10 UNK        -0.5000 
     22 CA         -0.3593  -22.4829  -44.8729 C.3       10 UNK         0.1400 
     23 CB          1.1340  -22.1446  -44.7602 C.3       10 UNK        -0.1800 
     24 N          -1.1664  -21.3800  -44.3511 N.am      10 UNK        -0.5000 
     25 C          -2.4903  -21.4456  -44.1503 C.2       9 UNK         0.5000 
     26 O          -3.1560  -22.4651  -44.3273 O.2       9 UNK        -0.5000 
     27 CA         -3.2025  -20.1473  -43.7340 C.3       9 UNK         0.1400 
     28 CB         -3.1021  -19.9186  -42.2188 C.3       9 UNK        -0.1800 
     29 N          -2.6859  -18.9816  -44.4487 N.am      9 UNK        -0.5000 
     30 C          -2.8281  -18.7793  -45.7668 C.2       8 UNK         0.5000 
     31 O          -3.4483  -19.5351  -46.5148 O.2       8 UNK        -0.5000 
     32 CA         -2.1143  -17.5493  -46.3525 C.3       8 UNK         0.1400 
     33 CB         -2.9761  -16.2938  -46.1526 C.3       8 UNK        -0.1800 
     34 N          -0.7820  -17.3454  -45.7747 N.am      8 UNK        -0.5000 
     35 C           0.2240  -18.2240  -45.9036 C.2       7 UNK         0.5000 
     36 O           0.1247  -19.2747  -46.5326 O.2       7 UNK        -0.5000 
     37 CA          1.5360  -17.9345  -45.1548 C.3       7 UNK         0.1400 
     38 CB          2.4387  -16.9732  -45.9358 C.3       7 UNK        -0.1800 
     39 N           1.3327  -17.4216  -43.8031 N.am      7 UNK        -0.5000 
     40 C           0.7546  -18.1041  -42.8069 C.2       6 UNK         0.5000 
     41 O           0.2860  -19.2350  -42.9350 O.2       6 UNK        -0.5000 
     42 CA          0.6772  -17.3955  -41.4465 C.3       6 UNK         0.1400 
     43 CB          2.0261  -17.4753  -40.7146 C.3       6 UNK        -0.1800 
     44 N           0.2967  -15.9941  -41.6088 N.am      6 UNK        -0.5000 
     45 C          -0.9686  -15.5599  -41.6686 C.2       5 UNK         0.5000 
     46 O          -1.9506  -16.2907  -41.5335 O.2       5 UNK        -0.5000 
     47 CA         -1.1750  -14.0564  -41.9409 C.3       5 UNK         0.1400 
     48 CB         -1.1870  -13.2668  -40.6234 C.3       5 UNK        -0.1800 
     49 N          -0.1725  -13.4777  -42.8391 N.am      5 UNK        -0.5000 
     50 C          -0.0138  -13.8320  -44.1211 C.2       4 UNK         0.5000 
     51 O          -0.6809  -14.7015  -44.6776 O.2       4 UNK        -0.5000 
     52 CA          1.1042  -13.1305  -44.9093 C.3       4 UNK         0.1400 
     53 CB          0.6141  -11.7871  -45.4679 C.3       4 UNK        -0.1800 
     54 N           2.3608  -12.9254  -44.1883 N.am      4 UNK        -0.5000 
     55 C           3.0507  -13.8421  -43.4974 C.2       3 UNK         0.5000 
     56 O           2.6141  -14.9522  -43.1877 O.2       3 UNK        -0.5000 
     57 CA          4.5067  -13.4641  -43.1659 C.3       3 UNK         0.1400 
     58 CB          5.1142  -14.3712  -42.0811 C.3       3 UNK        -0.1800 
     59 N           5.3301  -13.5528  -44.3730 N.am      3 UNK        -0.5000 
     60 C           5.3189  -12.6816  -45.3915 C.2       2 UNK         0.5000 
     61 O           4.6898  -11.6204  -45.3678 O.2       2 UNK        -0.5000 
     62 CA          6.1367  -13.0399  -46.6509 C.3       2 UNK         0.1400 
     63 CB          6.7802  -14.4459  -46.6165 C.3       2 UNK        -0.1800 
     64 N           5.3505  -12.8604  -47.8774 N.am      2 UNK        -0.5000 
     65 C           4.2242  -13.5046  -48.2262 C.2       1 UNK         0.5000 
     66 O           3.6848  -14.3681  -47.5350 O.2       1 UNK        -0.5000 
     67 C          -2.8618  -22.6797  -48.5525 C.2       11 UNK         0.5000 
     68 O          -3.0717  -23.6383  -49.2948 O.2       11 UNK        -0.5000 
     69 N          -3.7711  -22.1740  -47.7087 N.am      12 UNK        -0.5000 
     70 CA         -5.1459  -22.6483  -47.5831 C.3       12 UNK         0.1400 
     71 CB         -5.9572  -21.6402  -46.7521 C.3       12 UNK        -0.1800 
     72 C          -5.2659  -24.0627  -46.9853 C.2       12 UNK         0.5000 
     73 O          -5.8360  -24.9436  -47.6299 O.2       12 UNK        -0.5000 
     74 N          -4.7840  -24.2390  -45.7480 N.am      13 UNK        -0.5000 
     75 CA         -5.0833  -25.4042  -44.9149 C.3       13 UNK         0.1400 
     76 CB         -5.2768  -24.9485  -43.4596 C.3       13 UNK        -0.1800 
     77 C          -4.0043  -26.4922  -44.9927 C.2       13 UNK         0.5000 
     78 O          -4.3485  -27.6727  -45.0630 O.2       13 UNK        -0.5000 
     79 N          -2.7248  -26.0927  -44.9718 N.am      14 UNK        -0.5000 
     80 CA         -1.5873  -27.0217  -45.0078 C.3       14 UNK         0.1400 
     81 CB         -0.3850  -26.4034  -44.2744 C.3       14 UNK        -0.1800 
     82 C          -1.2097  -27.4517  -46.4395 C.2       14 UNK         0.5000 
     83 O          -0.3954  -28.3623  -46.5969 O.2       14 UNK        -0.5000 
     84 N          -1.8092  -26.7971  -47.4449 N.am      15 UNK        -0.5000 
     85 CA         -1.6188  -26.9931  -48.8821 C.3       15 UNK         0.1400 
     86 CB         -2.1093  -28.3883  -49.3221 C.3       15 UNK        -0.1800 
     87 C          -0.1815  -26.6748  -49.3402 C.2       15 UNK         0.5000 
     88 O           0.3878  -27.4050  -50.1538 O.2       15 UNK        -0.5000 
     89 N           0.3755  -25.5650  -48.8296 N.am      16 UNK        -0.5000 
     90 CA          1.6617  -25.0069  -49.2700 C.3       16 UNK         0.1400 
     91 CB          2.1277  -23.9401  -48.2674 C.3       16 UNK        -0.1800 
     92 C           1.6141  -24.4261  -50.7018 C.2       16 UNK         0.5000 
     93 O           2.6635  -24.2267  -51.3146 O.2       16 UNK        -0.5000 
     94 N           0.4007  -24.1920  -51.2097 N.am      17 UNK        -0.5000 
     95 CA          0.0737  -23.8610  -52.5887 C.3       17 UNK         0.1400 
     96 CB         -0.0729  -22.3361  -52.7261 C.3       17 UNK        -0.1800 
     97 C          -1.2278  -24.6013  -52.9458 C.2       17 UNK         0.5000 
     98 O          -1.7873  -25.3091  -52.1007 O.2       17 UNK        -0.5000 
     99 N          -1.7019  -24.4278  -54.1856 N.am      18 UNK        -0.5000 
    100 CA        -2.9685  -24.9678  -54.6892 C.3       18 UNK         0.1400 
    101 CB        -2.9369  -24.9459  -56.2282 C.3       18 UNK        -0.1800 
    102 C         -4.1774  -24.2020  -54.1070 C.2       18 UNK         0.5000 
    103 O         -4.8454  -23.4570  -54.8271 O.2       18 UNK        -0.5000 
    104 N         -4.3948  -24.3790  -52.7963 N.am      19 UNK        -0.5000 
    105 CA        -5.2975  -23.6248  -51.9225 C.3       19 UNK         0.1400 
    106 CB        -6.7686  -23.7721  -52.3710 C.3       19 UNK        -0.1800 
    107 C         -4.8475  -22.1547  -51.7708 C.2       19 UNK         0.5000 
    108 O         -3.7024  -21.8216  -52.0849 O.2       19 UNK        -0.5000 
    109 N         -5.7408  -21.3007  -51.2540 N.am      20 UNK        -0.5000 
    110 CA        -5.5030  -19.8657  -51.1073 C.3       20 UNK         0.1400 
    111 CB        -6.5763  -19.2576  -50.1883 C.3       20 UNK        -0.1800 
    112 C         -5.4696  -19.1645  -52.4769 C.2       20 UNK         0.5000 
    113 O         -4.4543  -18.5738  -52.8364 O.2       20 UNK        -0.5000 
    114 N         -6.5899  -19.2502  -53.2104 N.am      21 UNK        -0.5000 
    115 CA        -6.8212  -18.6936  -54.5525 C.3       21 UNK         0.1400 
    116 CB        -5.8941  -19.3672  -55.5860 C.3       21 UNK        -0.1800 
    117 C         -6.7704  -17.1484  -54.6434 C.2       21 UNK         0.5000 
    118 O         -6.8033  -16.6089  -55.7508 O.2       21 UNK        -0.5000 
    119 N         -6.7239  -16.4597  -53.4951 N.am      22 UNK        -0.5000 
    120 CA        -6.7124  -14.9903  -53.3855 C.3       22 UNK         0.1400 
    121 C         -8.1193  -14.3312  -53.5071 C.2       22 UNK         0.5000 
    122 N         -9.2128  -15.0835  -53.5429 N.am      22 UNK        -0.7600 
    123 O         -8.2214  -13.1097  -53.5815 O.2       22 UNK        -0.5000 
    124 C124       -5.9871  -14.5130  -52.0989 C.3       23 UNK        -0.0398 
    125 S125       -4.2087  -14.9315  -52.0848 S.3       23 UNK        -0.2404 
    126 C126       -4.0653  -15.8857  -50.5427 C.3       23 UNK        -0.0205 
    127 H127        3.4376   -9.0951  -49.6767 H         1 UNK         0.0600 
    128 H128        2.7193   -9.0563  -51.2892 H         1 UNK         0.0600 
    129 H129        4.4737   -8.9601  -51.1005 H         1 UNK         0.0600 
    130 H130        3.4447  -11.1506  -48.8015 H         1 UNK         0.3000 
    131 H131        4.3494  -13.4517  -50.3118 H         1 UNK         0.0600 
    132 H132        2.3516  -14.8625  -49.8222 H         1 UNK         0.0800 
    133 H133        2.0761  -13.6365  -51.0125 H         1 UNK         0.0800 
    134 H134        1.0709  -15.1517  -47.7378 H         1 UNK         0.0800 
    135 H135       -0.4248  -14.3341  -47.3676 H         1 UNK         0.0800 
    136 H136       -2.3405  -14.4069  -49.0442 H         1 UNK         0.1150 
    137 H137       -2.5634  -18.0391  -51.3073 H         1 UNK         0.1150 
    138 H138        1.0861  -16.9681  -49.3429 H         1 UNK         0.1150 
    139 H139       -0.5855  -19.3003  -51.7727 H         1 UNK         0.0800 
    140 H140        0.9655  -18.6095  -51.3756 H         1 UNK         0.0800 
    141 H141       -1.9511  -20.8390  -50.3095 H         1 UNK         0.0800 
    142 H142       -1.9755  -19.9184  -48.8245 H         1 UNK         0.0800 
    143 H143       -0.7958  -22.7313  -49.0374 H         1 UNK         0.0600 
    144 H144       -0.7731  -20.8966  -46.8768 H         1 UNK         0.3000 
    145 H145       -0.5541  -23.3527  -44.2435 H         1 UNK         0.0600 
    146 H146        1.4067  -21.8981  -43.7339 H         1 UNK         0.0600 
    147 H147        1.7475  -22.9928  -45.0659 H         1 UNK         0.0600 
    148 H148        1.4079  -21.2998  -45.3914 H         1 UNK         0.0600 
    149 H149       -0.6802  -20.5157  -44.1342 H         1 UNK         0.3000 
    150 H150       -4.2592  -20.2536  -43.9878 H         1 UNK         0.0600 
    151 H151       -3.6475  -19.0237  -41.9181 H         1 UNK         0.0600 
    152 H152       -2.0691  -19.8047  -41.8907 H         1 UNK         0.0600 
    153 H153       -3.5283  -20.7595  -41.6704 H         1 UNK         0.0600 
    154 H154       -2.1294  -18.3289  -43.9157 H         1 UNK         0.3000 
    155 H155       -1.9921  -17.7139  -47.4249 H         1 UNK         0.0600 
    156 H156       -3.9575  -16.4174  -46.6121 H         1 UNK         0.0600 
    157 H157       -3.1303  -16.0753  -45.0951 H         1 UNK         0.0600 
    158 H158       -2.5145  -15.4187  -46.6074 H         1 UNK         0.0600 
    159 H159       -0.6399  -16.4845  -45.2517 H         1 UNK         0.3000 
    160 H160        2.0677  -18.8841  -45.0673 H         1 UNK         0.0600 
    161 H161        3.4479  -16.9605  -45.5241 H         1 UNK         0.0600 
    162 H162        2.0596  -15.9548  -45.8935 H         1 UNK         0.0600 
    163 H163        2.5174  -17.2598  -46.9854 H         1 UNK         0.0600 
    164 H164        1.7163  -16.5006  -43.6038 H         1 UNK         0.3000 
    165 H165       -0.0678  -17.9121  -40.8374 H         1 UNK         0.0600 
    166 H166        1.9649  -17.0170  -39.7275 H         1 UNK         0.0600 
    167 H167        2.3317  -18.5128  -40.5734 H         1 UNK         0.0600 
    168 H168        2.8196  -16.9715  -41.2682 H         1 UNK         0.0600 
    169 H169        1.0455  -15.3438  -41.8146 H         1 UNK         0.3000 
    170 H170       -2.1519  -13.9417  -42.4156 H         1 UNK         0.0600 
    171 H171       -0.2235  -13.3178  -40.1148 H         1 UNK         0.0600 
    172 H172       -1.4222  -12.2162  -40.7948 H         1 UNK         0.0600 
    173 H173       -1.9406  -13.6598  -39.9395 H         1 UNK         0.0600 
    174 H174        0.4357  -12.7694  -42.4553 H         1 UNK         0.3000 
    175 H175        1.3484  -13.7683  -45.7577 H         1 UNK         0.0600 
    176 H176        1.3493  -11.3518  -46.1453 H         1 UNK         0.0600 
    177 H177        0.4199  -11.0667  -44.6724 H         1 UNK         0.0600 
    178 H178       -0.3101  -11.9120  -46.0340 H         1 UNK         0.0600 
    179 H179        2.8681  -12.0839  -44.4371 H         1 UNK         0.3000 
    180 H180        4.5177  -12.4371  -42.7947 H         1 UNK         0.0600 
    181 H181        5.1625  -15.4125  -42.4028 H         1 UNK         0.0600 
    182 H182        4.5196  -14.3378  -41.1672 H         1 UNK         0.0600 
    183 H183        6.1246  -14.0536  -41.8229 H         1 UNK         0.0600 
    184 H184        5.8499  -14.4102  -44.4902 H         1 UNK         0.3000 
    185 H185        6.9467  -12.3109  -46.6982 H         1 UNK         0.0600 
    186 H186        6.0365  -15.2381  -46.5219 H         1 UNK         0.0600 
    187 H187        7.3468  -14.6354  -47.5283 H         1 UNK         0.0600 
    188 H188        7.4794  -14.5415  -45.7849 H         1 UNK         0.0600 
    189 H189        5.6901  -12.1444  -48.5043 H         1 UNK         0.3000 
    190 H190       -3.5221  -21.3650  -47.1458 H         1 UNK         0.3000 
    191 H191       -5.5782  -22.6756  -48.5851 H         1 UNK         0.0600 
    192 H192       -5.9310  -20.6467  -47.1969 H         1 UNK         0.0600 
    193 H193       -7.0035  -21.9404  -46.6843 H         1 UNK         0.0600 
    194 H194       -5.5738  -21.5506  -45.7354 H         1 UNK         0.0600 
    195 H195       -4.2727  -23.4822  -45.2958 H         1 UNK         0.3000 
    196 H196       -6.0254  -25.8510  -45.2409 H         1 UNK         0.0600 
    197 H197       -5.5557  -25.7884  -42.8219 H         1 UNK         0.0600 
    198 H198       -6.0696  -24.2044  -43.3821 H         1 UNK         0.0600 
    199 H199       -4.3672  -24.5121  -43.0456 H         1 UNK         0.0600 
    200 H200       -2.5139  -25.1045  -44.9472 H         1 UNK         0.3000 
    201 H201       -1.8605  -27.9290  -44.4647 H         1 UNK         0.0600 
    202 H202       -0.6682  -26.0239  -43.2926 H         1 UNK         0.0600 
    203 H203        0.0670  -25.5888  -44.8366 H         1 UNK         0.0600 
    204 H204        0.3939  -27.1508  -44.1198 H         1 UNK         0.0600 
    205 H205       -2.4140  -26.0300  -47.1873 H         1 UNK         0.3000 
    206 H206       -2.2581  -26.2584  -49.3735 H         1 UNK         0.0600 
    207 H207       -3.1326  -28.5678  -48.9924 H         1 UNK         0.0600 
    208 H208       -2.0992  -28.4776  -50.4091 H         1 UNK         0.0600 
    209 H209       -1.4822  -29.1858  -48.9230 H         1 UNK         0.0600 
    210 H210       -0.1296  -25.0474  -48.1145 H         1 UNK         0.3000 
    211 H211        2.3958  -25.8151  -49.2684 H         1 UNK         0.0600 
    212 H212        1.4886  -23.0577  -48.2885 H         1 UNK         0.0600 
    213 H213        3.1408  -23.6087  -48.4979 H         1 UNK         0.0600 
    214 H214        2.1367  -24.3289  -47.2491 H         1 UNK         0.0600 
    215 H215       -0.4041  -24.4745  -50.6652 H         1 UNK         0.3000 
    216 H216        0.8608  -24.2194  -53.2552 H         1 UNK         0.0600 
    217 H217       -0.2405  -22.0436  -53.7628 H         1 UNK         0.0600 
    218 H218        0.8260  -21.8209  -52.3869 H         1 UNK         0.0600 
    219 H219       -0.9130  -21.9631  -52.1406 H         1 UNK         0.0600 
    220 H220       -1.2042  -23.8137  -54.8135 H         1 UNK         0.3000 
    221 H221       -3.0567  -26.0102  -54.3754 H         1 UNK         0.0600 
    222 H222       -2.8190  -23.9333  -56.6162 H         1 UNK         0.0600 
    223 H223       -2.1158  -25.5504  -56.6140 H         1 UNK         0.0600 
    224 H224       -3.8603  -25.3519  -56.6431 H         1 UNK         0.0600 
    225 H225       -3.6955  -24.9297  -52.3062 H         1 UNK         0.3000 
    226 H226       -5.2042  -24.0798  -50.9356 H         1 UNK         0.0600 
    227 H227       -7.0139  -24.8142  -52.5765 H         1 UNK         0.0600 
    228 H228       -7.4554  -23.4328  -51.5953 H         1 UNK         0.0600 
    229 H229       -6.9804  -23.1958  -53.2723 H         1 UNK         0.0600 
    230 H230       -6.6611  -21.6388  -51.0154 H         1 UNK         0.3000 
    231 H231       -4.5308  -19.7206  -50.6302 H         1 UNK         0.0600 
    232 H232       -7.5855  -19.4323  -50.5622 H         1 UNK         0.0600 
    233 H233       -6.4483  -18.1801  -50.0857 H         1 UNK         0.0600 
    234 H234       -6.5187  -19.6825  -49.1880 H         1 UNK         0.0600 
    235 H235       -7.3698  -19.7596  -52.8198 H         1 UNK         0.3000 
    236 H236       -7.8450  -18.9670  -54.8114 H         1 UNK         0.0600 
    237 H237       -4.8521  -19.0795  -55.4441 H         1 UNK         0.0600 
    238 H238       -5.9526  -20.4539  -55.5199 H         1 UNK         0.0600 
    239 H239       -6.1722  -19.0898  -56.6034 H         1 UNK         0.0600 
    240 H240       -6.6918  -16.9755  -52.6303 H         1 UNK         0.3000 
    241 H241       -6.1441  -14.6007  -54.2324 H         1 UNK         0.0600 
    242 H242      -10.1156  -14.6427  -53.6278 H         1 UNK         0.3800 
    243 H243       -9.1490  -16.0870  -53.4889 H         1 UNK         0.3800 
    244 H244       -6.0513  -13.4277  -52.0017 H         1 UNK         0.0800 
    245 H245       -6.4777  -14.9222  -51.2145 H         1 UNK         0.0800 
    246 H246       -4.6265  -16.8138  -50.6387 H         1 UNK         0.0800 
    247 H247       -4.5214  -15.3287  -49.7227 H         1 UNK         0.0800 
@<TRIPOS>BOND
     1    1    2 1    
     2    1  127 1    
     3    1  128 1    
     4    1  129 1    
     5    2    3 2    
     6    2    4 am   BACKBONE|DICT|INTERRES
     7    4    5 1    
     8    4  130 1    
     9    5    6 1    
    10    5   65 1    
    11    5  131 1    
    12    6    7 1    
    13    6  132 1    
    14    6  133 1    
    15    7    8 1    
    16    8    9 1    
    17    8  134 1    
    18    8  135 1    
    19    9   10 ar   
    20    9   14 ar   
    21   10   11 ar   
    22   10  136 1    
    23   11   12 ar   
    24   11  126 1    
    25   12   13 ar   
    26   12  137 1    
    27   13   14 ar   
    28   13   15 1    
    29   14  138 1    
    30   15   16 1    
    31   15  139 1    
    32   15  140 1    
    33   16   17 1    
    34   17   18 1    
    35   17  141 1    
    36   17  142 1    
    37   18   19 1    
    38   18   67 1    
    39   18  143 1    
    40   19   20 am   BACKBONE|DICT|INTERRES
    41   19  144 1    
    42   20   21 2    
    43   20   22 1    
    44   22   23 1    
    45   22   24 1    
    46   22  145 1    
    47   23  146 1    
    48   23  147 1    
    49   23  148 1    
    50   24   25 am   BACKBONE|DICT|INTERRES
    51   24  149 1    
    52   25   26 2    
    53   25   27 1    
    54   27   28 1    
    55   27   29 1    
    56   27  150 1    
    57   28  151 1    
    58   28  152 1    
    59   28  153 1    
    60   29   30 am   BACKBONE|DICT|INTERRES
    61   29  154 1    
    62   30   31 2    
    63   30   32 1    
    64   32   33 1    
    65   32   34 1    
    66   32  155 1    
    67   33  156 1    
    68   33  157 1    
    69   33  158 1    
    70   34   35 am   BACKBONE|DICT|INTERRES
    71   34  159 1    
    72   35   36 2    
    73   35   37 1    
    74   37   38 1    
    75   37   39 1    
    76   37  160 1    
    77   38  161 1    
    78   38  162 1    
    79   38  163 1    
    80   39   40 am   BACKBONE|DICT|INTERRES
    81   39  164 1    
    82   40   41 2    
    83   40   42 1    
    84   42   43 1    
    85   42   44 1    
    86   42  165 1    
    87   43  166 1    
    88   43  167 1    
    89   43  168 1    
    90   44   45 am   BACKBONE|DICT|INTERRES
    91   44  169 1    
    92   45   46 2    
    93   45   47 1    
    94   47   48 1    
    95   47   49 1    
    96   47  170 1    
    97   48  171 1    
    98   48  172 1    
    99   48  173 1    
   100   49   50 am   BACKBONE|DICT|INTERRES
   101   49  174 1    
   102   50   51 2    
   103   50   52 1    
   104   52   53 1    
   105   52   54 1    
   106   52  175 1    
   107   53  176 1    
   108   53  177 1    
   109   53  178 1    
   110   54   55 am   BACKBONE|DICT|INTERRES
   111   54  179 1    
   112   55   56 2    
   113   55   57 1    
   114   57   58 1    
   115   57   59 1    
   116   57  180 1    
   117   58  181 1    
   118   58  182 1    
   119   58  183 1    
   120   59   60 am   BACKBONE|DICT|INTERRES
   121   59  184 1    
   122   60   61 2    
   123   60   62 1    
   124   62   63 1    
   125   62   64 1    
   126   62  185 1    
   127   63  186 1    
   128   63  187 1    
   129   63  188 1    
   130   64   65 am   BACKBONE|DICT|INTERRES
   131   64  189 1    
   132   65   66 2    
   133   67   68 2    
   134   67   69 am   BACKBONE|DICT|INTERRES
   135   69   70 1    
   136   69  190 1    
   137   70   71 1    
   138   70   72 1    
   139   70  191 1    
   140   71  192 1    
   141   71  193 1    
   142   71  194 1    
   143   72   73 2    
   144   72   74 am   BACKBONE|DICT|INTERRES
   145   74   75 1    
   146   74  195 1    
   147   75   76 1    
   148   75   77 1    
   149   75  196 1    
   150   76  197 1    
   151   76  198 1    
   152   76  199 1    
   153   77   78 2    
   154   77   79 am   BACKBONE|DICT|INTERRES
   155   79   80 1    
   156   79  200 1    
   157   80   81 1    
   158   80   82 1    
   159   80  201 1    
   160   81  202 1    
   161   81  203 1    
   162   81  204 1    
   163   82   83 2    
   164   82   84 am   BACKBONE|DICT|INTERRES
   165   84   85 1    
   166   84  205 1    
   167   85   86 1    
   168   85   87 1    
   169   85  206 1    
   170   86  207 1    
   171   86  208 1    
   172   86  209 1    
   173   87   88 2    
   174   87   89 am   BACKBONE|DICT|INTERRES
   175   89   90 1    
   176   89  210 1    
   177   90   91 1    
   178   90   92 1    
   179   90  211 1    
   180   91  212 1    
   181   91  213 1    
   182   91  214 1    
   183   92   93 2    
   184   92   94 am   BACKBONE|DICT|INTERRES
   185   94   95 1    
   186   94  215 1    
   187   95   96 1    
   188   95   97 1    
   189   95  216 1    
   190   96  217 1    
   191   96  218 1    
   192   96  219 1    
   193   97   98 2    
   194   97   99 am   BACKBONE|DICT|INTERRES
   195   99  100 1    
   196   99  220 1    
   197  100  101 1    
   198  100  102 1    
   199  100  221 1    
   200  101  222 1    
   201  101  223 1    
   202  101  224 1    
   203  102  103 2    
   204  102  104 am   BACKBONE|DICT|INTERRES
   205  104  105 1    
   206  104  225 1    
   207  105  106 1    
   208  105  107 1    
   209  105  226 1    
   210  106  227 1    
   211  106  228 1    
   212  106  229 1    
   213  107  108 2    
   214  107  109 am   BACKBONE|DICT|INTERRES
   215  109  110 1    
   216  109  230 1    
   217  110  111 1    
   218  110  112 1    
   219  110  231 1    
   220  111  232 1    
   221  111  233 1    
   222  111  234 1    
   223  112  113 2    
   224  112  114 am   BACKBONE|DICT|INTERRES
   225  114  115 1    
   226  114  235 1    
   227  115  116 1    
   228  115  117 1    
   229  115  236 1    
   230  116  237 1    
   231  116  238 1    
   232  116  239 1    
   233  117  118 2    
   234  117  119 am   BACKBONE|DICT|INTERRES
   235  119  120 1    
   236  119  240 1    
   237  120  121 1    
   238  120  124 1    
   239  120  241 1    
   240  121  122 am   BACKBONE|DICT|INTERRES
   241  121  123 2    
   242  122  242 1    
   243  122  243 1    
   244  124  125 1    
   245  124  244 1    
   246  124  245 1    
   247  125  126 1    
   248  126  246 1    
   249  126  247 1    
@<TRIPOS>SUBSTRUCTURE
     1 UNK         1 GROUP             0       ****    0 ROOT    
