@<TRIPOS>MOLECULE
3R540
247   249    1
SMALL
USER_CHARGES


@<TRIPOS>ATOM
      1 CA          3.1536  -15.4473  -47.2395 C.3       0 UNK        -0.1800 
      2 C           2.1067  -14.4888  -46.6907 C.2       0 UNK         0.5000 
      3 O           2.2019  -14.0758  -45.5365 O.2       0 UNK        -0.5000 
      4 N           1.1161  -14.1275  -47.5183 N.am      1 UNK        -0.5000 
      5 CA         -0.0263  -13.2645  -47.1737 C.3       1 UNK         0.1400 
      6 C6         -1.0636  -13.1961  -48.3216 C.3       23 UNK        -0.0398 
      7 S7         -1.6982  -14.8214  -48.8487 S.3       23 UNK        -0.2404 
      8 C8         -3.0944  -14.2605  -49.8729 C.3       23 UNK        -0.0205 
      9 C9         -3.7288  -15.4133  -50.6310 C.ar      23 UNK        -0.0193 
     10 C10        -3.3544  -15.6799  -51.9506 C.ar      23 UNK        -0.1150 
     11 C11        -3.9246  -16.7488  -52.6539 C.ar      23 UNK        -0.0193 
     12 C12        -4.8891  -17.5378  -52.0204 C.ar      23 UNK        -0.1150 
     13 C13        -5.2744  -17.2798  -50.7031 C.ar      23 UNK        -0.0193 
     14 C14        -4.6964  -16.2095  -50.0156 C.ar      23 UNK        -0.1150 
     15 C15        -6.3116  -18.1607  -50.0225 C.3       23 UNK        -0.0205 
     16 S16        -5.6425  -19.7952  -49.5757 S.3       23 UNK        -0.2404 
     17 C17        -4.3567  -19.3610  -48.3533 C.3       23 UNK        -0.0398 
     18 CA         -3.1537  -20.3366  -48.4167 C.3       11 UNK         0.1400 
     19 N          -1.8630  -19.6428  -48.3748 N.am      11 UNK        -0.5000 
     20 C          -0.7038  -20.2056  -48.7424 C.2       10 UNK         0.5000 
     21 O          -0.5996  -21.3678  -49.1327 O.2       10 UNK        -0.5000 
     22 CA          0.5572  -19.3337  -48.6102 C.3       10 UNK         0.1400 
     23 CB          0.6445  -18.3333  -49.7738 C.3       10 UNK        -0.1800 
     24 N           0.6562  -18.6109  -47.3374 N.am      10 UNK        -0.5000 
     25 C           0.6100  -19.1777  -46.1239 C.2       9 UNK         0.5000 
     26 O           0.3543  -20.3685  -45.9343 O.2       9 UNK        -0.5000 
     27 CA          0.8622  -18.2494  -44.9212 C.3       9 UNK         0.1400 
     28 CB         -0.4106  -17.4594  -44.5813 C.3       9 UNK        -0.1800 
     29 N           1.3056  -18.9999  -43.7420 N.am      9 UNK        -0.5000 
     30 C           2.4908  -19.6275  -43.6560 C.2       8 UNK         0.5000 
     31 O           3.3595  -19.5400  -44.5256 O.2       8 UNK        -0.5000 
     32 CA          2.7826  -20.4825  -42.4053 C.3       8 UNK         0.1400 
     33 CB          4.0754  -20.0264  -41.7070 C.3       8 UNK        -0.1800 
     34 N           1.6906  -20.4637  -41.4325 N.am      8 UNK        -0.5000 
     35 C           0.7133  -21.3781  -41.3621 C.2       7 UNK         0.5000 
     36 O           0.6505  -22.3654  -42.0946 O.2       7 UNK        -0.5000 
     37 CA         -0.3878  -21.1611  -40.3016 C.3       7 UNK         0.1400 
     38 CB         -0.1404  -22.0605  -39.0810 C.3       7 UNK        -0.1800 
     39 N          -0.5218  -19.7752  -39.8465 N.am      7 UNK        -0.5000 
     40 C          -0.8827  -18.7402  -40.6163 C.2       6 UNK         0.5000 
     41 O          -1.1587  -18.8494  -41.8100 O.2       6 UNK        -0.5000 
     42 CA         -0.8875  -17.3393  -39.9703 C.3       6 UNK         0.1400 
     43 CB         -0.8551  -17.3588  -38.4257 C.3       6 UNK        -0.1800 
     44 N           0.1991  -16.4997  -40.4863 N.am      6 UNK        -0.5000 
     45 C           1.5111  -16.7847  -40.4938 C.2       5 UNK         0.5000 
     46 O           1.9865  -17.8421  -40.0782 O.2       5 UNK        -0.5000 
     47 CA          2.4601  -15.7087  -41.0531 C.3       5 UNK         0.1400 
     48 CB          2.8663  -16.0276  -42.4993 C.3       5 UNK        -0.1800 
     49 N           1.8993  -14.3592  -41.0194 N.am      5 UNK        -0.5000 
     50 C           1.7789  -13.5923  -39.9288 C.2       4 UNK         0.5000 
     51 O           2.0658  -13.9758  -38.7935 O.2       4 UNK        -0.5000 
     52 CA          1.3072  -12.1404  -40.1730 C.3       4 UNK         0.1400 
     53 CB          1.2933  -11.2931  -38.8878 C.3       4 UNK        -0.1800 
     54 N           2.1512  -11.4738  -41.1703 N.am      4 UNK        -0.5000 
     55 C           2.0582  -11.6448  -42.4945 C.2       3 UNK         0.5000 
     56 O           1.1784  -12.3270  -43.0258 O.2       3 UNK        -0.5000 
     57 CA          3.1742  -11.0162  -43.3415 C.3       3 UNK         0.1400 
     58 CB          4.4586  -11.8553  -43.2324 C.3       3 UNK        -0.1800 
     59 N           2.7716  -10.9820  -44.7434 N.am      3 UNK        -0.5000 
     60 C           2.5908   -9.8749  -45.4726 C.2       2 UNK         0.5000 
     61 O           2.7898   -8.7364  -45.0459 O.2       2 UNK        -0.5000 
     62 CA          2.1199  -10.0548  -46.9307 C.3       2 UNK         0.1400 
     63 CB          3.2804   -9.7967  -47.9048 C.3       2 UNK        -0.1800 
     64 N           1.5595  -11.3775  -47.2137 N.am      2 UNK        -0.5000 
     65 C           0.3743  -11.8248  -46.7756 C.2       1 UNK         0.5000 
     66 O          -0.4002  -11.1451  -46.1012 O.2       1 UNK        -0.5000 
     67 C          -3.2615  -21.4282  -47.3351 C.2       11 UNK         0.5000 
     68 O          -3.8429  -22.4806  -47.5935 O.2       11 UNK        -0.5000 
     69 N          -2.6846  -21.1737  -46.1526 N.am      12 UNK        -0.5000 
     70 CA         -2.6534  -22.1185  -45.0368 C.3       12 UNK         0.1400 
     71 CB         -2.2193  -21.3945  -43.7554 C.3       12 UNK        -0.1800 
     72 C          -1.7463  -23.3235  -45.3358 C.2       12 UNK         0.5000 
     73 O          -2.1550  -24.4617  -45.1056 O.2       12 UNK        -0.5000 
     74 N          -0.5650  -23.0544  -45.9086 N.am      13 UNK        -0.5000 
     75 CA          0.3916  -24.0571  -46.3787 C.3       13 UNK         0.1400 
     76 CB          1.6874  -23.3526  -46.8083 C.3       13 UNK        -0.1800 
     77 C          -0.1659  -24.9240  -47.5247 C.2       13 UNK         0.5000 
     78 O           0.1037  -26.1246  -47.5674 O.2       13 UNK        -0.5000 
     79 N          -0.9613  -24.3074  -48.4087 N.am      14 UNK        -0.5000 
     80 CA         -1.6685  -24.9661  -49.5072 C.3       14 UNK         0.1400 
     81 CB         -2.0134  -23.9103  -50.5651 C.3       14 UNK        -0.1800 
     82 C          -2.9462  -25.7137  -49.0728 C.2       14 UNK         0.5000 
     83 O          -3.5453  -26.3919  -49.9064 O.2       14 UNK        -0.5000 
     84 N          -3.3635  -25.5636  -47.8066 N.am      15 UNK        -0.5000 
     85 CA         -4.5904  -26.1057  -47.2117 C.3       15 UNK         0.1400 
     86 CB         -4.5269  -27.6449  -47.1224 C.3       15 UNK        -0.1800 
     87 C          -5.8658  -25.5838  -47.9102 C.2       15 UNK         0.5000 
     88 O          -6.7664  -26.3603  -48.2323 O.2       15 UNK        -0.5000 
     89 N          -5.8959  -24.2631  -48.1360 N.am      16 UNK        -0.5000 
     90 CA         -6.9578  -23.4574  -48.7487 C.3       16 UNK         0.1400 
     91 CB         -8.2970  -23.6180  -47.9996 C.3       16 UNK        -0.1800 
     92 C          -7.1108  -23.6341  -50.2739 C.2       16 UNK         0.5000 
     93 O          -8.0355  -23.0608  -50.8531 O.2       16 UNK        -0.5000 
     94 N          -6.2071  -24.3860  -50.9167 N.am      17 UNK        -0.5000 
     95 CA         -6.1531  -24.5472  -52.3672 C.3       17 UNK         0.1400 
     96 CB         -5.4467  -25.8696  -52.7077 C.3       17 UNK        -0.1800 
     97 C          -5.4427  -23.3386  -52.9992 C.2       17 UNK         0.5000 
     98 O          -4.2186  -23.3478  -53.1357 O.2       17 UNK        -0.5000 
     99 N          -6.2145  -22.3102  -53.3738 N.am      18 UNK        -0.5000 
    100 CA        -5.7183  -21.0557  -53.9530 C.3       18 UNK         0.1400 
    101 CB        -6.9004  -20.1103  -54.2095 C.3       18 UNK        -0.1800 
    102 C         -4.8798  -21.2381  -55.2355 C.2       18 UNK         0.5000 
    103 O         -3.9185  -20.4981  -55.4487 O.2       18 UNK        -0.5000 
    104 N         -5.2267  -22.2577  -56.0329 N.am      19 UNK        -0.5000 
    105 CA        -4.5013  -22.6695  -57.2355 C.3       19 UNK         0.1400 
    106 CB        -5.3528  -23.6914  -58.0040 C.3       19 UNK        -0.1800 
    107 C         -3.0997  -23.2454  -56.9478 C.2       19 UNK         0.5000 
    108 O         -2.2331  -23.1698  -57.8185 O.2       19 UNK        -0.5000 
    109 N         -2.8932  -23.7988  -55.7447 N.am      20 UNK        -0.5000 
    110 CA        -1.5923  -24.2671  -55.2679 C.3       20 UNK         0.1400 
    111 CB        -1.7839  -25.5051  -54.3792 C.3       20 UNK        -0.1800 
    112 C         -0.8429  -23.1534  -54.5153 C.2       20 UNK         0.5000 
    113 O          0.3807  -23.0758  -54.6249 O.2       20 UNK        -0.5000 
    114 N         -1.5836  -22.2998  -53.7915 N.am      21 UNK        -0.5000 
    115 CA        -1.0626  -21.1512  -53.0457 C.3       21 UNK         0.1400 
    116 CB        -2.1966  -20.5096  -52.2302 C.3       21 UNK        -0.1800 
    117 C         -0.4034  -20.0955  -53.9511 C.2       21 UNK         0.5000 
    118 O          0.6844  -19.6168  -53.6276 O.2       21 UNK        -0.5000 
    119 N         -1.0728  -19.7667  -55.0633 N.am      22 UNK        -0.5000 
    120 CA        -0.6427  -18.7522  -56.0419 C.3       22 UNK         0.1400 
    121 C         -0.3470  -19.3412  -57.4512 C.2       22 UNK         0.5000 
    122 N         -0.3333  -20.6545  -57.6347 N.am      22 UNK        -0.7600 
    123 O         -0.1025  -18.5964  -58.3969 O.2       22 UNK        -0.5000 
    124 C124       -1.6407  -17.5664  -56.1128 C.3       23 UNK        -0.0398 
    125 S125       -1.8051  -16.7052  -54.5117 S.3       23 UNK        -0.2404 
    126 C126       -3.5452  -17.0628  -54.0993 C.3       23 UNK        -0.0205 
    127 H127        3.2686  -16.3028  -46.5742 H         1 UNK         0.0600 
    128 H128        4.1173  -14.9435  -47.3134 H         1 UNK         0.0600 
    129 H129        2.8858  -15.8188  -48.2288 H         1 UNK         0.0600 
    130 H130        1.0993  -14.4975  -48.4581 H         1 UNK         0.3000 
    131 H131       -0.5120  -13.7086  -46.3021 H         1 UNK         0.0600 
    132 H132       -0.6339  -12.7030  -49.1958 H         1 UNK         0.0800 
    133 H133       -1.9178  -12.5879  -48.0164 H         1 UNK         0.0800 
    134 H134       -2.7487  -13.4995  -50.5746 H         1 UNK         0.0800 
    135 H135       -3.8402  -13.7786  -49.2387 H         1 UNK         0.0800 
    136 H136       -2.6143  -15.0518  -52.4252 H         1 UNK         0.1150 
    137 H137       -5.3427  -18.3615  -52.5496 H         1 UNK         0.1150 
    138 H138       -4.9873  -16.0030  -48.9951 H         1 UNK         0.1150 
    139 H139       -6.7052  -17.6766  -49.1273 H         1 UNK         0.0800 
    140 H140       -7.1609  -18.2994  -50.6930 H         1 UNK         0.0800 
    141 H141       -4.8109  -19.3166  -47.3614 H         1 UNK         0.0800 
    142 H142       -4.0152  -18.3472  -48.5513 H         1 UNK         0.0800 
    143 H143       -3.1827  -20.8564  -49.3757 H         1 UNK         0.0600 
    144 H144       -1.8598  -18.6851  -48.0567 H         1 UNK         0.3000 
    145 H145        1.4195  -20.0008  -48.6706 H         1 UNK         0.0600 
    146 H146        1.5859  -17.7841  -49.7534 H         1 UNK         0.0600 
    147 H147        0.5916  -18.8465  -50.7353 H         1 UNK         0.0600 
    148 H148       -0.1688  -17.6068  -49.7462 H         1 UNK         0.0600 
    149 H149        0.8372  -17.6210  -47.4047 H         1 UNK         0.3000 
    150 H150        1.6498  -17.5420  -45.1865 H         1 UNK         0.0600 
    151 H151       -0.6956  -16.8015  -45.4033 H         1 UNK         0.0600 
    152 H152       -0.2669  -16.8325  -43.7013 H         1 UNK         0.0600 
    153 H153       -1.2541  -18.1224  -44.3849 H         1 UNK         0.0600 
    154 H154        0.6175  -19.1407  -43.0124 H         1 UNK         0.3000 
    155 H155        2.9439  -21.5039  -42.7560 H         1 UNK         0.0600 
    156 H156        4.0101  -18.9949  -41.3626 H         1 UNK         0.0600 
    157 H157        4.9307  -20.0923  -42.3805 H         1 UNK         0.0600 
    158 H158        4.2972  -20.6530  -40.8431 H         1 UNK         0.0600 
    159 H159        1.6682  -19.6650  -40.8045 H         1 UNK         0.3000 
    160 H160       -1.3373  -21.4539  -40.7528 H         1 UNK         0.0600 
    161 H161        0.7869  -21.7979  -38.5703 H         1 UNK         0.0600 
    162 H162       -0.0677  -23.1084  -39.3753 H         1 UNK         0.0600 
    163 H163       -0.9554  -21.9831  -38.3611 H         1 UNK         0.0600 
    164 H164       -0.2720  -19.5905  -38.8859 H         1 UNK         0.3000 
    165 H165       -1.8221  -16.8666  -40.2759 H         1 UNK         0.0600 
    166 H166        0.0775  -17.7671  -38.0348 H         1 UNK         0.0600 
    167 H167       -0.9615  -16.3506  -38.0251 H         1 UNK         0.0600 
    168 H168       -1.6768  -17.9513  -38.0211 H         1 UNK         0.0600 
    169 H169       -0.0829  -15.6141  -40.8806 H         1 UNK         0.3000 
    170 H170        3.3624  -15.7204  -40.4380 H         1 UNK         0.0600 
    171 H171        3.3337  -17.0088  -42.5702 H         1 UNK         0.0600 
    172 H172        2.0073  -16.0176  -43.1701 H         1 UNK         0.0600 
    173 H173        3.5870  -15.3014  -42.8758 H         1 UNK         0.0600 
    174 H174        1.6424  -13.9470  -41.9110 H         1 UNK         0.3000 
    175 H175        0.2823  -12.1914  -40.5467 H         1 UNK         0.0600 
    176 H176        2.2893  -11.2038  -38.4522 H         1 UNK         0.0600 
    177 H177        0.9216  -10.2872  -39.0836 H         1 UNK         0.0600 
    178 H178        0.6420  -11.7364  -38.1334 H         1 UNK         0.0600 
    179 H179        2.9218  -10.9330  -40.8042 H         1 UNK         0.3000 
    180 H180        3.3697  -10.0114  -42.9617 H         1 UNK         0.0600 
    181 H181        5.2619  -11.4221  -43.8285 H         1 UNK         0.0600 
    182 H182        4.3004  -12.8777  -43.5789 H         1 UNK         0.0600 
    183 H183        4.8126  -11.9081  -42.2022 H         1 UNK         0.0600 
    184 H184        2.5013  -11.8777  -45.1345 H         1 UNK         0.3000 
    185 H185        1.3453   -9.3080  -47.1171 H         1 UNK         0.0600 
    186 H186        2.9458   -9.8492  -48.9411 H         1 UNK         0.0600 
    187 H187        3.7059   -8.8038  -47.7530 H         1 UNK         0.0600 
    188 H188        4.0845  -10.5218  -47.7730 H         1 UNK         0.0600 
    189 H189        2.1320  -12.0044  -47.7598 H         1 UNK         0.3000 
    190 H190       -2.1617  -20.3185  -46.0370 H         1 UNK         0.3000 
    191 H191       -3.6670  -22.4949  -44.8822 H         1 UNK         0.0600 
    192 H192       -2.2193  -22.0808  -42.9084 H         1 UNK         0.0600 
    193 H193       -2.8970  -20.5763  -43.5116 H         1 UNK         0.0600 
    194 H194       -1.2146  -20.9806  -43.8417 H         1 UNK         0.0600 
    195 H195       -0.2937  -22.0796  -46.0263 H         1 UNK         0.3000 
    196 H196        0.6213  -24.7182  -45.5407 H         1 UNK         0.0600 
    197 H197        1.5117  -22.6547  -47.6280 H         1 UNK         0.0600 
    198 H198        2.1226  -22.7909  -45.9811 H         1 UNK         0.0600 
    199 H199        2.4338  -24.0741  -47.1425 H         1 UNK         0.0600 
    200 H200       -1.0750  -23.3024  -48.3408 H         1 UNK         0.3000 
    201 H201       -1.0014  -25.6997  -49.9643 H         1 UNK         0.0600 
    202 H202       -2.6864  -23.1508  -50.1675 H         1 UNK         0.0600 
    203 H203       -2.5060  -24.3643  -51.4227 H         1 UNK         0.0600 
    204 H204       -1.1174  -23.4120  -50.9338 H         1 UNK         0.0600 
    205 H205       -2.8116  -24.9751  -47.1954 H         1 UNK         0.3000 
    206 H206       -4.6258  -25.7215  -46.1912 H         1 UNK         0.0600 
    207 H207       -3.6241  -27.9716  -46.6064 H         1 UNK         0.0600 
    208 H208       -5.3786  -28.0379  -46.5661 H         1 UNK         0.0600 
    209 H209       -4.5380  -28.1118  -48.1076 H         1 UNK         0.0600 
    210 H210       -5.0740  -23.7210  -47.8671 H         1 UNK         0.3000 
    211 H211       -6.6403  -22.4242  -48.6085 H         1 UNK         0.0600 
    212 H212       -9.0245  -22.8802  -48.3395 H         1 UNK         0.0600 
    213 H213       -8.1694  -23.4738  -46.9268 H         1 UNK         0.0600 
    214 H214       -8.7374  -24.6024  -48.1584 H         1 UNK         0.0600 
    215 H215       -5.4686  -24.8244  -50.3838 H         1 UNK         0.3000 
    216 H216       -7.1676  -24.6047  -52.7674 H         1 UNK         0.0600 
    217 H217       -4.4247  -25.8938  -52.3310 H         1 UNK         0.0600 
    218 H218       -5.4002  -26.0207  -53.7868 H         1 UNK         0.0600 
    219 H219       -5.9774  -26.7206  -52.2807 H         1 UNK         0.0600 
    220 H220       -7.2058  -22.3588  -53.1812 H         1 UNK         0.3000 
    221 H221       -5.0746  -20.5960  -53.2036 H         1 UNK         0.0600 
    222 H222       -7.4296  -19.8819  -53.2840 H         1 UNK         0.0600 
    223 H223       -7.6166  -20.5424  -54.9093 H         1 UNK         0.0600 
    224 H224       -6.5604  -19.1630  -54.6305 H         1 UNK         0.0600 
    225 H225       -6.0286  -22.8133  -55.7746 H         1 UNK         0.3000 
    226 H226       -4.3690  -21.7884  -57.8670 H         1 UNK         0.0600 
    227 H227       -5.5360  -24.5889  -57.4119 H         1 UNK         0.0600 
    228 H228       -6.3183  -23.2698  -58.2844 H         1 UNK         0.0600 
    229 H229       -4.8556  -24.0010  -58.9243 H         1 UNK         0.0600 
    230 H230       -3.6392  -23.7825  -55.0599 H         1 UNK         0.3000 
    231 H231       -0.9733  -24.5668  -56.1164 H         1 UNK         0.0600 
    232 H232       -2.4148  -25.2927  -53.5185 H         1 UNK         0.0600 
    233 H233       -0.8268  -25.8686  -54.0030 H         1 UNK         0.0600 
    234 H234       -2.2460  -26.3200  -54.9364 H         1 UNK         0.0600 
    235 H235       -2.5764  -22.4878  -53.6975 H         1 UNK         0.3000 
    236 H236       -0.3083  -21.5230  -52.3492 H         1 UNK         0.0600 
    237 H237       -2.7394  -21.2509  -51.6463 H         1 UNK         0.0600 
    238 H238       -1.8043  -19.7644  -51.5381 H         1 UNK         0.0600 
    239 H239       -2.9133  -19.9994  -52.8713 H         1 UNK         0.0600 
    240 H240       -1.9825  -20.1862  -55.2335 H         1 UNK         0.3000 
    241 H241        0.3161  -18.3363  -55.7283 H         1 UNK         0.0600 
    242 H242       -0.1471  -21.0277  -58.5521 H         1 UNK         0.3800 
    243 H243       -0.5199  -21.2831  -56.8706 H         1 UNK         0.3800 
    244 H244       -2.6168  -17.9118  -56.4578 H         1 UNK         0.0800 
    245 H245       -1.3072  -16.8251  -56.8408 H         1 UNK         0.0800 
    246 H246       -4.1944  -16.4944  -54.7664 H         1 UNK         0.0800 
    247 H247       -3.7344  -18.1173  -54.3014 H         1 UNK         0.0800 
@<TRIPOS>BOND
     1    1    2 1    
     2    1  127 1    
     3    1  128 1    
     4    1  129 1    
     5    2    3 2    
     6    2    4 am   BACKBONE|DICT|INTERRES
     7    4    5 1    
     8    4  130 1    
     9    5    6 1    
    10    5   65 1    
    11    5  131 1    
    12    6    7 1    
    13    6  132 1    
    14    6  133 1    
    15    7    8 1    
    16    8    9 1    
    17    8  134 1    
    18    8  135 1    
    19    9   10 ar   
    20    9   14 ar   
    21   10   11 ar   
    22   10  136 1    
    23   11   12 ar   
    24   11  126 1    
    25   12   13 ar   
    26   12  137 1    
    27   13   14 ar   
    28   13   15 1    
    29   14  138 1    
    30   15   16 1    
    31   15  139 1    
    32   15  140 1    
    33   16   17 1    
    34   17   18 1    
    35   17  141 1    
    36   17  142 1    
    37   18   19 1    
    38   18   67 1    
    39   18  143 1    
    40   19   20 am   BACKBONE|DICT|INTERRES
    41   19  144 1    
    42   20   21 2    
    43   20   22 1    
    44   22   23 1    
    45   22   24 1    
    46   22  145 1    
    47   23  146 1    
    48   23  147 1    
    49   23  148 1    
    50   24   25 am   BACKBONE|DICT|INTERRES
    51   24  149 1    
    52   25   26 2    
    53   25   27 1    
    54   27   28 1    
    55   27   29 1    
    56   27  150 1    
    57   28  151 1    
    58   28  152 1    
    59   28  153 1    
    60   29   30 am   BACKBONE|DICT|INTERRES
    61   29  154 1    
    62   30   31 2    
    63   30   32 1    
    64   32   33 1    
    65   32   34 1    
    66   32  155 1    
    67   33  156 1    
    68   33  157 1    
    69   33  158 1    
    70   34   35 am   BACKBONE|DICT|INTERRES
    71   34  159 1    
    72   35   36 2    
    73   35   37 1    
    74   37   38 1    
    75   37   39 1    
    76   37  160 1    
    77   38  161 1    
    78   38  162 1    
    79   38  163 1    
    80   39   40 am   BACKBONE|DICT|INTERRES
    81   39  164 1    
    82   40   41 2    
    83   40   42 1    
    84   42   43 1    
    85   42   44 1    
    86   42  165 1    
    87   43  166 1    
    88   43  167 1    
    89   43  168 1    
    90   44   45 am   BACKBONE|DICT|INTERRES
    91   44  169 1    
    92   45   46 2    
    93   45   47 1    
    94   47   48 1    
    95   47   49 1    
    96   47  170 1    
    97   48  171 1    
    98   48  172 1    
    99   48  173 1    
   100   49   50 am   BACKBONE|DICT|INTERRES
   101   49  174 1    
   102   50   51 2    
   103   50   52 1    
   104   52   53 1    
   105   52   54 1    
   106   52  175 1    
   107   53  176 1    
   108   53  177 1    
   109   53  178 1    
   110   54   55 am   BACKBONE|DICT|INTERRES
   111   54  179 1    
   112   55   56 2    
   113   55   57 1    
   114   57   58 1    
   115   57   59 1    
   116   57  180 1    
   117   58  181 1    
   118   58  182 1    
   119   58  183 1    
   120   59   60 am   BACKBONE|DICT|INTERRES
   121   59  184 1    
   122   60   61 2    
   123   60   62 1    
   124   62   63 1    
   125   62   64 1    
   126   62  185 1    
   127   63  186 1    
   128   63  187 1    
   129   63  188 1    
   130   64   65 am   BACKBONE|DICT|INTERRES
   131   64  189 1    
   132   65   66 2    
   133   67   68 2    
   134   67   69 am   BACKBONE|DICT|INTERRES
   135   69   70 1    
   136   69  190 1    
   137   70   71 1    
   138   70   72 1    
   139   70  191 1    
   140   71  192 1    
   141   71  193 1    
   142   71  194 1    
   143   72   73 2    
   144   72   74 am   BACKBONE|DICT|INTERRES
   145   74   75 1    
   146   74  195 1    
   147   75   76 1    
   148   75   77 1    
   149   75  196 1    
   150   76  197 1    
   151   76  198 1    
   152   76  199 1    
   153   77   78 2    
   154   77   79 am   BACKBONE|DICT|INTERRES
   155   79   80 1    
   156   79  200 1    
   157   80   81 1    
   158   80   82 1    
   159   80  201 1    
   160   81  202 1    
   161   81  203 1    
   162   81  204 1    
   163   82   83 2    
   164   82   84 am   BACKBONE|DICT|INTERRES
   165   84   85 1    
   166   84  205 1    
   167   85   86 1    
   168   85   87 1    
   169   85  206 1    
   170   86  207 1    
   171   86  208 1    
   172   86  209 1    
   173   87   88 2    
   174   87   89 am   BACKBONE|DICT|INTERRES
   175   89   90 1    
   176   89  210 1    
   177   90   91 1    
   178   90   92 1    
   179   90  211 1    
   180   91  212 1    
   181   91  213 1    
   182   91  214 1    
   183   92   93 2    
   184   92   94 am   BACKBONE|DICT|INTERRES
   185   94   95 1    
   186   94  215 1    
   187   95   96 1    
   188   95   97 1    
   189   95  216 1    
   190   96  217 1    
   191   96  218 1    
   192   96  219 1    
   193   97   98 2    
   194   97   99 am   BACKBONE|DICT|INTERRES
   195   99  100 1    
   196   99  220 1    
   197  100  101 1    
   198  100  102 1    
   199  100  221 1    
   200  101  222 1    
   201  101  223 1    
   202  101  224 1    
   203  102  103 2    
   204  102  104 am   BACKBONE|DICT|INTERRES
   205  104  105 1    
   206  104  225 1    
   207  105  106 1    
   208  105  107 1    
   209  105  226 1    
   210  106  227 1    
   211  106  228 1    
   212  106  229 1    
   213  107  108 2    
   214  107  109 am   BACKBONE|DICT|INTERRES
   215  109  110 1    
   216  109  230 1    
   217  110  111 1    
   218  110  112 1    
   219  110  231 1    
   220  111  232 1    
   221  111  233 1    
   222  111  234 1    
   223  112  113 2    
   224  112  114 am   BACKBONE|DICT|INTERRES
   225  114  115 1    
   226  114  235 1    
   227  115  116 1    
   228  115  117 1    
   229  115  236 1    
   230  116  237 1    
   231  116  238 1    
   232  116  239 1    
   233  117  118 2    
   234  117  119 am   BACKBONE|DICT|INTERRES
   235  119  120 1    
   236  119  240 1    
   237  120  121 1    
   238  120  124 1    
   239  120  241 1    
   240  121  122 am   BACKBONE|DICT|INTERRES
   241  121  123 2    
   242  122  242 1    
   243  122  243 1    
   244  124  125 1    
   245  124  244 1    
   246  124  245 1    
   247  125  126 1    
   248  126  246 1    
   249  126  247 1    
@<TRIPOS>SUBSTRUCTURE
     1 UNK         1 GROUP             0       ****    0 ROOT    
