@<TRIPOS>MOLECULE
3R540
247   249    1
SMALL
USER_CHARGES


@<TRIPOS>ATOM
      1 CA         -1.1433   -8.7524  -48.0928 C.3       0 UNK        -0.1800 
      2 C          -2.1024   -8.5318  -46.9236 C.2       0 UNK         0.5000 
      3 O          -2.5806   -7.4139  -46.7403 O.2       0 UNK        -0.5000 
      4 N          -2.4282   -9.5525  -46.1180 N.am      1 UNK        -0.5000 
      5 CA         -1.8766  -10.9111  -46.1403 C.3       1 UNK         0.1400 
      6 C6         -2.7737  -11.8867  -45.3358 C.3       23 UNK        -0.0398 
      7 S7         -2.6491  -13.6083  -45.9272 S.3       23 UNK        -0.2404 
      8 C8         -4.1433  -13.7100  -46.9620 C.3       23 UNK        -0.0205 
      9 C9         -4.2981  -15.0891  -47.5813 C.ar      23 UNK        -0.0193 
     10 C10        -3.6846  -15.3856  -48.8010 C.ar      23 UNK        -0.1150 
     11 C11        -3.8143  -16.6549  -49.3719 C.ar      23 UNK        -0.0193 
     12 C12        -4.5680  -17.6305  -48.7142 C.ar      23 UNK        -0.1150 
     13 C13        -5.1916  -17.3457  -47.4955 C.ar      23 UNK        -0.0193 
     14 C14        -5.0597  -16.0691  -46.9390 C.ar      23 UNK        -0.1150 
     15 C15        -6.0045  -18.4228  -46.7873 C.3       23 UNK        -0.0205 
     16 S16        -5.4895  -18.7122  -45.0594 S.3       23 UNK        -0.2404 
     17 C17        -3.6956  -19.0172  -45.2186 C.3       23 UNK        -0.0398 
     18 CA         -3.3330  -20.4240  -45.7511 C.3       11 UNK         0.1400 
     19 N          -1.9586  -20.4641  -46.2667 N.am      11 UNK        -0.5000 
     20 C          -1.3705  -21.5021  -46.8776 C.2       10 UNK         0.5000 
     21 O          -1.9345  -22.5777  -47.0772 O.2       10 UNK        -0.5000 
     22 CA          0.1053  -21.3340  -47.2852 C.3       10 UNK         0.1400 
     23 CB          0.2414  -20.5289  -48.5855 C.3       10 UNK        -0.1800 
     24 N           0.8936  -20.7029  -46.2273 N.am      10 UNK        -0.5000 
     25 C           1.1654  -21.2826  -45.0496 C.2       9 UNK         0.5000 
     26 O           0.8681  -22.4455  -44.7791 O.2       9 UNK        -0.5000 
     27 CA          1.8420  -20.4086  -43.9782 C.3       9 UNK         0.1400 
     28 CB          3.3689  -20.4351  -44.1354 C.3       9 UNK        -0.1800 
     29 N           1.3525  -19.0275  -43.9903 N.am      9 UNK        -0.5000 
     30 C           0.1015  -18.6720  -43.6636 C.2       8 UNK         0.5000 
     31 O          -0.7471  -19.4641  -43.2514 O.2       8 UNK        -0.5000 
     32 CA         -0.2845  -17.1978  -43.8875 C.3       8 UNK         0.1400 
     33 CB          0.0873  -16.3342  -42.6767 C.3       8 UNK        -0.1800 
     34 N           0.3074  -16.6382  -45.1046 N.am      8 UNK        -0.5000 
     35 C          -0.0369  -17.0345  -46.3377 C.2       7 UNK         0.5000 
     36 O          -0.8945  -17.8856  -46.5565 O.2       7 UNK        -0.5000 
     37 CA          0.7300  -16.4322  -47.5239 C.3       7 UNK         0.1400 
     38 CB          0.1140  -15.0931  -47.9477 C.3       7 UNK        -0.1800 
     39 N           2.1519  -16.2532  -47.2479 N.am      7 UNK        -0.5000 
     40 C           3.0294  -17.2491  -47.0674 C.2       6 UNK         0.5000 
     41 O           2.7210  -18.4421  -47.0925 O.2       6 UNK        -0.5000 
     42 CA          4.5024  -16.8508  -46.8213 C.3       6 UNK         0.1400 
     43 CB          4.7821  -15.3453  -47.0270 C.3       6 UNK        -0.1800 
     44 N           5.0271  -17.2490  -45.5113 N.am      6 UNK        -0.5000 
     45 C           4.4467  -17.0772  -44.3153 C.2       5 UNK         0.5000 
     46 O           3.2675  -16.7677  -44.1507 O.2       5 UNK        -0.5000 
     47 CA          5.3344  -17.2348  -43.0669 C.3       5 UNK         0.1400 
     48 CB          6.6852  -17.9447  -43.3120 C.3       5 UNK        -0.1800 
     49 N           5.5117  -15.9222  -42.4411 N.am      5 UNK        -0.5000 
     50 C           6.0971  -14.8397  -42.9746 C.2       4 UNK         0.5000 
     51 O           6.7509  -14.8480  -44.0192 O.2       4 UNK        -0.5000 
     52 CA          5.8434  -13.5111  -42.2353 C.3       4 UNK         0.1400 
     53 CB          6.7984  -12.3909  -42.6852 C.3       4 UNK        -0.1800 
     54 N           4.4654  -13.0613  -42.4407 N.am      4 UNK        -0.5000 
     55 C           3.3815  -13.5703  -41.8394 C.2       3 UNK         0.5000 
     56 O           3.4339  -14.4660  -40.9946 O.2       3 UNK        -0.5000 
     57 CA          2.0134  -12.9780  -42.2251 C.3       3 UNK         0.1400 
     58 CB          1.4999  -12.0483  -41.1150 C.3       3 UNK        -0.1800 
     59 N           2.0207  -12.2386  -43.4885 N.am      3 UNK        -0.5000 
     60 C           1.9539  -12.7918  -44.7056 C.2       2 UNK         0.5000 
     61 O           1.9093  -14.0047  -44.9173 O.2       2 UNK        -0.5000 
     62 CA          1.8635  -11.8065  -45.8850 C.3       2 UNK         0.1400 
     63 CB          2.6877  -12.2722  -47.0967 C.3       2 UNK        -0.1800 
     64 N           0.4685  -11.6325  -46.2860 N.am      2 UNK        -0.5000 
     65 C          -0.4289  -10.9085  -45.6058 C.2       1 UNK         0.5000 
     66 O          -0.1545  -10.2507  -44.5989 O.2       1 UNK        -0.5000 
     67 C          -3.6272  -21.5228  -44.7059 C.2       11 UNK         0.5000 
     68 O          -4.7444  -22.0390  -44.6748 O.2       11 UNK        -0.5000 
     69 N          -2.6137  -21.9288  -43.9271 N.am      12 UNK        -0.5000 
     70 CA         -2.6837  -23.0583  -42.9929 C.3       12 UNK         0.1400 
     71 CB         -1.3983  -23.1022  -42.1537 C.3       12 UNK        -0.1800 
     72 C          -2.9410  -24.4225  -43.6747 C.2       12 UNK         0.5000 
     73 O          -3.4505  -25.3334  -43.0214 O.2       12 UNK        -0.5000 
     74 N          -2.6207  -24.5286  -44.9717 N.am      13 UNK        -0.5000 
     75 CA         -2.9219  -25.6656  -45.8438 C.3       13 UNK         0.1400 
     76 CB         -1.6230  -26.0892  -46.5526 C.3       13 UNK        -0.1800 
     77 C          -4.0249  -25.3147  -46.8669 C.2       13 UNK         0.5000 
     78 O          -4.1690  -26.0177  -47.8694 O.2       13 UNK        -0.5000 
     79 N          -4.7547  -24.2110  -46.6347 N.am      14 UNK        -0.5000 
     80 CA         -5.7849  -23.6228  -47.4993 C.3       14 UNK         0.1400 
     81 CB         -7.0332  -24.5280  -47.5435 C.3       14 UNK        -0.1800 
     82 C          -5.2577  -23.2536  -48.9026 C.2       14 UNK         0.5000 
     83 O          -5.9829  -23.3894  -49.8870 O.2       14 UNK        -0.5000 
     84 N          -3.9847  -22.8365  -48.9729 N.am      15 UNK        -0.5000 
     85 CA         -3.2032  -22.5699  -50.1838 C.3       15 UNK         0.1400 
     86 CB         -3.7302  -21.3245  -50.9161 C.3       15 UNK        -0.1800 
     87 C          -3.0821  -23.8182  -51.0805 C.2       15 UNK         0.5000 
     88 O          -3.2711  -23.7367  -52.2978 O.2       15 UNK        -0.5000 
     89 N          -2.7985  -24.9543  -50.4244 N.am      16 UNK        -0.5000 
     90 CA         -2.7577  -26.3194  -50.9549 C.3       16 UNK         0.1400 
     91 CB         -1.6097  -26.4829  -51.9720 C.3       16 UNK        -0.1800 
     92 C          -4.1295  -26.7436  -51.5121 C.2       16 UNK         0.5000 
     93 O          -4.2161  -27.2138  -52.6454 O.2       16 UNK        -0.5000 
     94 N          -5.1878  -26.5046  -50.7222 N.am      17 UNK        -0.5000 
     95 CA         -6.6038  -26.6520  -51.0924 C.3       17 UNK         0.1400 
     96 CB         -6.9823  -28.1432  -51.1996 C.3       17 UNK        -0.1800 
     97 C          -6.9647  -25.8403  -52.3588 C.2       17 UNK         0.5000 
     98 O          -7.6207  -26.3504  -53.2684 O.2       17 UNK        -0.5000 
     99 N          -6.4713  -24.5953  -52.3932 N.am      18 UNK        -0.5000 
    100 CA        -6.5375  -23.6038  -53.4688 C.3       18 UNK         0.1400 
    101 CB        -7.9985  -23.1960  -53.7472 C.3       18 UNK        -0.1800 
    102 C         -5.7790  -23.9790  -54.7619 C.2       18 UNK         0.5000 
    103 O         -5.9091  -23.2562  -55.7510 O.2       18 UNK        -0.5000 
    104 N         -4.9914  -25.0659  -54.7582 N.am      19 UNK        -0.5000 
    105 CA        -4.2186  -25.5076  -55.9216 C.3       19 UNK         0.1400 
    106 CB        -3.8435  -26.9897  -55.7768 C.3       19 UNK        -0.1800 
    107 C         -2.9581  -24.6574  -56.1544 C.2       19 UNK         0.5000 
    108 O         -2.5857  -24.4442  -57.3092 O.2       19 UNK        -0.5000 
    109 N         -2.3256  -24.1870  -55.0697 N.am      20 UNK        -0.5000 
    110 CA        -1.1603  -23.3039  -55.1326 C.3       20 UNK         0.1400 
    111 CB        -0.2490  -23.5441  -53.9185 C.3       20 UNK        -0.1800 
    112 C         -1.5865  -21.8306  -55.2066 C.2       20 UNK         0.5000 
    113 O         -0.9282  -21.0459  -55.8902 O.2       20 UNK        -0.5000 
    114 N         -2.6695  -21.4812  -54.4919 N.am      21 UNK        -0.5000 
    115 CA        -3.3095  -20.1564  -54.4440 C.3       21 UNK         0.1400 
    116 CB        -4.0079  -19.8610  -55.7869 C.3       21 UNK        -0.1800 
    117 C         -2.3627  -19.0123  -54.0048 C.2       21 UNK         0.5000 
    118 O         -2.5632  -17.8633  -54.4010 O.2       21 UNK        -0.5000 
    119 N         -1.3380  -19.3593  -53.2121 N.am      22 UNK        -0.5000 
    120 CA        -0.2067  -18.5043  -52.8073 C.3       22 UNK         0.1400 
    121 C          0.7633  -18.1233  -53.9710 C.2       22 UNK         0.5000 
    122 N          0.7182  -18.7770  -55.1263 N.am      22 UNK        -0.7600 
    123 O          1.6017  -17.2388  -53.8186 O.2       22 UNK        -0.5000 
    124 C124       -0.6235  -17.2691  -51.9595 C.3       23 UNK        -0.0398 
    125 S125       -1.5008  -17.7122  -50.4217 S.3       23 UNK        -0.2404 
    126 C126       -3.1355  -16.9666  -50.6956 C.3       23 UNK        -0.0205 
    127 H127       -1.4599   -9.5899  -48.7138 H         1 UNK         0.0600 
    128 H128       -0.1304   -8.9373  -47.7361 H         1 UNK         0.0600 
    129 H129       -1.1124   -7.8681  -48.7297 H         1 UNK         0.0600 
    130 H130       -3.0433   -9.3587  -45.3410 H         1 UNK         0.3000 
    131 H131       -1.8688  -11.2421  -47.1803 H         1 UNK         0.0600 
    132 H132       -2.5419  -11.8603  -44.2690 H         1 UNK         0.0800 
    133 H133       -3.8190  -11.5826  -45.4073 H         1 UNK         0.0800 
    134 H134       -5.0216  -13.4744  -46.3589 H         1 UNK         0.0800 
    135 H135       -4.0945  -12.9533  -47.7466 H         1 UNK         0.0800 
    136 H136       -3.0962  -14.6295  -49.3016 H         1 UNK         0.1150 
    137 H137       -4.6644  -18.6131  -49.1518 H         1 UNK         0.1150 
    138 H138       -5.5374  -15.8445  -45.9956 H         1 UNK         0.1150 
    139 H139       -7.0546  -18.1281  -46.7938 H         1 UNK         0.0800 
    140 H140       -5.9511  -19.3675  -47.3303 H         1 UNK         0.0800 
    141 H141       -3.2301  -18.8430  -44.2476 H         1 UNK         0.0800 
    142 H142       -3.2890  -18.2489  -45.8738 H         1 UNK         0.0800 
    143 H143       -3.9715  -20.6311  -46.6118 H         1 UNK         0.0600 
    144 H144       -1.4416  -19.5882  -46.2119 H         1 UNK         0.3000 
    145 H145        0.5147  -22.3305  -47.4640 H         1 UNK         0.0600 
    146 H146        1.2850  -20.4450  -48.8892 H         1 UNK         0.0600 
    147 H147       -0.2977  -21.0042  -49.4045 H         1 UNK         0.0600 
    148 H148       -0.1532  -19.5201  -48.4772 H         1 UNK         0.0600 
    149 H149        1.2269  -19.7606  -46.3983 H         1 UNK         0.3000 
    150 H150        1.5989  -20.8403  -43.0048 H         1 UNK         0.0600 
    151 H151        3.7418  -21.4601  -44.1396 H         1 UNK         0.0600 
    152 H152        3.8571  -19.9207  -43.3089 H         1 UNK         0.0600 
    153 H153        3.6888  -19.9683  -45.0670 H         1 UNK         0.0600 
    154 H154        1.9904  -18.3021  -44.3033 H         1 UNK         0.3000 
    155 H155       -1.3702  -17.1589  -43.9972 H         1 UNK         0.0600 
    156 H156       -0.3167  -16.7552  -41.7552 H         1 UNK         0.0600 
    157 H157       -0.3254  -15.3313  -42.7821 H         1 UNK         0.0600 
    158 H158        1.1676  -16.2501  -42.5552 H         1 UNK         0.0600 
    159 H159        1.0508  -15.9548  -44.9906 H         1 UNK         0.3000 
    160 H160        0.6414  -17.1253  -48.3624 H         1 UNK         0.0600 
    161 H161        0.1564  -14.3627  -47.1406 H         1 UNK         0.0600 
    162 H162       -0.9340  -15.2223  -48.2157 H         1 UNK         0.0600 
    163 H163        0.6228  -14.6767  -48.8170 H         1 UNK         0.0600 
    164 H164        2.4711  -15.3051  -47.1154 H         1 UNK         0.3000 
    165 H165        5.0842  -17.3969  -47.5650 H         1 UNK         0.0600 
    166 H166        5.8504  -15.1379  -46.9617 H         1 UNK         0.0600 
    167 H167        4.4522  -15.0031  -48.0088 H         1 UNK         0.0600 
    168 H168        4.2892  -14.7368  -46.2680 H         1 UNK         0.0600 
    169 H169        5.9949  -17.5369  -45.5115 H         1 UNK         0.3000 
    170 H170        4.7674  -17.8396  -42.3581 H         1 UNK         0.0600 
    171 H171        6.5305  -18.9426  -43.7242 H         1 UNK         0.0600 
    172 H172        7.3321  -17.3995  -43.9993 H         1 UNK         0.0600 
    173 H173        7.2318  -18.0666  -42.3769 H         1 UNK         0.0600 
    174 H174        4.9148  -15.7509  -41.6385 H         1 UNK         0.3000 
    175 H175        6.0090  -13.6830  -41.1696 H         1 UNK         0.0600 
    176 H176        6.6626  -12.1404  -43.7381 H         1 UNK         0.0600 
    177 H177        6.6420  -11.4829  -42.1025 H         1 UNK         0.0600 
    178 H178        7.8391  -12.6878  -42.5490 H         1 UNK         0.0600 
    179 H179        4.3254  -12.3454  -43.1376 H         1 UNK         0.3000 
    180 H180        1.3155  -13.8090  -42.3146 H         1 UNK         0.0600 
    181 H181        2.1547  -11.1872  -40.9757 H         1 UNK         0.0600 
    182 H182        1.4398  -12.5734  -40.1607 H         1 UNK         0.0600 
    183 H183        0.5004  -11.6773  -41.3433 H         1 UNK         0.0600 
    184 H184        1.9844  -11.2312  -43.4156 H         1 UNK         0.3000 
    185 H185        2.2649  -10.8409  -45.5690 H         1 UNK         0.0600 
    186 H186        3.7379  -12.3903  -46.8281 H         1 UNK         0.0600 
    187 H187        2.3385  -13.2254  -47.4910 H         1 UNK         0.0600 
    188 H188        2.6424  -11.5422  -47.9050 H         1 UNK         0.0600 
    189 H189        0.1648  -12.1673  -47.0859 H         1 UNK         0.3000 
    190 H190       -1.7305  -21.4372  -43.9860 H         1 UNK         0.3000 
    191 H191       -3.5208  -22.8709  -42.3174 H         1 UNK         0.0600 
    192 H192       -1.2117  -22.1469  -41.6623 H         1 UNK         0.0600 
    193 H193       -1.4692  -23.8615  -41.3740 H         1 UNK         0.0600 
    194 H194       -0.5279  -23.3430  -42.7631 H         1 UNK         0.0600 
    195 H195       -2.2171  -23.7242  -45.4406 H         1 UNK         0.3000 
    196 H196       -3.2859  -26.5127  -45.2597 H         1 UNK         0.0600 
    197 H197       -0.8451  -26.3372  -45.8304 H         1 UNK         0.0600 
    198 H198       -1.2394  -25.2972  -47.1970 H         1 UNK         0.0600 
    199 H199       -1.7800  -26.9726  -47.1728 H         1 UNK         0.0600 
    200 H200       -4.5716  -23.6879  -45.7849 H         1 UNK         0.3000 
    201 H201       -6.0782  -22.6807  -47.0344 H         1 UNK         0.0600 
    202 H202       -7.8397  -24.0612  -48.1104 H         1 UNK         0.0600 
    203 H203       -7.4136  -24.7180  -46.5400 H         1 UNK         0.0600 
    204 H204       -6.8209  -25.4914  -48.0063 H         1 UNK         0.0600 
    205 H205       -3.4457  -22.7945  -48.1112 H         1 UNK         0.3000 
    206 H206       -2.1905  -22.3455  -49.8506 H         1 UNK         0.0600 
    207 H207       -3.8007  -20.4740  -50.2397 H         1 UNK         0.0600 
    208 H208       -4.7129  -21.4898  -51.3576 H         1 UNK         0.0600 
    209 H209       -3.0462  -21.0405  -51.7115 H         1 UNK         0.0600 
    210 H210       -2.7275  -24.8963  -49.4181 H         1 UNK         0.3000 
    211 H211       -2.5489  -26.9764  -50.1093 H         1 UNK         0.0600 
    212 H212       -0.6601  -26.1486  -51.5545 H         1 UNK         0.0600 
    213 H213       -1.4907  -27.5286  -52.2573 H         1 UNK         0.0600 
    214 H214       -1.7926  -25.9185  -52.8851 H         1 UNK         0.0600 
    215 H215       -5.0050  -26.1356  -49.7948 H         1 UNK         0.3000 
    216 H216       -7.1864  -26.2199  -50.2783 H         1 UNK         0.0600 
    217 H217       -8.0531  -28.2631  -51.3677 H         1 UNK         0.0600 
    218 H218       -6.4646  -28.6350  -52.0238 H         1 UNK         0.0600 
    219 H219       -6.7363  -28.6781  -50.2823 H         1 UNK         0.0600 
    220 H220       -6.0055  -24.2650  -51.5512 H         1 UNK         0.3000 
    221 H221       -6.0247  -22.7240  -53.0785 H         1 UNK         0.0600 
    222 H222       -8.5655  -24.0068  -54.2049 H         1 UNK         0.0600 
    223 H223       -8.5080  -22.9057  -52.8283 H         1 UNK         0.0600 
    224 H224       -8.0462  -22.3427  -54.4247 H         1 UNK         0.0600 
    225 H225       -4.9125  -25.6248  -53.9163 H         1 UNK         0.3000 
    226 H226       -4.8521  -25.4149  -56.8066 H         1 UNK         0.0600 
    227 H227       -4.7170  -27.6013  -55.5499 H         1 UNK         0.0600 
    228 H228       -3.4095  -27.3702  -56.7021 H         1 UNK         0.0600 
    229 H229       -3.1072  -27.1450  -54.9879 H         1 UNK         0.0600 
    230 H230       -2.7201  -24.3606  -54.1509 H         1 UNK         0.3000 
    231 H231       -0.5781  -23.5284  -56.0290 H         1 UNK         0.0600 
    232 H232        0.6426  -22.9183  -53.9739 H         1 UNK         0.0600 
    233 H233        0.0866  -24.5803  -53.8781 H         1 UNK         0.0600 
    234 H234       -0.7476  -23.3156  -52.9773 H         1 UNK         0.0600 
    235 H235       -3.1077  -22.2035  -53.9337 H         1 UNK         0.3000 
    236 H236       -4.0882  -20.2149  -53.6830 H         1 UNK         0.0600 
    237 H237       -4.6798  -20.6723  -56.0676 H         1 UNK         0.0600 
    238 H238       -4.6075  -18.9520  -55.7279 H         1 UNK         0.0600 
    239 H239       -3.2882  -19.7276  -56.5951 H         1 UNK         0.0600 
    240 H240       -1.2563  -20.3304  -52.9542 H         1 UNK         0.3000 
    241 H241        0.4009  -19.1357  -52.1582 H         1 UNK         0.0600 
    242 H242        1.3614  -18.5210  -55.8581 H         1 UNK         0.3800 
    243 H243        0.0512  -19.5257  -55.2927 H         1 UNK         0.3800 
    244 H244        0.2594  -16.7063  -51.6525 H         1 UNK         0.0800 
    245 H245       -1.2178  -16.5771  -52.5560 H         1 UNK         0.0800 
    246 H246       -3.7481  -17.6465  -51.2895 H         1 UNK         0.0800 
    247 H247       -3.0394  -16.0489  -51.2775 H         1 UNK         0.0800 
@<TRIPOS>BOND
     1    1    2 1    
     2    1  127 1    
     3    1  128 1    
     4    1  129 1    
     5    2    3 2    
     6    2    4 am   BACKBONE|DICT|INTERRES
     7    4    5 1    
     8    4  130 1    
     9    5    6 1    
    10    5   65 1    
    11    5  131 1    
    12    6    7 1    
    13    6  132 1    
    14    6  133 1    
    15    7    8 1    
    16    8    9 1    
    17    8  134 1    
    18    8  135 1    
    19    9   10 ar   
    20    9   14 ar   
    21   10   11 ar   
    22   10  136 1    
    23   11   12 ar   
    24   11  126 1    
    25   12   13 ar   
    26   12  137 1    
    27   13   14 ar   
    28   13   15 1    
    29   14  138 1    
    30   15   16 1    
    31   15  139 1    
    32   15  140 1    
    33   16   17 1    
    34   17   18 1    
    35   17  141 1    
    36   17  142 1    
    37   18   19 1    
    38   18   67 1    
    39   18  143 1    
    40   19   20 am   BACKBONE|DICT|INTERRES
    41   19  144 1    
    42   20   21 2    
    43   20   22 1    
    44   22   23 1    
    45   22   24 1    
    46   22  145 1    
    47   23  146 1    
    48   23  147 1    
    49   23  148 1    
    50   24   25 am   BACKBONE|DICT|INTERRES
    51   24  149 1    
    52   25   26 2    
    53   25   27 1    
    54   27   28 1    
    55   27   29 1    
    56   27  150 1    
    57   28  151 1    
    58   28  152 1    
    59   28  153 1    
    60   29   30 am   BACKBONE|DICT|INTERRES
    61   29  154 1    
    62   30   31 2    
    63   30   32 1    
    64   32   33 1    
    65   32   34 1    
    66   32  155 1    
    67   33  156 1    
    68   33  157 1    
    69   33  158 1    
    70   34   35 am   BACKBONE|DICT|INTERRES
    71   34  159 1    
    72   35   36 2    
    73   35   37 1    
    74   37   38 1    
    75   37   39 1    
    76   37  160 1    
    77   38  161 1    
    78   38  162 1    
    79   38  163 1    
    80   39   40 am   BACKBONE|DICT|INTERRES
    81   39  164 1    
    82   40   41 2    
    83   40   42 1    
    84   42   43 1    
    85   42   44 1    
    86   42  165 1    
    87   43  166 1    
    88   43  167 1    
    89   43  168 1    
    90   44   45 am   BACKBONE|DICT|INTERRES
    91   44  169 1    
    92   45   46 2    
    93   45   47 1    
    94   47   48 1    
    95   47   49 1    
    96   47  170 1    
    97   48  171 1    
    98   48  172 1    
    99   48  173 1    
   100   49   50 am   BACKBONE|DICT|INTERRES
   101   49  174 1    
   102   50   51 2    
   103   50   52 1    
   104   52   53 1    
   105   52   54 1    
   106   52  175 1    
   107   53  176 1    
   108   53  177 1    
   109   53  178 1    
   110   54   55 am   BACKBONE|DICT|INTERRES
   111   54  179 1    
   112   55   56 2    
   113   55   57 1    
   114   57   58 1    
   115   57   59 1    
   116   57  180 1    
   117   58  181 1    
   118   58  182 1    
   119   58  183 1    
   120   59   60 am   BACKBONE|DICT|INTERRES
   121   59  184 1    
   122   60   61 2    
   123   60   62 1    
   124   62   63 1    
   125   62   64 1    
   126   62  185 1    
   127   63  186 1    
   128   63  187 1    
   129   63  188 1    
   130   64   65 am   BACKBONE|DICT|INTERRES
   131   64  189 1    
   132   65   66 2    
   133   67   68 2    
   134   67   69 am   BACKBONE|DICT|INTERRES
   135   69   70 1    
   136   69  190 1    
   137   70   71 1    
   138   70   72 1    
   139   70  191 1    
   140   71  192 1    
   141   71  193 1    
   142   71  194 1    
   143   72   73 2    
   144   72   74 am   BACKBONE|DICT|INTERRES
   145   74   75 1    
   146   74  195 1    
   147   75   76 1    
   148   75   77 1    
   149   75  196 1    
   150   76  197 1    
   151   76  198 1    
   152   76  199 1    
   153   77   78 2    
   154   77   79 am   BACKBONE|DICT|INTERRES
   155   79   80 1    
   156   79  200 1    
   157   80   81 1    
   158   80   82 1    
   159   80  201 1    
   160   81  202 1    
   161   81  203 1    
   162   81  204 1    
   163   82   83 2    
   164   82   84 am   BACKBONE|DICT|INTERRES
   165   84   85 1    
   166   84  205 1    
   167   85   86 1    
   168   85   87 1    
   169   85  206 1    
   170   86  207 1    
   171   86  208 1    
   172   86  209 1    
   173   87   88 2    
   174   87   89 am   BACKBONE|DICT|INTERRES
   175   89   90 1    
   176   89  210 1    
   177   90   91 1    
   178   90   92 1    
   179   90  211 1    
   180   91  212 1    
   181   91  213 1    
   182   91  214 1    
   183   92   93 2    
   184   92   94 am   BACKBONE|DICT|INTERRES
   185   94   95 1    
   186   94  215 1    
   187   95   96 1    
   188   95   97 1    
   189   95  216 1    
   190   96  217 1    
   191   96  218 1    
   192   96  219 1    
   193   97   98 2    
   194   97   99 am   BACKBONE|DICT|INTERRES
   195   99  100 1    
   196   99  220 1    
   197  100  101 1    
   198  100  102 1    
   199  100  221 1    
   200  101  222 1    
   201  101  223 1    
   202  101  224 1    
   203  102  103 2    
   204  102  104 am   BACKBONE|DICT|INTERRES
   205  104  105 1    
   206  104  225 1    
   207  105  106 1    
   208  105  107 1    
   209  105  226 1    
   210  106  227 1    
   211  106  228 1    
   212  106  229 1    
   213  107  108 2    
   214  107  109 am   BACKBONE|DICT|INTERRES
   215  109  110 1    
   216  109  230 1    
   217  110  111 1    
   218  110  112 1    
   219  110  231 1    
   220  111  232 1    
   221  111  233 1    
   222  111  234 1    
   223  112  113 2    
   224  112  114 am   BACKBONE|DICT|INTERRES
   225  114  115 1    
   226  114  235 1    
   227  115  116 1    
   228  115  117 1    
   229  115  236 1    
   230  116  237 1    
   231  116  238 1    
   232  116  239 1    
   233  117  118 2    
   234  117  119 am   BACKBONE|DICT|INTERRES
   235  119  120 1    
   236  119  240 1    
   237  120  121 1    
   238  120  124 1    
   239  120  241 1    
   240  121  122 am   BACKBONE|DICT|INTERRES
   241  121  123 2    
   242  122  242 1    
   243  122  243 1    
   244  124  125 1    
   245  124  244 1    
   246  124  245 1    
   247  125  126 1    
   248  126  246 1    
   249  126  247 1    
@<TRIPOS>SUBSTRUCTURE
     1 UNK         1 GROUP             0       ****    0 ROOT    
