@<TRIPOS>MOLECULE
3R540
247   249    1
SMALL
USER_CHARGES


@<TRIPOS>ATOM
      1 CA          1.2561  -15.6882  -51.7795 C.3       0 UNK        -0.1800 
      2 C           1.6857  -14.8984  -50.5534 C.2       0 UNK         0.5000 
      3 O           2.6948  -14.1942  -50.5999 O.2       0 UNK        -0.5000 
      4 N           0.9320  -15.0218  -49.4557 N.am      1 UNK        -0.5000 
      5 CA          1.1621  -14.3150  -48.1959 C.3       1 UNK         0.1400 
      6 C6          0.4022  -14.9673  -47.0134 C.3       23 UNK        -0.0398 
      7 S7         -1.3973  -15.1972  -47.2676 S.3       23 UNK        -0.2404 
      8 C8         -1.5910  -17.0074  -47.1870 C.3       23 UNK        -0.0205 
      9 C9         -1.0280  -17.7037  -48.4156 C.ar      23 UNK        -0.0193 
     10 C10        -1.8130  -17.8480  -49.5622 C.ar      23 UNK        -0.1150 
     11 C11        -1.3072  -18.4964  -50.6922 C.ar      23 UNK        -0.0193 
     12 C12        -0.0007  -18.9949  -50.6716 C.ar      23 UNK        -0.1150 
     13 C13         0.7931  -18.8608  -49.5283 C.ar      23 UNK        -0.0193 
     14 C14         0.2713  -18.2169  -48.4036 C.ar      23 UNK        -0.1150 
     15 C15         2.2220  -19.3850  -49.5191 C.3       23 UNK        -0.0205 
     16 S16         2.3136  -21.1550  -49.0980 S.3       23 UNK        -0.2404 
     17 C17         2.0824  -21.1263  -47.2859 C.3       23 UNK        -0.0398 
     18 CA          1.4469  -22.4211  -46.7260 C.3       11 UNK         0.1400 
     19 N           1.5411  -22.4821  -45.2653 N.am      11 UNK        -0.5000 
     20 C           1.2328  -23.5549  -44.5225 C.2       10 UNK         0.5000 
     21 O           0.8968  -24.6403  -44.9940 O.2       10 UNK        -0.5000 
     22 CA          1.2616  -23.3760  -42.9939 C.3       10 UNK         0.1400 
     23 CB          2.6947  -23.5047  -42.4571 C.3       10 UNK        -0.1800 
     24 N           0.6795  -22.1049  -42.5591 N.am      10 UNK        -0.5000 
     25 C          -0.6004  -21.7521  -42.7497 C.2       9 UNK         0.5000 
     26 O          -1.4377  -22.4794  -43.2810 O.2       9 UNK        -0.5000 
     27 CA         -1.0061  -20.3309  -42.3231 C.3       9 UNK         0.1400 
     28 CB         -1.2376  -20.2560  -40.8067 C.3       9 UNK        -0.1800 
     29 N          -0.0239  -19.3243  -42.7200 N.am      9 UNK        -0.5000 
     30 C           0.3180  -19.0462  -43.9858 C.2       8 UNK         0.5000 
     31 O          -0.1857  -19.5837  -44.9721 O.2       8 UNK        -0.5000 
     32 CA          1.4614  -18.0368  -44.1752 C.3       8 UNK         0.1400 
     33 CB          0.9740  -16.5978  -43.9490 C.3       8 UNK        -0.1800 
     34 N           2.5869  -18.3195  -43.2854 N.am      8 UNK        -0.5000 
     35 C           3.3535  -19.4172  -43.3529 C.2       7 UNK         0.5000 
     36 O           3.2244  -20.2908  -44.2104 O.2       7 UNK        -0.5000 
     37 CA          4.4156  -19.5808  -42.2506 C.3       7 UNK         0.1400 
     38 CB          5.6936  -18.8099  -42.6123 C.3       7 UNK        -0.1800 
     39 N           3.9361  -19.1384  -40.9392 N.am      7 UNK        -0.5000 
     40 C           2.9738  -19.7549  -40.2377 C.2       6 UNK         0.5000 
     41 O           2.4045  -20.7791  -40.6125 O.2       6 UNK        -0.5000 
     42 CA          2.5383  -19.0793  -38.9232 C.3       6 UNK         0.1400 
     43 CB          3.4910  -19.4531  -37.7780 C.3       6 UNK        -0.1800 
     44 N           2.4522  -17.6192  -39.0339 N.am      6 UNK        -0.5000 
     45 C           1.6088  -16.9795  -39.8534 C.2       5 UNK         0.5000 
     46 O           0.8046  -17.5596  -40.5893 O.2       5 UNK        -0.5000 
     47 CA          1.7097  -15.4481  -39.9000 C.3       5 UNK         0.1400 
     48 CB          2.9950  -15.0202  -40.6385 C.3       5 UNK        -0.1800 
     49 N           0.5309  -14.9504  -40.6007 N.am      5 UNK        -0.5000 
     50 C           0.1463  -13.6795  -40.7352 C.2       4 UNK         0.5000 
     51 O           0.7187  -12.7226  -40.2076 O.2       4 UNK        -0.5000 
     52 CA         -1.1122  -13.4459  -41.5934 C.3       4 UNK         0.1400 
     53 CB         -2.3561  -13.3003  -40.7034 C.3       4 UNK        -0.1800 
     54 N          -0.9852  -12.2581  -42.4386 N.am      4 UNK        -0.5000 
     55 C          -0.1224  -12.1418  -43.4553 C.2       3 UNK         0.5000 
     56 O           0.6229  -13.0516  -43.8327 O.2       3 UNK        -0.5000 
     57 CA         -0.0815  -10.7804  -44.1662 C.3       3 UNK         0.1400 
     58 CB          0.5922   -9.7128  -43.2823 C.3       3 UNK        -0.1800 
     59 N           0.6610  -10.9415  -45.4105 N.am      3 UNK        -0.5000 
     60 C           0.6591  -10.1142  -46.4613 C.2       2 UNK         0.5000 
     61 O           0.0059   -9.0712  -46.5107 O.2       2 UNK        -0.5000 
     62 CA          1.5374  -10.5198  -47.6610 C.3       2 UNK         0.1400 
     63 CB          2.9147   -9.8447  -47.5669 C.3       2 UNK        -0.1800 
     64 N           1.7233  -11.9711  -47.7466 N.am      2 UNK        -0.5000 
     65 C           0.8492  -12.8079  -48.3208 C.2       1 UNK         0.5000 
     66 O          -0.1690  -12.4344  -48.9088 O.2       1 UNK        -0.5000 
     67 C          -0.0081  -22.6181  -47.2011 C.2       11 UNK         0.5000 
     68 O          -0.2572  -23.4883  -48.0351 O.2       11 UNK        -0.5000 
     69 N          -0.9456  -21.8556  -46.6189 N.am      12 UNK        -0.5000 
     70 CA         -2.3787  -21.9362  -46.9084 C.3       12 UNK         0.1400 
     71 CB         -3.1172  -20.8296  -46.1417 C.3       12 UNK        -0.1800 
     72 C          -2.9837  -23.3213  -46.6049 C.2       12 UNK         0.5000 
     73 O          -3.7786  -23.8243  -47.4001 O.2       12 UNK        -0.5000 
     74 N          -2.5661  -23.9292  -45.4844 N.am      13 UNK        -0.5000 
     75 CA         -2.9363  -25.2861  -45.0778 C.3       13 UNK         0.1400 
     76 CB         -2.4570  -25.5434  -43.6416 C.3       13 UNK        -0.1800 
     77 C          -2.4000  -26.3732  -46.0280 C.2       13 UNK         0.5000 
     78 O          -3.0769  -27.3808  -46.2337 O.2       13 UNK        -0.5000 
     79 N          -1.2290  -26.1389  -46.6356 N.am      14 UNK        -0.5000 
     80 CA         -0.5914  -26.9974  -47.6385 C.3       14 UNK         0.1400 
     81 CB          0.9292  -26.7582  -47.6118 C.3       14 UNK        -0.1800 
     82 C          -1.2000  -26.8269  -49.0508 C.2       14 UNK         0.5000 
     83 O          -0.4695  -26.8053  -50.0425 O.2       14 UNK        -0.5000 
     84 N          -2.5349  -26.7258  -49.1116 N.am      15 UNK        -0.5000 
     85 CA         -3.3977  -26.6610  -50.2952 C.3       15 UNK         0.1400 
     86 CB         -3.2781  -27.9547  -51.1277 C.3       15 UNK        -0.1800 
     87 C          -3.2463  -25.3948  -51.1647 C.2       15 UNK         0.5000 
     88 O          -3.8072  -25.3569  -52.2624 O.2       15 UNK        -0.5000 
     89 N          -2.5471  -24.3600  -50.6767 N.am      16 UNK        -0.5000 
     90 CA         -2.4045  -23.0727  -51.3595 C.3       16 UNK         0.1400 
     91 CB         -1.0915  -22.3966  -50.9335 C.3       16 UNK        -0.1800 
     92 C          -3.6497  -22.1953  -51.1174 C.2       16 UNK         0.5000 
     93 O          -3.5890  -21.1985  -50.3976 O.2       16 UNK        -0.5000 
     94 N          -4.7758  -22.6172  -51.7035 N.am      17 UNK        -0.5000 
     95 CA         -6.0658  -21.9349  -51.6675 C.3       17 UNK         0.1400 
     96 CB         -7.1106  -22.8258  -52.3545 C.3       17 UNK        -0.1800 
     97 C          -6.0139  -20.5520  -52.3422 C.2       17 UNK         0.5000 
     98 O          -5.4630  -20.4267  -53.4421 O.2       17 UNK        -0.5000 
     99 N          -6.6167  -19.5552  -51.6795 N.am      18 UNK        -0.5000 
    100 CA        -6.7348  -18.1694  -52.1346 C.3       18 UNK         0.1400 
    101 CB        -7.5052  -17.3550  -51.0848 C.3       18 UNK        -0.1800 
    102 C         -7.4200  -18.0763  -53.5091 C.2       18 UNK         0.5000 
    103 O         -8.4958  -18.6514  -53.6913 O.2       18 UNK        -0.5000 
    104 N         -6.7544  -17.3948  -54.4507 N.am      19 UNK        -0.5000 
    105 CA        -7.0595  -17.2603  -55.8814 C.3       19 UNK         0.1400 
    106 CB        -8.4059  -16.5474  -56.1093 C.3       19 UNK        -0.1800 
    107 C         -6.9841  -18.5812  -56.6764 C.2       19 UNK         0.5000 
    108 O         -6.3102  -18.6221  -57.7060 O.2       19 UNK        -0.5000 
    109 N         -7.6595  -19.6286  -56.1869 N.am      20 UNK        -0.5000 
    110 CA        -7.8173  -20.9386  -56.8207 C.3       20 UNK         0.1400 
    111 CB        -8.7395  -21.8089  -55.9539 C.3       20 UNK        -0.1800 
    112 C         -6.4902  -21.6630  -57.1087 C.2       20 UNK         0.5000 
    113 O         -6.3269  -22.2036  -58.2037 O.2       20 UNK        -0.5000 
    114 N         -5.5667  -21.6368  -56.1401 N.am      21 UNK        -0.5000 
    115 CA        -4.1947  -22.1225  -56.3000 C.3       21 UNK         0.1400 
    116 CB        -3.8544  -23.0721  -55.1436 C.3       21 UNK        -0.1800 
    117 C         -3.2006  -20.9499  -56.3352 C.2       21 UNK         0.5000 
    118 O         -2.1703  -21.0525  -57.0016 O.2       21 UNK        -0.5000 
    119 N         -3.5217  -19.8652  -55.6163 N.am      22 UNK        -0.5000 
    120 CA        -2.7020  -18.6489  -55.5024 C.3       22 UNK         0.1400 
    121 C         -2.5250  -17.8374  -56.8202 C.2       22 UNK         0.5000 
    122 N         -3.4320  -17.9273  -57.7857 N.am      22 UNK        -0.7600 
    123 O         -1.5443  -17.1144  -56.9698 O.2       22 UNK        -0.5000 
    124 C124       -3.2127  -17.7441  -54.3455 C.3       23 UNK        -0.0398 
    125 S125       -1.9215  -17.3349  -53.1298 S.3       23 UNK        -0.2404 
    126 C126       -2.1817  -18.6703  -51.9238 C.3       23 UNK        -0.0205 
    127 H127        0.3017  -16.1850  -51.6138 H         1 UNK         0.0600 
    128 H128        1.9988  -16.4494  -52.0181 H         1 UNK         0.0600 
    129 H129        1.1493  -15.0272  -52.6394 H         1 UNK         0.0600 
    130 H130        0.1004  -15.5961  -49.4798 H         1 UNK         0.3000 
    131 H131        2.2275  -14.4086  -47.9734 H         1 UNK         0.0600 
    132 H132        0.8587  -15.9312  -46.7967 H         1 UNK         0.0800 
    133 H133        0.5413  -14.3803  -46.1053 H         1 UNK         0.0800 
    134 H134       -1.1244  -17.3935  -46.2815 H         1 UNK         0.0800 
    135 H135       -2.6530  -17.2396  -47.0954 H         1 UNK         0.0800 
    136 H136       -2.8215  -17.4590  -49.5734 H         1 UNK         0.1150 
    137 H137        0.3987  -19.4889  -51.5458 H         1 UNK         0.1150 
    138 H138        0.8797  -18.1106  -47.5183 H         1 UNK         0.1150 
    139 H139        2.6647  -19.2386  -50.5054 H         1 UNK         0.0800 
    140 H140        2.8378  -18.8104  -48.8254 H         1 UNK         0.0800 
    141 H141        1.4922  -20.2601  -46.9924 H         1 UNK         0.0800 
    142 H142        3.0679  -20.9793  -46.8423 H         1 UNK         0.0800 
    143 H143        2.0272  -23.2636  -47.1087 H         1 UNK         0.0600 
    144 H144        1.8554  -21.6386  -44.7963 H         1 UNK         0.3000 
    145 H145        0.6645  -24.1787  -42.5566 H         1 UNK         0.0600 
    146 H146        2.7119  -23.4679  -41.3678 H         1 UNK         0.0600 
    147 H147        3.1404  -24.4538  -42.7572 H         1 UNK         0.0600 
    148 H148        3.3378  -22.7072  -42.8292 H         1 UNK         0.0600 
    149 H149        1.2955  -21.4699  -42.0598 H         1 UNK         0.3000 
    150 H150       -1.9466  -20.0902  -42.8227 H         1 UNK         0.0600 
    151 H151       -1.9860  -20.9831  -40.4894 H         1 UNK         0.0600 
    152 H152       -1.5955  -19.2694  -40.5117 H         1 UNK         0.0600 
    153 H153       -0.3236  -20.4590  -40.2482 H         1 UNK         0.0600 
    154 H154        0.4206  -18.8059  -41.9672 H         1 UNK         0.3000 
    155 H155        1.8120  -18.1210  -45.2058 H         1 UNK         0.0600 
    156 H156        0.7059  -16.4192  -42.9112 H         1 UNK         0.0600 
    157 H157        1.7393  -15.8716  -44.2232 H         1 UNK         0.0600 
    158 H158        0.0862  -16.3806  -44.5411 H         1 UNK         0.0600 
    159 H159        2.7393  -17.6745  -42.5261 H         1 UNK         0.3000 
    160 H160        4.6648  -20.6418  -42.1826 H         1 UNK         0.0600 
    161 H161        6.4786  -18.9808  -41.8754 H         1 UNK         0.0600 
    162 H162        5.5155  -17.7354  -42.6707 H         1 UNK         0.0600 
    163 H163        6.0821  -19.1316  -43.5796 H         1 UNK         0.0600 
    164 H164        4.3527  -18.3026  -40.5567 H         1 UNK         0.3000 
    165 H165        1.5436  -19.4552  -38.6741 H         1 UNK         0.0600 
    166 H166        3.1407  -19.0514  -36.8270 H         1 UNK         0.0600 
    167 H167        3.5597  -20.5361  -37.6660 H         1 UNK         0.0600 
    168 H168        4.4997  -19.0762  -37.9512 H         1 UNK         0.0600 
    169 H169        3.0857  -17.0827  -38.4587 H         1 UNK         0.3000 
    170 H170        1.7123  -15.0621  -38.8790 H         1 UNK         0.0600 
    171 H171        3.1082  -13.9364  -40.6497 H         1 UNK         0.0600 
    172 H172        2.9959  -15.3630  -41.6739 H         1 UNK         0.0600 
    173 H173        3.8850  -15.4253  -40.1559 H         1 UNK         0.0600 
    174 H174       -0.0190  -15.6939  -41.0144 H         1 UNK         0.3000 
    175 H175       -1.2568  -14.3084  -42.2483 H         1 UNK         0.0600 
    176 H176       -3.2593  -13.1828  -41.3025 H         1 UNK         0.0600 
    177 H177       -2.2775  -12.4380  -40.0399 H         1 UNK         0.0600 
    178 H178       -2.4944  -14.1835  -40.0784 H         1 UNK         0.0600 
    179 H179       -1.5367  -11.4567  -42.1694 H         1 UNK         0.3000 
    180 H180       -1.1057  -10.4805  -44.3970 H         1 UNK         0.0600 
    181 H181        1.6210   -9.9845  -43.0427 H         1 UNK         0.0600 
    182 H182        0.0585   -9.5859  -42.3398 H         1 UNK         0.0600 
    183 H183        0.6094   -8.7401  -43.7739 H         1 UNK         0.0600 
    184 H184        1.1857  -11.8058  -45.4532 H         1 UNK         0.3000 
    185 H185        1.0480  -10.1624  -48.5697 H         1 UNK         0.0600 
    186 H186        3.4585  -10.1581  -46.6748 H         1 UNK         0.0600 
    187 H187        3.5294  -10.0805  -48.4359 H         1 UNK         0.0600 
    188 H188        2.8149   -8.7592  -47.5257 H         1 UNK         0.0600 
    189 H189        2.5539  -12.3439  -47.3094 H         1 UNK         0.3000 
    190 H190       -0.6599  -21.1510  -45.9433 H         1 UNK         0.3000 
    191 H191       -2.5076  -21.7479  -47.9750 H         1 UNK         0.0600 
    192 H192       -2.7450  -19.8441  -46.4222 H         1 UNK         0.0600 
    193 H193       -4.1854  -20.8492  -46.3605 H         1 UNK         0.0600 
    194 H194       -2.9974  -20.9381  -45.0634 H         1 UNK         0.0600 
    195 H195       -1.9587  -23.4180  -44.8486 H         1 UNK         0.3000 
    196 H196       -4.0262  -25.3498  -45.0877 H         1 UNK         0.0600 
    197 H197       -2.7329  -26.5450  -43.3098 H         1 UNK         0.0600 
    198 H198       -2.9049  -24.8357  -42.9439 H         1 UNK         0.0600 
    199 H199       -1.3734  -25.4559  -43.5583 H         1 UNK         0.0600 
    200 H200       -0.7389  -25.2790  -46.4181 H         1 UNK         0.3000 
    201 H201       -0.7586  -28.0380  -47.3539 H         1 UNK         0.0600 
    202 H202        1.3359  -26.9224  -46.6139 H         1 UNK         0.0600 
    203 H203        1.1825  -25.7415  -47.9122 H         1 UNK         0.0600 
    204 H204        1.4475  -27.4400  -48.2869 H         1 UNK         0.0600 
    205 H205       -3.0255  -26.7614  -48.2254 H         1 UNK         0.3000 
    206 H206       -4.4160  -26.6215  -49.9062 H         1 UNK         0.0600 
    207 H207       -3.4216  -28.8389  -50.5066 H         1 UNK         0.0600 
    208 H208       -4.0336  -27.9884  -51.9135 H         1 UNK         0.0600 
    209 H209       -2.3039  -28.0371  -51.6103 H         1 UNK         0.0600 
    210 H210       -2.1350  -24.4367  -49.7564 H         1 UNK         0.3000 
    211 H211       -2.3261  -23.2535  -52.4333 H         1 UNK         0.0600 
    212 H212       -1.1495  -21.9683  -49.9340 H         1 UNK         0.0600 
    213 H213       -0.8437  -21.5864  -51.6170 H         1 UNK         0.0600 
    214 H214       -0.2558  -23.0965  -50.9498 H         1 UNK         0.0600 
    215 H215       -4.7304  -23.4777  -52.2367 H         1 UNK         0.3000 
    216 H216       -6.3477  -21.8107  -50.6199 H         1 UNK         0.0600 
    217 H217       -8.0905  -22.3467  -52.3646 H         1 UNK         0.0600 
    218 H218       -7.2195  -23.7778  -51.8346 H         1 UNK         0.0600 
    219 H219       -6.8358  -23.0401  -53.3882 H         1 UNK         0.0600 
    220 H220       -7.0642  -19.7654  -50.7998 H         1 UNK         0.3000 
    221 H221       -5.7256  -17.7605  -52.2056 H         1 UNK         0.0600 
    222 H222       -8.5149  -17.7408  -50.9374 H         1 UNK         0.0600 
    223 H223       -6.9956  -17.3695  -50.1212 H         1 UNK         0.0600 
    224 H224       -7.5940  -16.3111  -51.3887 H         1 UNK         0.0600 
    225 H225       -5.8965  -16.9441  -54.1699 H         1 UNK         0.3000 
    226 H226       -6.2800  -16.6123  -56.2858 H         1 UNK         0.0600 
    227 H227       -8.4302  -15.5819  -55.6041 H         1 UNK         0.0600 
    228 H228       -8.5713  -16.3625  -57.1713 H         1 UNK         0.0600 
    229 H229       -9.2498  -17.1357  -55.7481 H         1 UNK         0.0600 
    230 H230       -8.1507  -19.4829  -55.3081 H         1 UNK         0.3000 
    231 H231       -8.3119  -20.7749  -57.7801 H         1 UNK         0.0600 
    232 H232       -8.3412  -21.9359  -54.9476 H         1 UNK         0.0600 
    233 H233       -8.8666  -22.8017  -56.3876 H         1 UNK         0.0600 
    234 H234       -9.7307  -21.3637  -55.8654 H         1 UNK         0.0600 
    235 H235       -5.7838  -21.1775  -55.2620 H         1 UNK         0.3000 
    236 H236       -4.0849  -22.6778  -57.2336 H         1 UNK         0.0600 
    237 H237       -4.5744  -23.8872  -55.0698 H         1 UNK         0.0600 
    238 H238       -2.8679  -23.5168  -55.2796 H         1 UNK         0.0600 
    239 H239       -3.8449  -22.5422  -54.1941 H         1 UNK         0.0600 
    240 H240       -4.3498  -19.9059  -55.0346 H         1 UNK         0.3000 
    241 H241       -1.7010  -19.0032  -55.2480 H         1 UNK         0.0600 
    242 H242       -4.2776  -18.4748  -57.6771 H         1 UNK         0.3800 
    243 H243       -3.2953  -17.4009  -58.6338 H         1 UNK         0.3800 
    244 H244       -3.6307  -16.8056  -54.7145 H         1 UNK         0.0800 
    245 H245       -4.0320  -18.2213  -53.8110 H         1 UNK         0.0800 
    246 H246       -1.9749  -19.6291  -52.4000 H         1 UNK         0.0800 
    247 H247       -3.2312  -18.6987  -51.6264 H         1 UNK         0.0800 
@<TRIPOS>BOND
     1    1    2 1    
     2    1  127 1    
     3    1  128 1    
     4    1  129 1    
     5    2    3 2    
     6    2    4 am   BACKBONE|DICT|INTERRES
     7    4    5 1    
     8    4  130 1    
     9    5    6 1    
    10    5   65 1    
    11    5  131 1    
    12    6    7 1    
    13    6  132 1    
    14    6  133 1    
    15    7    8 1    
    16    8    9 1    
    17    8  134 1    
    18    8  135 1    
    19    9   10 ar   
    20    9   14 ar   
    21   10   11 ar   
    22   10  136 1    
    23   11   12 ar   
    24   11  126 1    
    25   12   13 ar   
    26   12  137 1    
    27   13   14 ar   
    28   13   15 1    
    29   14  138 1    
    30   15   16 1    
    31   15  139 1    
    32   15  140 1    
    33   16   17 1    
    34   17   18 1    
    35   17  141 1    
    36   17  142 1    
    37   18   19 1    
    38   18   67 1    
    39   18  143 1    
    40   19   20 am   BACKBONE|DICT|INTERRES
    41   19  144 1    
    42   20   21 2    
    43   20   22 1    
    44   22   23 1    
    45   22   24 1    
    46   22  145 1    
    47   23  146 1    
    48   23  147 1    
    49   23  148 1    
    50   24   25 am   BACKBONE|DICT|INTERRES
    51   24  149 1    
    52   25   26 2    
    53   25   27 1    
    54   27   28 1    
    55   27   29 1    
    56   27  150 1    
    57   28  151 1    
    58   28  152 1    
    59   28  153 1    
    60   29   30 am   BACKBONE|DICT|INTERRES
    61   29  154 1    
    62   30   31 2    
    63   30   32 1    
    64   32   33 1    
    65   32   34 1    
    66   32  155 1    
    67   33  156 1    
    68   33  157 1    
    69   33  158 1    
    70   34   35 am   BACKBONE|DICT|INTERRES
    71   34  159 1    
    72   35   36 2    
    73   35   37 1    
    74   37   38 1    
    75   37   39 1    
    76   37  160 1    
    77   38  161 1    
    78   38  162 1    
    79   38  163 1    
    80   39   40 am   BACKBONE|DICT|INTERRES
    81   39  164 1    
    82   40   41 2    
    83   40   42 1    
    84   42   43 1    
    85   42   44 1    
    86   42  165 1    
    87   43  166 1    
    88   43  167 1    
    89   43  168 1    
    90   44   45 am   BACKBONE|DICT|INTERRES
    91   44  169 1    
    92   45   46 2    
    93   45   47 1    
    94   47   48 1    
    95   47   49 1    
    96   47  170 1    
    97   48  171 1    
    98   48  172 1    
    99   48  173 1    
   100   49   50 am   BACKBONE|DICT|INTERRES
   101   49  174 1    
   102   50   51 2    
   103   50   52 1    
   104   52   53 1    
   105   52   54 1    
   106   52  175 1    
   107   53  176 1    
   108   53  177 1    
   109   53  178 1    
   110   54   55 am   BACKBONE|DICT|INTERRES
   111   54  179 1    
   112   55   56 2    
   113   55   57 1    
   114   57   58 1    
   115   57   59 1    
   116   57  180 1    
   117   58  181 1    
   118   58  182 1    
   119   58  183 1    
   120   59   60 am   BACKBONE|DICT|INTERRES
   121   59  184 1    
   122   60   61 2    
   123   60   62 1    
   124   62   63 1    
   125   62   64 1    
   126   62  185 1    
   127   63  186 1    
   128   63  187 1    
   129   63  188 1    
   130   64   65 am   BACKBONE|DICT|INTERRES
   131   64  189 1    
   132   65   66 2    
   133   67   68 2    
   134   67   69 am   BACKBONE|DICT|INTERRES
   135   69   70 1    
   136   69  190 1    
   137   70   71 1    
   138   70   72 1    
   139   70  191 1    
   140   71  192 1    
   141   71  193 1    
   142   71  194 1    
   143   72   73 2    
   144   72   74 am   BACKBONE|DICT|INTERRES
   145   74   75 1    
   146   74  195 1    
   147   75   76 1    
   148   75   77 1    
   149   75  196 1    
   150   76  197 1    
   151   76  198 1    
   152   76  199 1    
   153   77   78 2    
   154   77   79 am   BACKBONE|DICT|INTERRES
   155   79   80 1    
   156   79  200 1    
   157   80   81 1    
   158   80   82 1    
   159   80  201 1    
   160   81  202 1    
   161   81  203 1    
   162   81  204 1    
   163   82   83 2    
   164   82   84 am   BACKBONE|DICT|INTERRES
   165   84   85 1    
   166   84  205 1    
   167   85   86 1    
   168   85   87 1    
   169   85  206 1    
   170   86  207 1    
   171   86  208 1    
   172   86  209 1    
   173   87   88 2    
   174   87   89 am   BACKBONE|DICT|INTERRES
   175   89   90 1    
   176   89  210 1    
   177   90   91 1    
   178   90   92 1    
   179   90  211 1    
   180   91  212 1    
   181   91  213 1    
   182   91  214 1    
   183   92   93 2    
   184   92   94 am   BACKBONE|DICT|INTERRES
   185   94   95 1    
   186   94  215 1    
   187   95   96 1    
   188   95   97 1    
   189   95  216 1    
   190   96  217 1    
   191   96  218 1    
   192   96  219 1    
   193   97   98 2    
   194   97   99 am   BACKBONE|DICT|INTERRES
   195   99  100 1    
   196   99  220 1    
   197  100  101 1    
   198  100  102 1    
   199  100  221 1    
   200  101  222 1    
   201  101  223 1    
   202  101  224 1    
   203  102  103 2    
   204  102  104 am   BACKBONE|DICT|INTERRES
   205  104  105 1    
   206  104  225 1    
   207  105  106 1    
   208  105  107 1    
   209  105  226 1    
   210  106  227 1    
   211  106  228 1    
   212  106  229 1    
   213  107  108 2    
   214  107  109 am   BACKBONE|DICT|INTERRES
   215  109  110 1    
   216  109  230 1    
   217  110  111 1    
   218  110  112 1    
   219  110  231 1    
   220  111  232 1    
   221  111  233 1    
   222  111  234 1    
   223  112  113 2    
   224  112  114 am   BACKBONE|DICT|INTERRES
   225  114  115 1    
   226  114  235 1    
   227  115  116 1    
   228  115  117 1    
   229  115  236 1    
   230  116  237 1    
   231  116  238 1    
   232  116  239 1    
   233  117  118 2    
   234  117  119 am   BACKBONE|DICT|INTERRES
   235  119  120 1    
   236  119  240 1    
   237  120  121 1    
   238  120  124 1    
   239  120  241 1    
   240  121  122 am   BACKBONE|DICT|INTERRES
   241  121  123 2    
   242  122  242 1    
   243  122  243 1    
   244  124  125 1    
   245  124  244 1    
   246  124  245 1    
   247  125  126 1    
   248  126  246 1    
   249  126  247 1    
@<TRIPOS>SUBSTRUCTURE
     1 UNK         1 GROUP             0       ****    0 ROOT    
