@<TRIPOS>MOLECULE
3R540
247   249    1
SMALL
USER_CHARGES


@<TRIPOS>ATOM
      1 CA          6.1264  -14.1008  -47.6440 C.3       0 UNK        -0.1800 
      2 C           4.6741  -14.4240  -47.3243 C.2       0 UNK         0.5000 
      3 O           4.3710  -15.5470  -46.9248 O.2       0 UNK        -0.5000 
      4 N           3.7812  -13.4444  -47.4965 N.am      1 UNK        -0.5000 
      5 CA          2.3374  -13.5756  -47.2728 C.3       1 UNK         0.1400 
      6 C6          1.5778  -14.0449  -48.5398 C.3       23 UNK        -0.0398 
      7 S7          1.7952  -12.9530  -49.9934 S.3       23 UNK        -0.2404 
      8 C8          2.3003  -14.1354  -51.2860 C.3       23 UNK        -0.0205 
      9 C9          1.2336  -15.1931  -51.5321 C.ar      23 UNK        -0.0193 
     10 C10         0.0164  -14.8445  -52.1233 C.ar      23 UNK        -0.1150 
     11 C11        -0.9976  -15.7916  -52.2981 C.ar      23 UNK        -0.0193 
     12 C12        -0.7717  -17.1087  -51.8728 C.ar      23 UNK        -0.1150 
     13 C13         0.4493  -17.4752  -51.2978 C.ar      23 UNK        -0.0193 
     14 C14         1.4513  -16.5155  -51.1408 C.ar      23 UNK        -0.1150 
     15 C15         0.6817  -18.9024  -50.8214 C.3       23 UNK        -0.0205 
     16 S16         0.8742  -18.9962  -49.0112 S.3       23 UNK        -0.2404 
     17 C17        -0.7770  -18.4789  -48.4398 C.3       23 UNK        -0.0398 
     18 CA         -1.6419  -19.6720  -47.9778 C.3       11 UNK         0.1400 
     19 N          -1.0730  -20.3534  -46.8150 N.am      11 UNK        -0.5000 
     20 C          -1.4007  -21.5769  -46.3848 C.2       10 UNK         0.5000 
     21 O          -2.1543  -22.3336  -47.0009 O.2       10 UNK        -0.5000 
     22 CA         -0.8251  -21.9885  -45.0127 C.3       10 UNK         0.1400 
     23 CB         -0.7113  -23.5146  -44.8357 C.3       10 UNK        -0.1800 
     24 N           0.4347  -21.3073  -44.6923 N.am      10 UNK        -0.5000 
     25 C           1.6278  -21.4629  -45.2866 C.2       9 UNK         0.5000 
     26 O           1.8590  -22.2988  -46.1591 O.2       9 UNK        -0.5000 
     27 CA          2.7576  -20.5087  -44.8500 C.3       9 UNK         0.1400 
     28 CB          3.0028  -19.4534  -45.9399 C.3       9 UNK        -0.1800 
     29 N           2.4919  -19.8246  -43.5819 N.am      9 UNK        -0.5000 
     30 C           2.5595  -20.4015  -42.3739 C.2       8 UNK         0.5000 
     31 O           2.9002  -21.5709  -42.1928 O.2       8 UNK        -0.5000 
     32 CA          2.1452  -19.5355  -41.1683 C.3       8 UNK         0.1400 
     33 CB          3.3054  -18.6334  -40.7220 C.3       8 UNK        -0.1800 
     34 N           0.9622  -18.7127  -41.4314 N.am      8 UNK        -0.5000 
     35 C          -0.2630  -19.1917  -41.6925 C.2       7 UNK         0.5000 
     36 O          -0.5383  -20.3904  -41.7321 O.2       7 UNK        -0.5000 
     37 CA         -1.3533  -18.1584  -42.0199 C.3       7 UNK         0.1400 
     38 CB         -1.9238  -17.5173  -40.7460 C.3       7 UNK        -0.1800 
     39 N          -0.8508  -17.1214  -42.9188 N.am      7 UNK        -0.5000 
     40 C          -0.6033  -17.3170  -44.2205 C.2       6 UNK         0.5000 
     41 O          -0.8655  -18.3629  -44.8143 O.2       6 UNK        -0.5000 
     42 CA          0.0576  -16.1614  -44.9890 C.3       6 UNK         0.1400 
     43 CB         -1.0198  -15.2540  -45.5987 C.3       6 UNK        -0.1800 
     44 N           0.9645  -15.3768  -44.1474 N.am      6 UNK        -0.5000 
     45 C           2.1422  -15.8408  -43.6967 C.2       5 UNK         0.5000 
     46 O           2.5776  -16.9573  -43.9700 O.2       5 UNK        -0.5000 
     47 CA          2.9396  -14.9475  -42.7270 C.3       5 UNK         0.1400 
     48 CB          3.9127  -14.0434  -43.4936 C.3       5 UNK        -0.1800 
     49 N           2.0797  -14.1381  -41.8627 N.am      5 UNK        -0.5000 
     50 C           1.2368  -14.6588  -40.9578 C.2       4 UNK         0.5000 
     51 O           1.1557  -15.8665  -40.7308 O.2       4 UNK        -0.5000 
     52 CA          0.2895  -13.6958  -40.2162 C.3       4 UNK         0.1400 
     53 CB          0.8327  -13.3873  -38.8135 C.3       4 UNK        -0.1800 
     54 N           0.0308  -12.4349  -40.9154 N.am      4 UNK        -0.5000 
     55 C          -0.5073  -12.3058  -42.1364 C.2       3 UNK         0.5000 
     56 O          -0.8327  -13.2622  -42.8415 O.2       3 UNK        -0.5000 
     57 CA         -0.6771  -10.8723  -42.6835 C.3       3 UNK         0.1400 
     58 CB         -0.5085   -9.7675  -41.6159 C.3       3 UNK        -0.1800 
     59 N           0.2067  -10.6041  -43.8227 N.am      3 UNK        -0.5000 
     60 C           1.5379  -10.7533  -43.8693 C.2       2 UNK         0.5000 
     61 O           2.2177  -11.2098  -42.9467 O.2       2 UNK        -0.5000 
     62 CA          2.2249  -10.3365  -45.1831 C.3       2 UNK         0.1400 
     63 CB          3.4791   -9.4878  -44.9164 C.3       2 UNK        -0.1800 
     64 N           2.6055  -11.5125  -45.9599 N.am      2 UNK        -0.5000 
     65 C           1.7492  -12.3073  -46.6171 C.2       1 UNK         0.5000 
     66 O           0.5436  -12.0714  -46.6999 O.2       1 UNK        -0.5000 
     67 C          -3.0718  -19.1932  -47.6734 C.2       11 UNK         0.5000 
     68 O          -3.9301  -19.2623  -48.5508 O.2       11 UNK        -0.5000 
     69 N          -3.3188  -18.7672  -46.4246 N.am      12 UNK        -0.5000 
     70 CA         -4.6348  -18.3473  -45.9311 C.3       12 UNK         0.1400 
     71 CB         -4.4752  -17.7435  -44.5280 C.3       12 UNK        -0.1800 
     72 C          -5.6674  -19.4937  -45.9143 C.2       12 UNK         0.5000 
     73 O          -6.8610  -19.2448  -46.0830 O.2       12 UNK        -0.5000 
     74 N          -5.1781  -20.7286  -45.7407 N.am      13 UNK        -0.5000 
     75 CA         -5.9546  -21.9662  -45.8191 C.3       13 UNK         0.1400 
     76 CB         -5.3005  -22.9983  -44.8844 C.3       13 UNK        -0.1800 
     77 C          -6.0374  -22.5294  -47.2538 C.2       13 UNK         0.5000 
     78 O          -6.7519  -23.5079  -47.4694 O.2       13 UNK        -0.5000 
     79 N          -5.2683  -21.9467  -48.1883 N.am      14 UNK        -0.5000 
     80 CA         -5.0282  -22.3669  -49.5763 C.3       14 UNK         0.1400 
     81 CB         -6.3309  -22.3587  -50.4002 C.3       14 UNK        -0.1800 
     82 C          -4.2669  -23.7028  -49.7173 C.2       14 UNK         0.5000 
     83 O          -4.0471  -24.1592  -50.8400 O.2       14 UNK        -0.5000 
     84 N          -3.8389  -24.3028  -48.5985 N.am      15 UNK        -0.5000 
     85 CA         -3.1221  -25.5770  -48.5363 C.3       15 UNK         0.1400 
     86 CB         -3.0053  -26.0218  -47.0731 C.3       15 UNK        -0.1800 
     87 C          -1.7382  -25.5153  -49.2038 C.2       15 UNK         0.5000 
     88 O          -1.3042  -26.5087  -49.7869 O.2       15 UNK        -0.5000 
     89 N          -1.1121  -24.3296  -49.1803 N.am      16 UNK        -0.5000 
     90 CA          0.1267  -24.0110  -49.8969 C.3       16 UNK         0.1400 
     91 CB          0.5406  -22.5748  -49.5517 C.3       16 UNK        -0.1800 
     92 C           0.0192  -24.1658  -51.4292 C.2       16 UNK         0.5000 
     93 O           1.0300  -24.4240  -52.0830 O.2       16 UNK        -0.5000 
     94 N          -1.1993  -24.0187  -51.9654 N.am      17 UNK        -0.5000 
     95 CA         -1.5336  -24.1801  -53.3787 C.3       17 UNK         0.1400 
     96 CB         -2.3871  -22.9769  -53.8074 C.3       17 UNK        -0.1800 
     97 C          -2.2891  -25.4969  -53.6433 C.2       17 UNK         0.5000 
     98 O          -2.8378  -25.6596  -54.7322 O.2       17 UNK        -0.5000 
     99 N          -2.3532  -26.3975  -52.6489 N.am      18 UNK        -0.5000 
    100 CA        -3.1176  -27.6514  -52.6533 C.3       18 UNK         0.1400 
    101 CB        -2.5028  -28.6649  -53.6411 C.3       18 UNK        -0.1800 
    102 C         -4.6296  -27.4212  -52.8774 C.2       18 UNK         0.5000 
    103 O         -5.2668  -28.1551  -53.6338 O.2       18 UNK        -0.5000 
    104 N         -5.1545  -26.3769  -52.2203 N.am      19 UNK        -0.5000 
    105 CA        -6.5263  -25.8599  -52.2422 C.3       19 UNK         0.1400 
    106 CB        -7.5758  -26.9600  -51.9829 C.3       19 UNK        -0.1800 
    107 C         -6.8673  -25.0023  -53.4769 C.2       19 UNK         0.5000 
    108 O         -7.9591  -24.4333  -53.5159 O.2       19 UNK        -0.5000 
    109 N         -5.9450  -24.8576  -54.4399 N.am      20 UNK        -0.5000 
    110 CA        -6.1240  -24.0568  -55.6563 C.3       20 UNK         0.1400 
    111 CB        -5.2790  -24.6624  -56.7912 C.3       20 UNK        -0.1800 
    112 C         -5.8217  -22.5594  -55.4247 C.2       20 UNK         0.5000 
    113 O         -5.0698  -21.9561  -56.1936 O.2       20 UNK        -0.5000 
    114 N         -6.4160  -21.9874  -54.3671 N.am      21 UNK        -0.5000 
    115 CA        -6.3067  -20.5954  -53.9174 C.3       21 UNK         0.1400 
    116 CB        -7.0644  -19.6587  -54.8846 C.3       21 UNK        -0.1800 
    117 C         -4.8439  -20.1735  -53.6626 C.2       21 UNK         0.5000 
    118 O         -4.2942  -20.5179  -52.6164 O.2       21 UNK        -0.5000 
    119 N         -4.2525  -19.4516  -54.6202 N.am      22 UNK        -0.5000 
    120 CA        -2.8508  -19.0048  -54.6265 C.3       22 UNK         0.1400 
    121 C         -2.0028  -19.6957  -55.7357 C.2       22 UNK         0.5000 
    122 N         -2.5270  -20.6579  -56.4864 N.am      22 UNK        -0.7600 
    123 O         -0.8348  -19.3626  -55.9153 O.2       22 UNK        -0.5000 
    124 C124       -2.7539  -17.4586  -54.7268 C.3       23 UNK        -0.0398 
    125 S125       -3.5465  -16.6118  -53.3154 S.3       23 UNK        -0.2404 
    126 C126       -2.3168  -15.3201  -52.9170 C.3       23 UNK        -0.0205 
    127 H127        6.4981  -14.7728  -48.4175 H         1 UNK         0.0600 
    128 H128        6.2467  -13.0764  -47.9973 H         1 UNK         0.0600 
    129 H129        6.7431  -14.2287  -46.7544 H         1 UNK         0.0600 
    130 H130        4.0808  -12.5536  -47.8693 H         1 UNK         0.3000 
    131 H131        2.1816  -14.3465  -46.5162 H         1 UNK         0.0600 
    132 H132        0.5098  -14.1476  -48.3428 H         1 UNK         0.0800 
    133 H133        1.9204  -15.0495  -48.7875 H         1 UNK         0.0800 
    134 H134        3.2482  -14.5947  -51.0008 H         1 UNK         0.0800 
    135 H135        2.4882  -13.5913  -52.2126 H         1 UNK         0.0800 
    136 H136       -0.1502  -13.8194  -52.4246 H         1 UNK         0.1150 
    137 H137       -1.5449  -17.8555  -51.9696 H         1 UNK         0.1150 
    138 H138        2.3888  -16.7957  -50.6809 H         1 UNK         0.1150 
    139 H139       -0.1342  -19.5573  -51.1312 H         1 UNK         0.0800 
    140 H140        1.5845  -19.2930  -51.2927 H         1 UNK         0.0800 
    141 H141       -1.2808  -17.9273  -49.2341 H         1 UNK         0.0800 
    142 H142       -0.6399  -17.7661  -47.6260 H         1 UNK         0.0800 
    143 H143       -1.7095  -20.3877  -48.7994 H         1 UNK         0.0600 
    144 H144       -0.5047  -19.7799  -46.2029 H         1 UNK         0.3000 
    145 H145       -1.5416  -21.6310  -44.2719 H         1 UNK         0.0600 
    146 H146       -0.2002  -23.7688  -43.9072 H         1 UNK         0.0600 
    147 H147       -1.7011  -23.9678  -44.7904 H         1 UNK         0.0600 
    148 H148       -0.1698  -23.9818  -45.6590 H         1 UNK         0.0600 
    149 H149        0.3675  -20.6002  -43.9726 H         1 UNK         0.3000 
    150 H150        3.6665  -21.1037  -44.7400 H         1 UNK         0.0600 
    151 H151        3.2258  -19.9216  -46.8995 H         1 UNK         0.0600 
    152 H152        3.8478  -18.8122  -45.6881 H         1 UNK         0.0600 
    153 H153        2.1303  -18.8144  -46.0825 H         1 UNK         0.0600 
    154 H154        2.2866  -18.8307  -43.6420 H         1 UNK         0.3000 
    155 H155        1.9023  -20.2086  -40.3435 H         1 UNK         0.0600 
    156 H156        3.6046  -17.9440  -41.5113 H         1 UNK         0.0600 
    157 H157        4.1809  -19.2273  -40.4566 H         1 UNK         0.0600 
    158 H158        3.0337  -18.0432  -39.8466 H         1 UNK         0.0600 
    159 H159        1.0863  -17.7062  -41.3712 H         1 UNK         0.3000 
    160 H160       -2.1670  -18.6859  -42.5204 H         1 UNK         0.0600 
    161 H161       -2.7181  -16.8096  -40.9839 H         1 UNK         0.0600 
    162 H162       -1.1611  -16.9863  -40.1770 H         1 UNK         0.0600 
    163 H163       -2.3508  -18.2760  -40.0890 H         1 UNK         0.0600 
    164 H164       -0.5912  -16.2390  -42.5025 H         1 UNK         0.3000 
    165 H165        0.6405  -16.5937  -45.8052 H         1 UNK         0.0600 
    166 H166       -1.6595  -15.8125  -46.2833 H         1 UNK         0.0600 
    167 H167       -1.6647  -14.8209  -44.8337 H         1 UNK         0.0600 
    168 H168       -0.5782  -14.4355  -46.1635 H         1 UNK         0.0600 
    169 H169        0.6184  -14.4839  -43.8138 H         1 UNK         0.3000 
    170 H170        3.5306  -15.6023  -42.0841 H         1 UNK         0.0600 
    171 H171        4.6076  -14.6365  -44.0896 H         1 UNK         0.0600 
    172 H172        3.3848  -13.3782  -44.1725 H         1 UNK         0.0600 
    173 H173        4.5046  -13.4301  -42.8141 H         1 UNK         0.0600 
    174 H174        2.0847  -13.1352  -42.0165 H         1 UNK         0.3000 
    175 H175       -0.6673  -14.2103  -40.1067 H         1 UNK         0.0600 
    176 H176        0.1257  -12.7890  -38.2384 H         1 UNK         0.0600 
    177 H177        1.0105  -14.3056  -38.2519 H         1 UNK         0.0600 
    178 H178        1.7764  -12.8424  -38.8594 H         1 UNK         0.0600 
    179 H179        0.3031  -11.5927  -40.4299 H         1 UNK         0.3000 
    180 H180       -1.6990  -10.8131  -43.0607 H         1 UNK         0.0600 
    181 H181        0.5079   -9.7230  -41.2227 H         1 UNK         0.0600 
    182 H182       -1.1878   -9.9214  -40.7763 H         1 UNK         0.0600 
    183 H183       -0.7388   -8.7877  -42.0345 H         1 UNK         0.0600 
    184 H184       -0.2614  -10.3049  -44.6671 H         1 UNK         0.3000 
    185 H185        1.5316   -9.7325  -45.7728 H         1 UNK         0.0600 
    186 H186        4.2379  -10.0459  -44.3661 H         1 UNK         0.0600 
    187 H187        3.9272   -9.1436  -45.8486 H         1 UNK         0.0600 
    188 H188        3.2321   -8.6029  -44.3285 H         1 UNK         0.0600 
    189 H189        3.5727  -11.7936  -45.8973 H         1 UNK         0.3000 
    190 H190       -2.5468  -18.7274  -45.7662 H         1 UNK         0.3000 
    191 H191       -5.0121  -17.5704  -46.5993 H         1 UNK         0.0600 
    192 H192       -3.7710  -16.9113  -44.5306 H         1 UNK         0.0600 
    193 H193       -4.1203  -18.4846  -43.8120 H         1 UNK         0.0600 
    194 H194       -5.4274  -17.3615  -44.1578 H         1 UNK         0.0600 
    195 H195       -4.1834  -20.8309  -45.6087 H         1 UNK         0.3000 
    196 H196       -6.9743  -21.7841  -45.4736 H         1 UNK         0.0600 
    197 H197       -5.8641  -23.9322  -44.8740 H         1 UNK         0.0600 
    198 H198       -5.2636  -22.6329  -43.8580 H         1 UNK         0.0600 
    199 H199       -4.2812  -23.2346  -45.1931 H         1 UNK         0.0600 
    200 H200       -4.7525  -21.1194  -47.9163 H         1 UNK         0.3000 
    201 H201       -4.3690  -21.6109  -50.0049 H         1 UNK         0.0600 
    202 H202       -6.8239  -21.3884  -50.3438 H         1 UNK         0.0600 
    203 H203       -7.0372  -23.1162  -50.0612 H         1 UNK         0.0600 
    204 H204       -6.1242  -22.5544  -51.4525 H         1 UNK         0.0600 
    205 H205       -3.9829  -23.8223  -47.7225 H         1 UNK         0.3000 
    206 H206       -3.7158  -26.3196  -49.0737 H         1 UNK         0.0600 
    207 H207       -3.9868  -26.1137  -46.6074 H         1 UNK         0.0600 
    208 H208       -2.5154  -26.9933  -46.9974 H         1 UNK         0.0600 
    209 H209       -2.4209  -25.3128  -46.4891 H         1 UNK         0.0600 
    210 H210       -1.5365  -23.5813  -48.6436 H         1 UNK         0.3000 
    211 H211        0.9026  -24.6931  -49.5438 H         1 UNK         0.0600 
    212 H212       -0.1954  -21.8530  -49.9050 H         1 UNK         0.0600 
    213 H213        1.4967  -22.3188  -50.0100 H         1 UNK         0.0600 
    214 H214        0.6514  -22.4404  -48.4772 H         1 UNK         0.0600 
    215 H215       -1.9864  -23.8445  -51.3520 H         1 UNK         0.3000 
    216 H216       -0.6290  -24.1942  -53.9894 H         1 UNK         0.0600 
    217 H217       -2.5959  -23.0034  -54.8771 H         1 UNK         0.0600 
    218 H218       -1.8798  -22.0351  -53.5991 H         1 UNK         0.0600 
    219 H219       -3.3459  -22.9638  -53.2880 H         1 UNK         0.0600 
    220 H220       -1.8650  -26.1927  -51.7846 H         1 UNK         0.3000 
    221 H221       -3.0207  -28.0707  -51.6508 H         1 UNK         0.0600 
    222 H222       -2.6093  -28.3405  -54.6766 H         1 UNK         0.0600 
    223 H223       -1.4412  -28.8125  -53.4433 H         1 UNK         0.0600 
    224 H224       -2.9868  -29.6382  -53.5529 H         1 UNK         0.0600 
    225 H225       -4.5174  -25.7897  -51.6877 H         1 UNK         0.3000 
    226 H226       -6.5794  -25.1773  -51.3942 H         1 UNK         0.0600 
    227 H227       -7.3183  -27.5548  -51.1065 H         1 UNK         0.0600 
    228 H228       -7.6804  -27.6348  -52.8324 H         1 UNK         0.0600 
    229 H229       -8.5576  -26.5223  -51.7993 H         1 UNK         0.0600 
    230 H230       -5.0492  -25.3179  -54.3362 H         1 UNK         0.3000 
    231 H231       -7.1684  -24.1218  -55.9685 H         1 UNK         0.0600 
    232 H232       -5.4776  -25.7277  -56.9102 H         1 UNK         0.0600 
    233 H233       -4.2114  -24.5366  -56.6125 H         1 UNK         0.0600 
    234 H234       -5.5062  -24.1813  -57.7432 H         1 UNK         0.0600 
    235 H235       -7.0163  -22.5837  -53.8094 H         1 UNK         0.3000 
    236 H236       -6.8111  -20.5406  -52.9517 H         1 UNK         0.0600 
    237 H237       -6.9914  -18.6192  -54.5617 H         1 UNK         0.0600 
    238 H238       -6.6857  -19.7178  -55.9054 H         1 UNK         0.0600 
    239 H239       -8.1245  -19.9106  -54.9150 H         1 UNK         0.0600 
    240 H240       -4.7778  -19.2522  -55.4587 H         1 UNK         0.3000 
    241 H241       -2.3740  -19.3042  -53.6921 H         1 UNK         0.0600 
    242 H242       -1.9578  -21.0880  -57.1970 H         1 UNK         0.3800 
    243 H243       -3.4726  -21.0017  -56.3326 H         1 UNK         0.3800 
    244 H244       -1.7096  -17.1456  -54.7780 H         1 UNK         0.0800 
    245 H245       -3.2209  -17.1054  -55.6474 H         1 UNK         0.0800 
    246 H246       -2.7832  -14.6201  -52.2226 H         1 UNK         0.0800 
    247 H247       -2.1057  -14.7538  -53.8255 H         1 UNK         0.0800 
@<TRIPOS>BOND
     1    1    2 1    
     2    1  127 1    
     3    1  128 1    
     4    1  129 1    
     5    2    3 2    
     6    2    4 am   BACKBONE|DICT|INTERRES
     7    4    5 1    
     8    4  130 1    
     9    5    6 1    
    10    5   65 1    
    11    5  131 1    
    12    6    7 1    
    13    6  132 1    
    14    6  133 1    
    15    7    8 1    
    16    8    9 1    
    17    8  134 1    
    18    8  135 1    
    19    9   10 ar   
    20    9   14 ar   
    21   10   11 ar   
    22   10  136 1    
    23   11   12 ar   
    24   11  126 1    
    25   12   13 ar   
    26   12  137 1    
    27   13   14 ar   
    28   13   15 1    
    29   14  138 1    
    30   15   16 1    
    31   15  139 1    
    32   15  140 1    
    33   16   17 1    
    34   17   18 1    
    35   17  141 1    
    36   17  142 1    
    37   18   19 1    
    38   18   67 1    
    39   18  143 1    
    40   19   20 am   BACKBONE|DICT|INTERRES
    41   19  144 1    
    42   20   21 2    
    43   20   22 1    
    44   22   23 1    
    45   22   24 1    
    46   22  145 1    
    47   23  146 1    
    48   23  147 1    
    49   23  148 1    
    50   24   25 am   BACKBONE|DICT|INTERRES
    51   24  149 1    
    52   25   26 2    
    53   25   27 1    
    54   27   28 1    
    55   27   29 1    
    56   27  150 1    
    57   28  151 1    
    58   28  152 1    
    59   28  153 1    
    60   29   30 am   BACKBONE|DICT|INTERRES
    61   29  154 1    
    62   30   31 2    
    63   30   32 1    
    64   32   33 1    
    65   32   34 1    
    66   32  155 1    
    67   33  156 1    
    68   33  157 1    
    69   33  158 1    
    70   34   35 am   BACKBONE|DICT|INTERRES
    71   34  159 1    
    72   35   36 2    
    73   35   37 1    
    74   37   38 1    
    75   37   39 1    
    76   37  160 1    
    77   38  161 1    
    78   38  162 1    
    79   38  163 1    
    80   39   40 am   BACKBONE|DICT|INTERRES
    81   39  164 1    
    82   40   41 2    
    83   40   42 1    
    84   42   43 1    
    85   42   44 1    
    86   42  165 1    
    87   43  166 1    
    88   43  167 1    
    89   43  168 1    
    90   44   45 am   BACKBONE|DICT|INTERRES
    91   44  169 1    
    92   45   46 2    
    93   45   47 1    
    94   47   48 1    
    95   47   49 1    
    96   47  170 1    
    97   48  171 1    
    98   48  172 1    
    99   48  173 1    
   100   49   50 am   BACKBONE|DICT|INTERRES
   101   49  174 1    
   102   50   51 2    
   103   50   52 1    
   104   52   53 1    
   105   52   54 1    
   106   52  175 1    
   107   53  176 1    
   108   53  177 1    
   109   53  178 1    
   110   54   55 am   BACKBONE|DICT|INTERRES
   111   54  179 1    
   112   55   56 2    
   113   55   57 1    
   114   57   58 1    
   115   57   59 1    
   116   57  180 1    
   117   58  181 1    
   118   58  182 1    
   119   58  183 1    
   120   59   60 am   BACKBONE|DICT|INTERRES
   121   59  184 1    
   122   60   61 2    
   123   60   62 1    
   124   62   63 1    
   125   62   64 1    
   126   62  185 1    
   127   63  186 1    
   128   63  187 1    
   129   63  188 1    
   130   64   65 am   BACKBONE|DICT|INTERRES
   131   64  189 1    
   132   65   66 2    
   133   67   68 2    
   134   67   69 am   BACKBONE|DICT|INTERRES
   135   69   70 1    
   136   69  190 1    
   137   70   71 1    
   138   70   72 1    
   139   70  191 1    
   140   71  192 1    
   141   71  193 1    
   142   71  194 1    
   143   72   73 2    
   144   72   74 am   BACKBONE|DICT|INTERRES
   145   74   75 1    
   146   74  195 1    
   147   75   76 1    
   148   75   77 1    
   149   75  196 1    
   150   76  197 1    
   151   76  198 1    
   152   76  199 1    
   153   77   78 2    
   154   77   79 am   BACKBONE|DICT|INTERRES
   155   79   80 1    
   156   79  200 1    
   157   80   81 1    
   158   80   82 1    
   159   80  201 1    
   160   81  202 1    
   161   81  203 1    
   162   81  204 1    
   163   82   83 2    
   164   82   84 am   BACKBONE|DICT|INTERRES
   165   84   85 1    
   166   84  205 1    
   167   85   86 1    
   168   85   87 1    
   169   85  206 1    
   170   86  207 1    
   171   86  208 1    
   172   86  209 1    
   173   87   88 2    
   174   87   89 am   BACKBONE|DICT|INTERRES
   175   89   90 1    
   176   89  210 1    
   177   90   91 1    
   178   90   92 1    
   179   90  211 1    
   180   91  212 1    
   181   91  213 1    
   182   91  214 1    
   183   92   93 2    
   184   92   94 am   BACKBONE|DICT|INTERRES
   185   94   95 1    
   186   94  215 1    
   187   95   96 1    
   188   95   97 1    
   189   95  216 1    
   190   96  217 1    
   191   96  218 1    
   192   96  219 1    
   193   97   98 2    
   194   97   99 am   BACKBONE|DICT|INTERRES
   195   99  100 1    
   196   99  220 1    
   197  100  101 1    
   198  100  102 1    
   199  100  221 1    
   200  101  222 1    
   201  101  223 1    
   202  101  224 1    
   203  102  103 2    
   204  102  104 am   BACKBONE|DICT|INTERRES
   205  104  105 1    
   206  104  225 1    
   207  105  106 1    
   208  105  107 1    
   209  105  226 1    
   210  106  227 1    
   211  106  228 1    
   212  106  229 1    
   213  107  108 2    
   214  107  109 am   BACKBONE|DICT|INTERRES
   215  109  110 1    
   216  109  230 1    
   217  110  111 1    
   218  110  112 1    
   219  110  231 1    
   220  111  232 1    
   221  111  233 1    
   222  111  234 1    
   223  112  113 2    
   224  112  114 am   BACKBONE|DICT|INTERRES
   225  114  115 1    
   226  114  235 1    
   227  115  116 1    
   228  115  117 1    
   229  115  236 1    
   230  116  237 1    
   231  116  238 1    
   232  116  239 1    
   233  117  118 2    
   234  117  119 am   BACKBONE|DICT|INTERRES
   235  119  120 1    
   236  119  240 1    
   237  120  121 1    
   238  120  124 1    
   239  120  241 1    
   240  121  122 am   BACKBONE|DICT|INTERRES
   241  121  123 2    
   242  122  242 1    
   243  122  243 1    
   244  124  125 1    
   245  124  244 1    
   246  124  245 1    
   247  125  126 1    
   248  126  246 1    
   249  126  247 1    
@<TRIPOS>SUBSTRUCTURE
     1 UNK         1 GROUP             0       ****    0 ROOT    
