@<TRIPOS>MOLECULE
3R540
247   249    1
SMALL
USER_CHARGES


@<TRIPOS>ATOM
      1 CA         -3.0063   -9.3267  -47.4400 C.3       0 UNK        -0.1800 
      2 C          -1.7539  -10.0502  -47.9156 C.2       0 UNK         0.5000 
      3 O          -1.2226   -9.7213  -48.9768 O.2       0 UNK        -0.5000 
      4 N          -1.2874  -11.0370  -47.1404 N.am      1 UNK        -0.5000 
      5 CA         -0.0582  -11.7934  -47.3986 C.3       1 UNK         0.1400 
      6 C6         -0.0497  -13.1328  -46.6184 C.3       23 UNK        -0.0398 
      7 S7          1.0032  -14.3910  -47.4245 S.3       23 UNK        -0.2404 
      8 C8         -0.1591  -15.7771  -47.5894 C.3       23 UNK        -0.0205 
      9 C9          0.3192  -16.7881  -48.6189 C.ar      23 UNK        -0.0193 
     10 C10        -0.2330  -16.7797  -49.9013 C.ar      23 UNK        -0.1150 
     11 C11         0.1743  -17.7118  -50.8577 C.ar      23 UNK        -0.0193 
     12 C12         1.1564  -18.6493  -50.5288 C.ar      23 UNK        -0.1150 
     13 C13         1.7211  -18.6688  -49.2504 C.ar      23 UNK        -0.0193 
     14 C14         1.2968  -17.7353  -48.2977 C.ar      23 UNK        -0.1150 
     15 C15         2.8124  -19.6790  -48.9230 C.3       23 UNK        -0.0205 
     16 S16         2.1489  -21.3465  -48.6044 S.3       23 UNK        -0.2404 
     17 C17         1.5112  -21.1505  -46.9066 C.3       23 UNK        -0.0398 
     18 CA          0.1889  -21.8990  -46.6101 C.3       11 UNK         0.1400 
     19 N          -0.1544  -21.8007  -45.1865 N.am      11 UNK        -0.5000 
     20 C          -1.1775  -22.4234  -44.5846 C.2       10 UNK         0.5000 
     21 O          -1.9401  -23.1959  -45.1592 O.2       10 UNK        -0.5000 
     22 CA         -1.4214  -22.1010  -43.0999 C.3       10 UNK         0.1400 
     23 CB         -0.4766  -22.9151  -42.2040 C.3       10 UNK        -0.1800 
     24 N          -1.2880  -20.6758  -42.7989 N.am      10 UNK        -0.5000 
     25 C          -2.0687  -19.7107  -43.3065 C.2       9 UNK         0.5000 
     26 O          -3.0226  -19.9248  -44.0546 O.2       9 UNK        -0.5000 
     27 CA         -1.6787  -18.2573  -42.9740 C.3       9 UNK         0.1400 
     28 CB         -2.1371  -17.8678  -41.5611 C.3       9 UNK        -0.1800 
     29 N          -0.2407  -18.0194  -43.1109 N.am      9 UNK        -0.5000 
     30 C           0.4403  -18.1721  -44.2557 C.2       8 UNK         0.5000 
     31 O          -0.0830  -18.4827  -45.3256 O.2       8 UNK        -0.5000 
     32 CA          1.9685  -18.0244  -44.1741 C.3       8 UNK         0.1400 
     33 CB          2.3927  -16.5481  -44.1900 C.3       8 UNK        -0.1800 
     34 N           2.5069  -18.6897  -42.9875 N.am      8 UNK        -0.5000 
     35 C           2.5562  -20.0211  -42.8335 C.2       7 UNK         0.5000 
     36 O           2.1896  -20.8195  -43.6947 O.2       7 UNK        -0.5000 
     37 CA          3.0612  -20.5504  -41.4785 C.3       7 UNK         0.1400 
     38 CB          4.5957  -20.6084  -41.4592 C.3       7 UNK        -0.1800 
     39 N           2.5930  -19.7478  -40.3488 N.am      7 UNK        -0.5000 
     40 C           1.3103  -19.6317  -39.9758 C.2       6 UNK         0.5000 
     41 O           0.3859  -20.2384  -40.5133 O.2       6 UNK        -0.5000 
     42 CA          1.0032  -18.6275  -38.8489 C.3       6 UNK         0.1400 
     43 CB          1.0594  -19.3201  -37.4794 C.3       6 UNK        -0.1800 
     44 N           1.9044  -17.4715  -38.8472 N.am      6 UNK        -0.5000 
     45 C           2.0123  -16.5896  -39.8497 C.2       5 UNK         0.5000 
     46 O           1.3577  -16.6567  -40.8935 O.2       5 UNK        -0.5000 
     47 CA          3.0973  -15.5106  -39.6813 C.3       5 UNK         0.1400 
     48 CB          4.4429  -16.0371  -40.2065 C.3       5 UNK        -0.1800 
     49 N           2.7876  -14.2642  -40.3785 N.am      5 UNK        -0.5000 
     50 C           1.7467  -13.4583  -40.1284 C.2       4 UNK         0.5000 
     51 O           0.9110  -13.6799  -39.2505 O.2       4 UNK        -0.5000 
     52 CA          1.6402  -12.1655  -40.9666 C.3       4 UNK         0.1400 
     53 CB          1.5398  -10.9281  -40.0577 C.3       4 UNK        -0.1800 
     54 N           2.7740  -11.9759  -41.8786 N.am      4 UNK        -0.5000 
     55 C           2.8261  -12.4269  -43.1363 C.2       3 UNK         0.5000 
     56 O           1.9273  -13.0766  -43.6716 O.2       3 UNK        -0.5000 
     57 CA          4.1124  -12.1275  -43.9157 C.3       3 UNK         0.1400 
     58 CB          5.0876  -13.3131  -43.8349 C.3       3 UNK        -0.1800 
     59 N           3.7634  -11.8807  -45.3099 N.am      3 UNK        -0.5000 
     60 C           4.2370  -10.8808  -46.0627 C.2       2 UNK         0.5000 
     61 O           5.1041  -10.0925  -45.6826 O.2       2 UNK        -0.5000 
     62 CA          3.6488  -10.7211  -47.4805 C.3       2 UNK         0.1400 
     63 CB          4.6173  -11.2911  -48.5286 C.3       2 UNK        -0.1800 
     64 N           2.3383  -11.3515  -47.6603 N.am      2 UNK        -0.5000 
     65 C           1.1979  -10.9462  -47.0866 C.2       1 UNK         0.5000 
     66 O           1.1248   -9.9759  -46.3274 O.2       1 UNK        -0.5000 
     67 C          -0.9750  -21.4426  -47.5187 C.2       11 UNK         0.5000 
     68 O          -1.3170  -22.1487  -48.4691 O.2       11 UNK        -0.5000 
     69 N          -1.5993  -20.3071  -47.1749 N.am      12 UNK        -0.5000 
     70 CA         -2.7924  -19.7969  -47.8477 C.3       12 UNK         0.1400 
     71 CB         -3.0930  -18.3735  -47.3568 C.3       12 UNK        -0.1800 
     72 C          -4.0139  -20.7168  -47.6568 C.2       12 UNK         0.5000 
     73 O          -4.6730  -21.0586  -48.6396 O.2       12 UNK        -0.5000 
     74 N          -4.2777  -21.1204  -46.4046 N.am      13 UNK        -0.5000 
     75 CA         -5.4088  -21.9683  -46.0139 C.3       13 UNK         0.1400 
     76 CB         -5.4875  -22.0431  -44.4820 C.3       13 UNK        -0.1800 
     77 C          -5.3696  -23.3840  -46.6196 C.2       13 UNK         0.5000 
     78 O          -6.4199  -23.9200  -46.9745 O.2       13 UNK        -0.5000 
     79 N          -4.1646  -23.9537  -46.7524 N.am      14 UNK        -0.5000 
     80 CA         -3.9091  -25.2528  -47.3803 C.3       14 UNK         0.1400 
     81 CB         -2.5075  -25.7353  -46.9728 C.3       14 UNK        -0.1800 
     82 C          -4.0432  -25.2398  -48.9171 C.2       14 UNK         0.5000 
     83 O          -4.0340  -26.3140  -49.5185 O.2       14 UNK        -0.5000 
     84 N          -4.1623  -24.0414  -49.5080 N.am      15 UNK        -0.5000 
     85 CA         -4.2062  -23.7264  -50.9335 C.3       15 UNK         0.1400 
     86 CB         -5.3827  -24.4225  -51.6517 C.3       15 UNK        -0.1800 
     87 C          -2.8548  -24.0036  -51.6086 C.2       15 UNK         0.5000 
     88 O          -2.5883  -25.1269  -52.0374 O.2       15 UNK        -0.5000 
     89 N          -2.0253  -22.9584  -51.7065 N.am      16 UNK        -0.5000 
     90 CA         -0.7029  -22.9822  -52.3338 C.3       16 UNK         0.1400 
     91 CB         -0.0472  -21.6080  -52.1473 C.3       16 UNK        -0.1800 
     92 C          -0.7131  -23.3791  -53.8254 C.2       16 UNK         0.5000 
     93 O           0.2759  -23.9362  -54.3028 O.2       16 UNK        -0.5000 
     94 N          -1.8269  -23.1184  -54.5253 N.am      17 UNK        -0.5000 
     95 CA         -2.0551  -23.5323  -55.9124 C.3       17 UNK         0.1400 
     96 CB         -2.8367  -22.4243  -56.6356 C.3       17 UNK        -0.1800 
     97 C          -2.7765  -24.8937  -56.0230 C.2       17 UNK         0.5000 
     98 O          -3.1357  -25.2896  -57.1317 O.2       17 UNK        -0.5000 
     99 N          -3.0004  -25.5752  -54.8877 N.am      18 UNK        -0.5000 
    100 CA        -3.6887  -26.8614  -54.6918 C.3       18 UNK         0.1400 
    101 CB        -3.0702  -27.9804  -55.5534 C.3       18 UNK        -0.1800 
    102 C         -5.2232  -26.8054  -54.8452 C.2       18 UNK         0.5000 
    103 O         -5.9041  -27.7327  -54.4051 O.2       18 UNK        -0.5000 
    104 N         -5.7487  -25.7228  -55.4225 N.am      19 UNK        -0.5000 
    105 CA        -7.1615  -25.4098  -55.5785 C.3       19 UNK         0.1400 
    106 CB        -7.7581  -26.2010  -56.7560 C.3       19 UNK        -0.1800 
    107 C         -7.2720  -23.8983  -55.8144 C.2       19 UNK         0.5000 
    108 O         -6.3297  -23.2995  -56.3389 O.2       19 UNK        -0.5000 
    109 N         -8.4147  -23.3151  -55.4242 N.am      20 UNK        -0.5000 
    110 CA        -8.7427  -21.8847  -55.5203 C.3       20 UNK         0.1400 
    111 CB        -8.9214  -21.4649  -56.9947 C.3       20 UNK        -0.1800 
    112 C         -7.7453  -20.9860  -54.7550 C.2       20 UNK         0.5000 
    113 O         -7.3608  -19.9225  -55.2472 O.2       20 UNK        -0.5000 
    114 N         -7.3349  -21.4516  -53.5649 N.am      21 UNK        -0.5000 
    115 CA        -6.3296  -20.8589  -52.6797 C.3       21 UNK         0.1400 
    116 CB        -6.8494  -19.5443  -52.0554 C.3       21 UNK        -0.1800 
    117 C         -4.9660  -20.7247  -53.3900 C.2       21 UNK         0.5000 
    118 O         -4.2757  -21.7299  -53.5673 O.2       21 UNK        -0.5000 
    119 N         -4.6156  -19.4987  -53.7851 N.am      22 UNK        -0.5000 
    120 CA        -3.4063  -19.1571  -54.5473 C.3       22 UNK         0.1400 
    121 C         -3.6847  -18.9326  -56.0635 C.2       22 UNK         0.5000 
    122 N         -4.9041  -19.1056  -56.5605 N.am      22 UNK        -0.7600 
    123 O         -2.7692  -18.6056  -56.8136 O.2       22 UNK        -0.5000 
    124 C124       -2.6824  -17.9371  -53.9241 C.3       23 UNK        -0.0398 
    125 S125       -2.1791  -18.2356  -52.1948 S.3       23 UNK        -0.2404 
    126 C126       -0.4453  -17.6899  -52.2444 C.3       23 UNK        -0.0205 
    127 H127       -2.7957   -8.2666  -47.2983 H         1 UNK         0.0600 
    128 H128       -3.3738   -9.7293  -46.4957 H         1 UNK         0.0600 
    129 H129       -3.7995   -9.4218  -48.1815 H         1 UNK         0.0600 
    130 H130       -1.7476  -11.2315  -46.2629 H         1 UNK         0.3000 
    131 H131       -0.0470  -12.0205  -48.4674 H         1 UNK         0.0600 
    132 H132       -1.0651  -13.5251  -46.5519 H         1 UNK         0.0800 
    133 H133        0.2687  -12.9943  -45.5856 H         1 UNK         0.0800 
    134 H134       -1.1422  -15.4016  -47.8774 H         1 UNK         0.0800 
    135 H135       -0.2873  -16.2559  -46.6194 H         1 UNK         0.0800 
    136 H136       -0.9909  -16.0524  -50.1570 H         1 UNK         0.1150 
    137 H137        1.4878  -19.3643  -51.2678 H         1 UNK         0.1150 
    138 H138        1.7295  -17.7361  -47.3082 H         1 UNK         0.1150 
    139 H139        3.5074  -19.7364  -49.7620 H         1 UNK         0.0800 
    140 H140        3.4023  -19.3484  -48.0666 H         1 UNK         0.0800 
    141 H141        1.3958  -20.0917  -46.6847 H         1 UNK         0.0800 
    142 H142        2.2915  -21.5113  -46.2360 H         1 UNK         0.0800 
    143 H143        0.3560  -22.9582  -46.8165 H         1 UNK         0.0600 
    144 H144        0.4548  -21.2190  -44.6208 H         1 UNK         0.3000 
    145 H145       -2.4454  -22.3939  -42.8612 H         1 UNK         0.0600 
    146 H146       -0.7040  -22.7605  -41.1491 H         1 UNK         0.0600 
    147 H147        0.5666  -22.6425  -42.3645 H         1 UNK         0.0600 
    148 H148       -0.5721  -23.9831  -42.4039 H         1 UNK         0.0600 
    149 H149       -0.5569  -20.4197  -42.1404 H         1 UNK         0.3000 
    150 H150       -2.1884  -17.6064  -43.6874 H         1 UNK         0.0600 
    151 H151       -3.2184  -17.9704  -41.4621 H         1 UNK         0.0600 
    152 H152       -1.8851  -16.8313  -41.3357 H         1 UNK         0.0600 
    153 H153       -1.6785  -18.4970  -40.7990 H         1 UNK         0.0600 
    154 H154        0.2646  -17.7322  -42.2793 H         1 UNK         0.3000 
    155 H155        2.3995  -18.5037  -45.0552 H         1 UNK         0.0600 
    156 H156        2.0507  -16.0562  -45.1007 H         1 UNK         0.0600 
    157 H157        3.4774  -16.4495  -44.1565 H         1 UNK         0.0600 
    158 H158        1.9795  -15.9914  -43.3489 H         1 UNK         0.0600 
    159 H159        2.7560  -18.0971  -42.2094 H         1 UNK         0.3000 
    160 H160        2.6786  -21.5655  -41.3540 H         1 UNK         0.0600 
    161 H161        5.0392  -19.6161  -41.5516 H         1 UNK         0.0600 
    162 H162        4.9732  -21.2151  -42.2836 H         1 UNK         0.0600 
    163 H163        4.9617  -21.0553  -40.5347 H         1 UNK         0.0600 
    164 H164        3.2888  -19.2190  -39.8446 H         1 UNK         0.3000 
    165 H165       -0.0122  -18.2578  -39.0035 H         1 UNK         0.0600 
    166 H166        0.7634  -18.6399  -36.6806 H         1 UNK         0.0600 
    167 H167        0.3804  -20.1732  -37.4459 H         1 UNK         0.0600 
    168 H168        2.0610  -19.6886  -37.2541 H         1 UNK         0.0600 
    169 H169        2.4845  -17.3571  -38.0283 H         1 UNK         0.3000 
    170 H170        3.1980  -15.2809  -38.6186 H         1 UNK         0.0600 
    171 H171        5.2400  -15.3104  -40.0480 H         1 UNK         0.0600 
    172 H172        4.7369  -16.9532  -39.6927 H         1 UNK         0.0600 
    173 H173        4.3995  -16.2584  -41.2741 H         1 UNK         0.0600 
    174 H174        3.4031  -14.0077  -41.1340 H         1 UNK         0.3000 
    175 H175        0.7155  -12.2339  -41.5437 H         1 UNK         0.0600 
    176 H176        2.4225  -10.8198  -39.4264 H         1 UNK         0.0600 
    177 H177        1.4325  -10.0158  -40.6448 H         1 UNK         0.0600 
    178 H178        0.6715  -10.9905  -39.4005 H         1 UNK         0.0600 
    179 H179        3.5614  -11.4638  -41.5060 H         1 UNK         0.3000 
    180 H180        4.5840  -11.2447  -43.4786 H         1 UNK         0.0600 
    181 H181        6.0091  -13.1002  -44.3770 H         1 UNK         0.0600 
    182 H182        4.6537  -14.2197  -44.2583 H         1 UNK         0.0600 
    183 H183        5.3608  -13.5288  -42.8013 H         1 UNK         0.0600 
    184 H184        3.0129  -12.4550  -45.6698 H         1 UNK         0.3000 
    185 H185        3.5358   -9.6510  -47.6664 H         1 UNK         0.0600 
    186 H186        5.5996  -10.8234  -48.4496 H         1 UNK         0.0600 
    187 H187        4.7548  -12.3662  -48.4057 H         1 UNK         0.0600 
    188 H188        4.2547  -11.1114  -49.5409 H         1 UNK         0.0600 
    189 H189        2.3174  -12.1753  -48.2454 H         1 UNK         0.3000 
    190 H190       -1.2397  -19.7642  -46.3958 H         1 UNK         0.3000 
    191 H191       -2.5767  -19.7442  -48.9174 H         1 UNK         0.0600 
    192 H192       -2.2640  -17.7038  -47.5775 H         1 UNK         0.0600 
    193 H193       -3.2688  -18.3425  -46.2813 H         1 UNK         0.0600 
    194 H194       -3.9778  -17.9686  -47.8493 H         1 UNK         0.0600 
    195 H195       -3.6936  -20.7750  -45.6472 H         1 UNK         0.3000 
    196 H196       -6.3187  -21.4847  -46.3751 H         1 UNK         0.0600 
    197 H197       -5.6103  -21.0524  -44.0441 H         1 UNK         0.0600 
    198 H198       -4.5879  -22.4886  -44.0568 H         1 UNK         0.0600 
    199 H199       -6.3372  -22.6475  -44.1619 H         1 UNK         0.0600 
    200 H200       -3.3534  -23.4776  -46.3639 H         1 UNK         0.3000 
    201 H201       -4.6396  -25.9682  -46.9973 H         1 UNK         0.0600 
    202 H202       -2.4224  -25.8298  -45.8902 H         1 UNK         0.0600 
    203 H203       -1.7337  -25.0451  -47.3121 H         1 UNK         0.0600 
    204 H204       -2.2865  -26.7140  -47.4004 H         1 UNK         0.0600 
    205 H205       -4.1474  -23.2309  -48.9010 H         1 UNK         0.3000 
    206 H206       -4.3827  -22.6527  -50.9823 H         1 UNK         0.0600 
    207 H207       -5.2759  -25.5072  -51.6687 H         1 UNK         0.0600 
    208 H208       -6.3323  -24.1866  -51.1717 H         1 UNK         0.0600 
    209 H209       -5.4499  -24.0934  -52.6893 H         1 UNK         0.0600 
    210 H210       -2.3109  -22.0738  -51.3131 H         1 UNK         0.3000 
    211 H211       -0.1028  -23.7225  -51.8011 H         1 UNK         0.0600 
    212 H212       -0.6071  -20.8255  -52.6599 H         1 UNK         0.0600 
    213 H213        0.9689  -21.6009  -52.5434 H         1 UNK         0.0600 
    214 H214        0.0127  -21.3436  -51.0911 H         1 UNK         0.0600 
    215 H215       -2.6078  -22.6606  -54.0612 H         1 UNK         0.3000 
    216 H216       -1.0980  -23.6441  -56.4256 H         1 UNK         0.0600 
    217 H217       -3.0203  -22.6817  -57.6792 H         1 UNK         0.0600 
    218 H218       -2.2762  -21.4903  -56.6317 H         1 UNK         0.0600 
    219 H219       -3.8049  -22.2404  -56.1696 H         1 UNK         0.0600 
    220 H220       -2.6792  -25.1572  -54.0199 H         1 UNK         0.3000 
    221 H221       -3.5079  -27.1252  -53.6489 H         1 UNK         0.0600 
    222 H222       -3.2775  -27.8429  -56.6146 H         1 UNK         0.0600 
    223 H223       -1.9891  -28.0280  -55.4231 H         1 UNK         0.0600 
    224 H224       -3.4740  -28.9533  -55.2710 H         1 UNK         0.0600 
    225 H225       -5.1305  -24.9988  -55.7689 H         1 UNK         0.3000 
    226 H226       -7.6877  -25.6634  -54.6559 H         1 UNK         0.0600 
    227 H227       -7.6979  -27.2757  -56.5844 H         1 UNK         0.0600 
    228 H228       -8.8107  -25.9547  -56.8999 H         1 UNK         0.0600 
    229 H229       -7.2377  -25.9816  -57.6892 H         1 UNK         0.0600 
    230 H230       -9.1305  -23.8950  -55.0080 H         1 UNK         0.3000 
    231 H231       -9.7059  -21.7549  -55.0247 H         1 UNK         0.0600 
    232 H232       -9.2915  -20.4416  -57.0677 H         1 UNK         0.0600 
    233 H233       -9.6415  -22.1061  -57.5029 H         1 UNK         0.0600 
    234 H234       -7.9822  -21.5118  -57.5468 H         1 UNK         0.0600 
    235 H235       -7.6929  -22.3493  -53.2732 H         1 UNK         0.3000 
    236 H236       -6.1877  -21.5632  -51.8612 H         1 UNK         0.0600 
    237 H237       -7.0938  -18.7906  -52.8043 H         1 UNK         0.0600 
    238 H238       -7.7503  -19.7256  -51.4693 H         1 UNK         0.0600 
    239 H239       -6.1095  -19.1144  -51.3785 H         1 UNK         0.0600 
    240 H240       -5.2627  -18.7411  -53.6243 H         1 UNK         0.3000 
    241 H241       -2.7101  -19.9969  -54.5080 H         1 UNK         0.0600 
    242 H242       -5.0566  -18.9602  -57.5453 H         1 UNK         0.3800 
    243 H243       -5.6839  -19.3939  -55.9750 H         1 UNK         0.3800 
    244 H244       -3.3264  -17.0567  -53.9475 H         1 UNK         0.0800 
    245 H245       -1.7980  -17.6817  -54.5103 H         1 UNK         0.0800 
    246 H246       -0.3928  -16.6757  -52.6433 H         1 UNK         0.0800 
    247 H247        0.1159  -18.3264  -52.9302 H         1 UNK         0.0800 
@<TRIPOS>BOND
     1    1    2 1    
     2    1  127 1    
     3    1  128 1    
     4    1  129 1    
     5    2    3 2    
     6    2    4 am   BACKBONE|DICT|INTERRES
     7    4    5 1    
     8    4  130 1    
     9    5    6 1    
    10    5   65 1    
    11    5  131 1    
    12    6    7 1    
    13    6  132 1    
    14    6  133 1    
    15    7    8 1    
    16    8    9 1    
    17    8  134 1    
    18    8  135 1    
    19    9   10 ar   
    20    9   14 ar   
    21   10   11 ar   
    22   10  136 1    
    23   11   12 ar   
    24   11  126 1    
    25   12   13 ar   
    26   12  137 1    
    27   13   14 ar   
    28   13   15 1    
    29   14  138 1    
    30   15   16 1    
    31   15  139 1    
    32   15  140 1    
    33   16   17 1    
    34   17   18 1    
    35   17  141 1    
    36   17  142 1    
    37   18   19 1    
    38   18   67 1    
    39   18  143 1    
    40   19   20 am   BACKBONE|DICT|INTERRES
    41   19  144 1    
    42   20   21 2    
    43   20   22 1    
    44   22   23 1    
    45   22   24 1    
    46   22  145 1    
    47   23  146 1    
    48   23  147 1    
    49   23  148 1    
    50   24   25 am   BACKBONE|DICT|INTERRES
    51   24  149 1    
    52   25   26 2    
    53   25   27 1    
    54   27   28 1    
    55   27   29 1    
    56   27  150 1    
    57   28  151 1    
    58   28  152 1    
    59   28  153 1    
    60   29   30 am   BACKBONE|DICT|INTERRES
    61   29  154 1    
    62   30   31 2    
    63   30   32 1    
    64   32   33 1    
    65   32   34 1    
    66   32  155 1    
    67   33  156 1    
    68   33  157 1    
    69   33  158 1    
    70   34   35 am   BACKBONE|DICT|INTERRES
    71   34  159 1    
    72   35   36 2    
    73   35   37 1    
    74   37   38 1    
    75   37   39 1    
    76   37  160 1    
    77   38  161 1    
    78   38  162 1    
    79   38  163 1    
    80   39   40 am   BACKBONE|DICT|INTERRES
    81   39  164 1    
    82   40   41 2    
    83   40   42 1    
    84   42   43 1    
    85   42   44 1    
    86   42  165 1    
    87   43  166 1    
    88   43  167 1    
    89   43  168 1    
    90   44   45 am   BACKBONE|DICT|INTERRES
    91   44  169 1    
    92   45   46 2    
    93   45   47 1    
    94   47   48 1    
    95   47   49 1    
    96   47  170 1    
    97   48  171 1    
    98   48  172 1    
    99   48  173 1    
   100   49   50 am   BACKBONE|DICT|INTERRES
   101   49  174 1    
   102   50   51 2    
   103   50   52 1    
   104   52   53 1    
   105   52   54 1    
   106   52  175 1    
   107   53  176 1    
   108   53  177 1    
   109   53  178 1    
   110   54   55 am   BACKBONE|DICT|INTERRES
   111   54  179 1    
   112   55   56 2    
   113   55   57 1    
   114   57   58 1    
   115   57   59 1    
   116   57  180 1    
   117   58  181 1    
   118   58  182 1    
   119   58  183 1    
   120   59   60 am   BACKBONE|DICT|INTERRES
   121   59  184 1    
   122   60   61 2    
   123   60   62 1    
   124   62   63 1    
   125   62   64 1    
   126   62  185 1    
   127   63  186 1    
   128   63  187 1    
   129   63  188 1    
   130   64   65 am   BACKBONE|DICT|INTERRES
   131   64  189 1    
   132   65   66 2    
   133   67   68 2    
   134   67   69 am   BACKBONE|DICT|INTERRES
   135   69   70 1    
   136   69  190 1    
   137   70   71 1    
   138   70   72 1    
   139   70  191 1    
   140   71  192 1    
   141   71  193 1    
   142   71  194 1    
   143   72   73 2    
   144   72   74 am   BACKBONE|DICT|INTERRES
   145   74   75 1    
   146   74  195 1    
   147   75   76 1    
   148   75   77 1    
   149   75  196 1    
   150   76  197 1    
   151   76  198 1    
   152   76  199 1    
   153   77   78 2    
   154   77   79 am   BACKBONE|DICT|INTERRES
   155   79   80 1    
   156   79  200 1    
   157   80   81 1    
   158   80   82 1    
   159   80  201 1    
   160   81  202 1    
   161   81  203 1    
   162   81  204 1    
   163   82   83 2    
   164   82   84 am   BACKBONE|DICT|INTERRES
   165   84   85 1    
   166   84  205 1    
   167   85   86 1    
   168   85   87 1    
   169   85  206 1    
   170   86  207 1    
   171   86  208 1    
   172   86  209 1    
   173   87   88 2    
   174   87   89 am   BACKBONE|DICT|INTERRES
   175   89   90 1    
   176   89  210 1    
   177   90   91 1    
   178   90   92 1    
   179   90  211 1    
   180   91  212 1    
   181   91  213 1    
   182   91  214 1    
   183   92   93 2    
   184   92   94 am   BACKBONE|DICT|INTERRES
   185   94   95 1    
   186   94  215 1    
   187   95   96 1    
   188   95   97 1    
   189   95  216 1    
   190   96  217 1    
   191   96  218 1    
   192   96  219 1    
   193   97   98 2    
   194   97   99 am   BACKBONE|DICT|INTERRES
   195   99  100 1    
   196   99  220 1    
   197  100  101 1    
   198  100  102 1    
   199  100  221 1    
   200  101  222 1    
   201  101  223 1    
   202  101  224 1    
   203  102  103 2    
   204  102  104 am   BACKBONE|DICT|INTERRES
   205  104  105 1    
   206  104  225 1    
   207  105  106 1    
   208  105  107 1    
   209  105  226 1    
   210  106  227 1    
   211  106  228 1    
   212  106  229 1    
   213  107  108 2    
   214  107  109 am   BACKBONE|DICT|INTERRES
   215  109  110 1    
   216  109  230 1    
   217  110  111 1    
   218  110  112 1    
   219  110  231 1    
   220  111  232 1    
   221  111  233 1    
   222  111  234 1    
   223  112  113 2    
   224  112  114 am   BACKBONE|DICT|INTERRES
   225  114  115 1    
   226  114  235 1    
   227  115  116 1    
   228  115  117 1    
   229  115  236 1    
   230  116  237 1    
   231  116  238 1    
   232  116  239 1    
   233  117  118 2    
   234  117  119 am   BACKBONE|DICT|INTERRES
   235  119  120 1    
   236  119  240 1    
   237  120  121 1    
   238  120  124 1    
   239  120  241 1    
   240  121  122 am   BACKBONE|DICT|INTERRES
   241  121  123 2    
   242  122  242 1    
   243  122  243 1    
   244  124  125 1    
   245  124  244 1    
   246  124  245 1    
   247  125  126 1    
   248  126  246 1    
   249  126  247 1    
@<TRIPOS>SUBSTRUCTURE
     1 UNK         1 GROUP             0       ****    0 ROOT    
