@<TRIPOS>MOLECULE
3R540
247   249    1
SMALL
USER_CHARGES


@<TRIPOS>ATOM
      1 CA          4.8973  -15.9542  -46.8503 C.3       0 UNK        -0.1800 
      2 C           4.0281  -15.9458  -48.0998 C.2       0 UNK         0.5000 
      3 O           2.8437  -16.2684  -48.0190 O.2       0 UNK        -0.5000 
      4 N           4.6095  -15.5750  -49.2483 N.am      1 UNK        -0.5000 
      5 CA          3.9571  -15.5393  -50.5633 C.3       1 UNK         0.1400 
      6 C6          4.9690  -15.6937  -51.7363 C.3       23 UNK        -0.0398 
      7 S7          6.1665  -17.0626  -51.5556 S.3       23 UNK        -0.2404 
      8 C8          5.2402  -18.4876  -52.2145 C.3       23 UNK        -0.0205 
      9 C9          4.1182  -18.9155  -51.2803 C.ar      23 UNK        -0.0193 
     10 C10         2.7890  -18.9005  -51.7153 C.ar      23 UNK        -0.1150 
     11 C11         1.7559  -19.2404  -50.8378 C.ar      23 UNK        -0.0193 
     12 C12         2.0641  -19.6202  -49.5302 C.ar      23 UNK        -0.1150 
     13 C13         3.3858  -19.6328  -49.0759 C.ar      23 UNK        -0.0193 
     14 C14         4.4095  -19.2891  -49.9639 C.ar      23 UNK        -0.1150 
     15 C15         3.6546  -19.9270  -47.6033 C.3       23 UNK        -0.0205 
     16 S16         5.2356  -20.7418  -47.2339 S.3       23 UNK        -0.2404 
     17 C17         5.0059  -21.0064  -45.4328 C.3       23 UNK        -0.0398 
     18 CA          4.3489  -22.3387  -44.9370 C.3       11 UNK         0.1400 
     19 N           3.1326  -22.1074  -44.1401 N.am      11 UNK        -0.5000 
     20 C           2.6240  -23.0021  -43.2761 C.2       10 UNK         0.5000 
     21 O           3.1206  -24.1104  -43.0714 O.2       10 UNK        -0.5000 
     22 CA          1.3573  -22.6027  -42.5039 C.3       10 UNK         0.1400 
     23 CB          1.6950  -21.6327  -41.3611 C.3       10 UNK        -0.1800 
     24 N           0.3518  -22.0050  -43.3774 N.am      10 UNK        -0.5000 
     25 C          -0.5754  -22.6974  -44.0541 C.2       9 UNK         0.5000 
     26 O          -0.6987  -23.9228  -43.9984 O.2       9 UNK        -0.5000 
     27 CA         -1.5651  -21.8938  -44.9197 C.3       9 UNK         0.1400 
     28 CB         -2.9255  -21.8005  -44.2127 C.3       9 UNK        -0.1800 
     29 N          -1.1048  -20.5454  -45.2566 N.am      9 UNK        -0.5000 
     30 C          -0.0976  -20.2887  -46.1019 C.2       8 UNK         0.5000 
     31 O           0.5354  -21.1628  -46.6873 O.2       8 UNK        -0.5000 
     32 CA          0.3143  -18.8183  -46.2801 C.3       8 UNK         0.1400 
     33 CB         -0.6402  -18.0883  -47.2257 C.3       8 UNK        -0.1800 
     34 N           0.4179  -18.0899  -45.0200 N.am      8 UNK        -0.5000 
     35 C           1.2622  -18.3980  -44.0268 C.2       7 UNK         0.5000 
     36 O           2.0268  -19.3647  -44.0489 O.2       7 UNK        -0.5000 
     37 CA          1.2154  -17.4886  -42.7904 C.3       7 UNK         0.1400 
     38 CB          1.9971  -16.1891  -43.0403 C.3       7 UNK        -0.1800 
     39 N          -0.1672  -17.1704  -42.4357 N.am      7 UNK        -0.5000 
     40 C          -0.9490  -17.9580  -41.6848 C.2       6 UNK         0.5000 
     41 O          -0.5582  -18.9929  -41.1455 O.2       6 UNK        -0.5000 
     42 CA         -2.4197  -17.5301  -41.5128 C.3       6 UNK         0.1400 
     43 CB         -2.5750  -16.6214  -40.2841 C.3       6 UNK        -0.1800 
     44 N          -2.9763  -16.8504  -42.6838 N.am      6 UNK        -0.5000 
     45 C          -3.1627  -17.4235  -43.8805 C.2       5 UNK         0.5000 
     46 O          -2.8778  -18.5932  -44.1321 O.2       5 UNK        -0.5000 
     47 CA         -3.7260  -16.5271  -44.9975 C.3       5 UNK         0.1400 
     48 CB         -5.2601  -16.4932  -44.9346 C.3       5 UNK        -0.1800 
     49 N          -3.2151  -15.1538  -45.0126 N.am      5 UNK        -0.5000 
     50 C          -1.9308  -14.7743  -44.9776 C.2       4 UNK         0.5000 
     51 O          -0.9863  -15.5460  -44.7973 O.2       4 UNK        -0.5000 
     52 CA         -1.6703  -13.2732  -45.2105 C.3       4 UNK         0.1400 
     53 CB         -0.3090  -12.8274  -44.6473 C.3       4 UNK        -0.1800 
     54 N          -1.7101  -12.9598  -46.6368 N.am      4 UNK        -0.5000 
     55 C          -2.7988  -12.9522  -47.4184 C.2       3 UNK         0.5000 
     56 O          -3.9422  -13.0811  -46.9764 O.2       3 UNK        -0.5000 
     57 CA         -2.5920  -12.7489  -48.9387 C.3       3 UNK         0.1400 
     58 CB         -3.4374  -11.5745  -49.4587 C.3       3 UNK        -0.1800 
     59 N          -1.1988  -12.5363  -49.3514 N.am      3 UNK        -0.5000 
     60 C          -0.2333  -13.4639  -49.3476 C.2       2 UNK         0.5000 
     61 O          -0.3998  -14.6192  -48.9599 O.2       2 UNK        -0.5000 
     62 CA          1.1553  -12.9995  -49.8081 C.3       2 UNK         0.1400 
     63 CB          1.7510  -11.9639  -48.8347 C.3       2 UNK        -0.1800 
     64 N           2.0518  -14.1469  -49.8906 N.am      2 UNK        -0.5000 
     65 C           3.0997  -14.2611  -50.7096 C.2       1 UNK         0.5000 
     66 O           3.4164  -13.3892  -51.5220 O.2       1 UNK        -0.5000 
     67 C           4.1262  -23.4227  -46.0176 C.2       11 UNK         0.5000 
     68 O           5.0340  -24.2145  -46.2785 O.2       11 UNK        -0.5000 
     69 N           2.9206  -23.4558  -46.5960 N.am      12 UNK        -0.5000 
     70 CA          2.4784  -24.4475  -47.5629 C.3       12 UNK         0.1400 
     71 CB          2.4708  -23.8136  -48.9623 C.3       12 UNK        -0.1800 
     72 C           1.0883  -24.9061  -47.1101 C.2       12 UNK         0.5000 
     73 O           0.1705  -24.0875  -47.0695 O.2       12 UNK        -0.5000 
     74 N           0.9813  -26.1841  -46.7219 N.am      13 UNK        -0.5000 
     75 CA         -0.1645  -26.8087  -46.0524 C.3       13 UNK         0.1400 
     76 CB          0.0820  -28.3240  -45.9588 C.3       13 UNK        -0.1800 
     77 C          -1.5282  -26.5038  -46.7052 C.2       13 UNK         0.5000 
     78 O          -1.8644  -27.0983  -47.7313 O.2       13 UNK        -0.5000 
     79 N          -2.2634  -25.5643  -46.0931 N.am      14 UNK        -0.5000 
     80 CA         -3.5810  -25.0609  -46.4962 C.3       14 UNK         0.1400 
     81 CB         -4.6507  -26.1667  -46.3827 C.3       14 UNK        -0.1800 
     82 C          -3.6016  -24.3557  -47.8709 C.2       14 UNK         0.5000 
     83 O          -4.6558  -24.2945  -48.5079 O.2       14 UNK        -0.5000 
     84 N          -2.4632  -23.7905  -48.3030 N.am      15 UNK        -0.5000 
     85 CA         -2.3230  -23.1094  -49.5950 C.3       15 UNK         0.1400 
     86 CB         -0.8590  -22.7286  -49.8315 C.3       15 UNK        -0.1800 
     87 C          -3.2375  -21.8830  -49.7701 C.2       15 UNK         0.5000 
     88 O          -3.6319  -21.5896  -50.8961 O.2       15 UNK        -0.5000 
     89 N          -3.6055  -21.2301  -48.6591 N.am      16 UNK        -0.5000 
     90 CA         -4.5726  -20.1307  -48.6198 C.3       16 UNK         0.1400 
     91 CB         -4.5388  -19.4908  -47.2255 C.3       16 UNK        -0.1800 
     92 C          -6.0119  -20.5593  -48.9695 C.2       16 UNK         0.5000 
     93 O          -6.7940  -19.7260  -49.4258 O.2       16 UNK        -0.5000 
     94 N          -6.3437  -21.8386  -48.7438 N.am      17 UNK        -0.5000 
     95 CA         -7.6245  -22.4288  -49.1277 C.3       17 UNK         0.1400 
     96 CB         -7.9910  -23.5517  -48.1443 C.3       17 UNK        -0.1800 
     97 C          -7.5751  -22.9581  -50.5703 C.2       17 UNK         0.5000 
     98 O          -8.5648  -22.8354  -51.2925 O.2       17 UNK        -0.5000 
     99 N          -6.4276  -23.5307  -50.9652 N.am      18 UNK        -0.5000 
    100 CA        -6.1851  -24.0662  -52.3061 C.3       18 UNK         0.1400 
    101 CB        -4.8904  -24.8928  -52.3010 C.3       18 UNK        -0.1800 
    102 C         -6.1270  -22.9686  -53.3853 C.2       18 UNK         0.5000 
    103 O         -6.7244  -23.1318  -54.4501 O.2       18 UNK        -0.5000 
    104 N         -5.4258  -21.8709  -53.0828 N.am      19 UNK        -0.5000 
    105 CA        -5.3064  -20.6816  -53.9134 C.3       19 UNK         0.1400 
    106 CB        -3.8353  -20.5004  -54.3275 C.3       19 UNK        -0.1800 
    107 C         -5.8132  -19.4971  -53.0840 C.2       19 UNK         0.5000 
    108 O         -5.0758  -18.9818  -52.2431 O.2       19 UNK        -0.5000 
    109 N         -7.0683  -19.0935  -53.3248 N.am      20 UNK        -0.5000 
    110 CA        -7.7851  -18.0501  -52.5797 C.3       20 UNK         0.1400 
    111 CB        -9.2103  -17.9241  -53.1383 C.3       20 UNK        -0.1800 
    112 C         -7.0888  -16.6741  -52.5640 C.2       20 UNK         0.5000 
    113 O         -7.2186  -15.9396  -51.5842 O.2       20 UNK        -0.5000 
    114 N         -6.3182  -16.3697  -53.6185 N.am      21 UNK        -0.5000 
    115 CA        -5.4618  -15.1836  -53.7226 C.3       21 UNK         0.1400 
    116 CB        -4.8829  -15.1127  -55.1439 C.3       21 UNK        -0.1800 
    117 C         -4.3272  -15.1446  -52.6755 C.2       21 UNK         0.5000 
    118 O         -3.8496  -14.0597  -52.3428 O.2       21 UNK        -0.5000 
    119 N         -3.9372  -16.3193  -52.1656 N.am      22 UNK        -0.5000 
    120 CA        -3.0062  -16.5005  -51.0452 C.3       22 UNK         0.1400 
    121 C         -3.7130  -16.4599  -49.6536 C.2       22 UNK         0.5000 
    122 N         -5.0186  -16.2302  -49.5590 N.am      22 UNK        -0.7600 
    123 O         -3.0705  -16.6247  -48.6258 O.2       22 UNK        -0.5000 
    124 C124       -2.1441  -17.7824  -51.2523 C.3       23 UNK        -0.0398 
    125 S125       -0.3699  -17.4985  -50.9484 S.3       23 UNK        -0.2404 
    126 C126        0.3028  -19.1556  -51.2770 C.3       23 UNK        -0.0205 
    127 H127        4.4554  -15.3197  -46.0819 H         1 UNK         0.0600 
    128 H128        5.9048  -15.5913  -47.0546 H         1 UNK         0.0600 
    129 H129        4.9742  -16.9669  -46.4543 H         1 UNK         0.0600 
    130 H130        5.5844  -15.3125  -49.2463 H         1 UNK         0.3000 
    131 H131        3.2622  -16.3779  -50.6174 H         1 UNK         0.0600 
    132 H132        4.4353  -15.8145  -52.6804 H         1 UNK         0.0800 
    133 H133        5.5645  -14.7853  -51.8437 H         1 UNK         0.0800 
    134 H134        5.9271  -19.3252  -52.3420 H         1 UNK         0.0800 
    135 H135        4.8593  -18.2469  -53.2082 H         1 UNK         0.0800 
    136 H136        2.5533  -18.5936  -52.7246 H         1 UNK         0.1150 
    137 H137        1.2612  -19.8714  -48.8545 H         1 UNK         0.1150 
    138 H138        5.4349  -19.2682  -49.6242 H         1 UNK         0.1150 
    139 H139        3.6023  -18.9898  -47.0488 H         1 UNK         0.0800 
    140 H140        2.8705  -20.5719  -47.2153 H         1 UNK         0.0800 
    141 H141        4.4808  -20.1422  -45.0236 H         1 UNK         0.0800 
    142 H142        6.0037  -20.9380  -44.9975 H         1 UNK         0.0800 
    143 H143        5.0701  -22.7806  -44.2450 H         1 UNK         0.0600 
    144 H144        2.6852  -21.1995  -44.2312 H         1 UNK         0.3000 
    145 H145        0.9450  -23.5076  -42.0520 H         1 UNK         0.0600 
    146 H146        2.0978  -20.6893  -41.7292 H         1 UNK         0.0600 
    147 H147        0.8108  -21.4073  -40.7649 H         1 UNK         0.0600 
    148 H148        2.4370  -22.0655  -40.6890 H         1 UNK         0.0600 
    149 H149        0.3946  -21.0034  -43.5028 H         1 UNK         0.3000 
    150 H150       -1.7013  -22.4458  -45.8507 H         1 UNK         0.0600 
    151 H151       -3.3051  -22.7881  -43.9493 H         1 UNK         0.0600 
    152 H152       -3.6705  -21.3240  -44.8480 H         1 UNK         0.0600 
    153 H153       -2.8555  -21.2234  -43.2897 H         1 UNK         0.0600 
    154 H154       -1.5991  -19.7727  -44.8147 H         1 UNK         0.3000 
    155 H155        1.3010  -18.7992  -46.7383 H         1 UNK         0.0600 
    156 H156       -0.2490  -17.1094  -47.5054 H         1 UNK         0.0600 
    157 H157       -0.7991  -18.6503  -48.1465 H         1 UNK         0.0600 
    158 H158       -1.6114  -17.9365  -46.7634 H         1 UNK         0.0600 
    159 H159       -0.1560  -17.2556  -44.9302 H         1 UNK         0.3000 
    160 H160        1.6941  -18.0158  -41.9623 H         1 UNK         0.0600 
    161 H161        1.5763  -15.6121  -43.8647 H         1 UNK         0.0600 
    162 H162        3.0373  -16.4031  -43.2891 H         1 UNK         0.0600 
    163 H163        1.9980  -15.5541  -42.1543 H         1 UNK         0.0600 
    164 H164       -0.5838  -16.3799  -42.9130 H         1 UNK         0.3000 
    165 H165       -3.0060  -18.4359  -41.3436 H         1 UNK         0.0600 
    166 H166       -3.6226  -16.3828  -40.0992 H         1 UNK         0.0600 
    167 H167       -2.1909  -17.1088  -39.3870 H         1 UNK         0.0600 
    168 H168       -2.0321  -15.6832  -40.4061 H         1 UNK         0.0600 
    169 H169       -3.2250  -15.8785  -42.5737 H         1 UNK         0.3000 
    170 H170       -3.4460  -16.9748  -45.9496 H         1 UNK         0.0600 
    171 H171       -5.6749  -17.5022  -44.9294 H         1 UNK         0.0600 
    172 H172       -5.6150  -15.9874  -44.0359 H         1 UNK         0.0600 
    173 H173       -5.6776  -15.9764  -45.7989 H         1 UNK         0.0600 
    174 H174       -3.8903  -14.4395  -45.2559 H         1 UNK         0.3000 
    175 H175       -2.4508  -12.7051  -44.7002 H         1 UNK         0.0600 
    176 H176        0.5207  -13.3257  -45.1510 H         1 UNK         0.0600 
    177 H177       -0.1698  -11.7520  -44.7583 H         1 UNK         0.0600 
    178 H178       -0.2325  -13.0572  -43.5837 H         1 UNK         0.0600 
    179 H179       -0.8157  -12.8913  -47.0974 H         1 UNK         0.3000 
    180 H180       -2.9492  -13.6564  -49.4271 H         1 UNK         0.0600 
    181 H181       -3.1309  -10.6288  -49.0104 H         1 UNK         0.0600 
    182 H182       -4.4946  -11.7192  -49.2324 H         1 UNK         0.0600 
    183 H183       -3.3540  -11.4791  -50.5416 H         1 UNK         0.0600 
    184 H184       -0.9722  -11.6030  -49.6637 H         1 UNK         0.3000 
    185 H185        1.0420  -12.5512  -50.7974 H         1 UNK         0.0600 
    186 H186        1.8608  -12.3763  -47.8307 H         1 UNK         0.0600 
    187 H187        2.7346  -11.6309  -49.1663 H         1 UNK         0.0600 
    188 H188        1.1221  -11.0763  -48.7601 H         1 UNK         0.0600 
    189 H189        1.8335  -14.9131  -49.2577 H         1 UNK         0.3000 
    190 H190        2.2068  -22.7928  -46.3139 H         1 UNK         0.3000 
    191 H191        3.1481  -25.3099  -47.5748 H         1 UNK         0.0600 
    192 H192        1.8894  -22.8913  -48.9810 H         1 UNK         0.0600 
    193 H193        2.0505  -24.4957  -49.7018 H         1 UNK         0.0600 
    194 H194        3.4830  -23.5661  -49.2825 H         1 UNK         0.0600 
    195 H195        1.7966  -26.7722  -46.8112 H         1 UNK         0.3000 
    196 H196       -0.1839  -26.4206  -45.0322 H         1 UNK         0.0600 
    197 H197        0.2001  -28.7747  -46.9451 H         1 UNK         0.0600 
    198 H198       -0.7521  -28.8259  -45.4664 H         1 UNK         0.0600 
    199 H199        0.9788  -28.5442  -45.3794 H         1 UNK         0.0600 
    200 H200       -1.8410  -25.0962  -45.2970 H         1 UNK         0.3000 
    201 H201       -3.8395  -24.2901  -45.7705 H         1 UNK         0.0600 
    202 H202       -4.6285  -26.6383  -45.4004 H         1 UNK         0.0600 
    203 H203       -4.5097  -26.9452  -47.1329 H         1 UNK         0.0600 
    204 H204       -5.6529  -25.7593  -46.5215 H         1 UNK         0.0600 
    205 H205       -1.6127  -23.8955  -47.7532 H         1 UNK         0.3000 
    206 H206       -2.6014  -23.8300  -50.3648 H         1 UNK         0.0600 
    207 H207       -0.2320  -23.6185  -49.8377 H         1 UNK         0.0600 
    208 H208       -0.7304  -22.2405  -50.7979 H         1 UNK         0.0600 
    209 H209       -0.4871  -22.0524  -49.0611 H         1 UNK         0.0600 
    210 H210       -3.2292  -21.5398  -47.7766 H         1 UNK         0.3000 
    211 H211       -4.2664  -19.3839  -49.3531 H         1 UNK         0.0600 
    212 H212       -4.9432  -20.1573  -46.4636 H         1 UNK         0.0600 
    213 H213       -5.1316  -18.5758  -47.2093 H         1 UNK         0.0600 
    214 H214       -3.5235  -19.2259  -46.9357 H         1 UNK         0.0600 
    215 H215       -5.6386  -22.4808  -48.4028 H         1 UNK         0.3000 
    216 H216       -8.4090  -21.6709  -49.0726 H         1 UNK         0.0600 
    217 H217       -8.9726  -23.9656  -48.3781 H         1 UNK         0.0600 
    218 H218       -8.0300  -23.1814  -47.1199 H         1 UNK         0.0600 
    219 H219       -7.2758  -24.3737  -48.1767 H         1 UNK         0.0600 
    220 H220       -5.6809  -23.6315  -50.2888 H         1 UNK         0.3000 
    221 H221       -7.0119  -24.7358  -52.5520 H         1 UNK         0.0600 
    222 H222       -4.0150  -24.2665  -52.1326 H         1 UNK         0.0600 
    223 H223       -4.9108  -25.6606  -51.5272 H         1 UNK         0.0600 
    224 H224       -4.7495  -25.3968  -53.2579 H         1 UNK         0.0600 
    225 H225       -4.9490  -21.8113  -52.1844 H         1 UNK         0.3000 
    226 H226       -5.9115  -20.7644  -54.8186 H         1 UNK         0.0600 
    227 H227       -3.4977  -21.3328  -54.9449 H         1 UNK         0.0600 
    228 H228       -3.7024  -19.5870  -54.9082 H         1 UNK         0.0600 
    229 H229       -3.1736  -20.4402  -53.4620 H         1 UNK         0.0600 
    230 H230       -7.6046  -19.5821  -54.0271 H         1 UNK         0.3000 
    231 H231       -7.8554  -18.3843  -51.5430 H         1 UNK         0.0600 
    232 H232       -9.7804  -17.1729  -52.5897 H         1 UNK         0.0600 
    233 H233       -9.7525  -18.8660  -53.0532 H         1 UNK         0.0600 
    234 H234       -9.2062  -17.6308  -54.1889 H         1 UNK         0.0600 
    235 H235       -6.2679  -17.0328  -54.3777 H         1 UNK         0.3000 
    236 H236       -6.0870  -14.3031  -53.5609 H         1 UNK         0.0600 
    237 H237       -4.2606  -14.2254  -55.2683 H         1 UNK         0.0600 
    238 H238       -5.6749  -15.0595  -55.8912 H         1 UNK         0.0600 
    239 H239       -4.2640  -15.9820  -55.3695 H         1 UNK         0.0600 
    240 H240       -4.4242  -17.1650  -52.4470 H         1 UNK         0.3000 
    241 H241       -2.3355  -15.6393  -51.0415 H         1 UNK         0.0600 
    242 H242       -5.4386  -16.1993  -48.6457 H         1 UNK         0.3800 
    243 H243       -5.5994  -16.0958  -50.3777 H         1 UNK         0.3800 
    244 H244       -2.2309  -18.1444  -52.2781 H         1 UNK         0.0800 
    245 H245       -2.4878  -18.6085  -50.6285 H         1 UNK         0.0800 
    246 H246        0.2101  -19.3870  -52.3391 H         1 UNK         0.0800 
    247 H247       -0.2911  -19.8964  -50.7410 H         1 UNK         0.0800 
@<TRIPOS>BOND
     1    1    2 1    
     2    1  127 1    
     3    1  128 1    
     4    1  129 1    
     5    2    3 2    
     6    2    4 am   BACKBONE|DICT|INTERRES
     7    4    5 1    
     8    4  130 1    
     9    5    6 1    
    10    5   65 1    
    11    5  131 1    
    12    6    7 1    
    13    6  132 1    
    14    6  133 1    
    15    7    8 1    
    16    8    9 1    
    17    8  134 1    
    18    8  135 1    
    19    9   10 ar   
    20    9   14 ar   
    21   10   11 ar   
    22   10  136 1    
    23   11   12 ar   
    24   11  126 1    
    25   12   13 ar   
    26   12  137 1    
    27   13   14 ar   
    28   13   15 1    
    29   14  138 1    
    30   15   16 1    
    31   15  139 1    
    32   15  140 1    
    33   16   17 1    
    34   17   18 1    
    35   17  141 1    
    36   17  142 1    
    37   18   19 1    
    38   18   67 1    
    39   18  143 1    
    40   19   20 am   BACKBONE|DICT|INTERRES
    41   19  144 1    
    42   20   21 2    
    43   20   22 1    
    44   22   23 1    
    45   22   24 1    
    46   22  145 1    
    47   23  146 1    
    48   23  147 1    
    49   23  148 1    
    50   24   25 am   BACKBONE|DICT|INTERRES
    51   24  149 1    
    52   25   26 2    
    53   25   27 1    
    54   27   28 1    
    55   27   29 1    
    56   27  150 1    
    57   28  151 1    
    58   28  152 1    
    59   28  153 1    
    60   29   30 am   BACKBONE|DICT|INTERRES
    61   29  154 1    
    62   30   31 2    
    63   30   32 1    
    64   32   33 1    
    65   32   34 1    
    66   32  155 1    
    67   33  156 1    
    68   33  157 1    
    69   33  158 1    
    70   34   35 am   BACKBONE|DICT|INTERRES
    71   34  159 1    
    72   35   36 2    
    73   35   37 1    
    74   37   38 1    
    75   37   39 1    
    76   37  160 1    
    77   38  161 1    
    78   38  162 1    
    79   38  163 1    
    80   39   40 am   BACKBONE|DICT|INTERRES
    81   39  164 1    
    82   40   41 2    
    83   40   42 1    
    84   42   43 1    
    85   42   44 1    
    86   42  165 1    
    87   43  166 1    
    88   43  167 1    
    89   43  168 1    
    90   44   45 am   BACKBONE|DICT|INTERRES
    91   44  169 1    
    92   45   46 2    
    93   45   47 1    
    94   47   48 1    
    95   47   49 1    
    96   47  170 1    
    97   48  171 1    
    98   48  172 1    
    99   48  173 1    
   100   49   50 am   BACKBONE|DICT|INTERRES
   101   49  174 1    
   102   50   51 2    
   103   50   52 1    
   104   52   53 1    
   105   52   54 1    
   106   52  175 1    
   107   53  176 1    
   108   53  177 1    
   109   53  178 1    
   110   54   55 am   BACKBONE|DICT|INTERRES
   111   54  179 1    
   112   55   56 2    
   113   55   57 1    
   114   57   58 1    
   115   57   59 1    
   116   57  180 1    
   117   58  181 1    
   118   58  182 1    
   119   58  183 1    
   120   59   60 am   BACKBONE|DICT|INTERRES
   121   59  184 1    
   122   60   61 2    
   123   60   62 1    
   124   62   63 1    
   125   62   64 1    
   126   62  185 1    
   127   63  186 1    
   128   63  187 1    
   129   63  188 1    
   130   64   65 am   BACKBONE|DICT|INTERRES
   131   64  189 1    
   132   65   66 2    
   133   67   68 2    
   134   67   69 am   BACKBONE|DICT|INTERRES
   135   69   70 1    
   136   69  190 1    
   137   70   71 1    
   138   70   72 1    
   139   70  191 1    
   140   71  192 1    
   141   71  193 1    
   142   71  194 1    
   143   72   73 2    
   144   72   74 am   BACKBONE|DICT|INTERRES
   145   74   75 1    
   146   74  195 1    
   147   75   76 1    
   148   75   77 1    
   149   75  196 1    
   150   76  197 1    
   151   76  198 1    
   152   76  199 1    
   153   77   78 2    
   154   77   79 am   BACKBONE|DICT|INTERRES
   155   79   80 1    
   156   79  200 1    
   157   80   81 1    
   158   80   82 1    
   159   80  201 1    
   160   81  202 1    
   161   81  203 1    
   162   81  204 1    
   163   82   83 2    
   164   82   84 am   BACKBONE|DICT|INTERRES
   165   84   85 1    
   166   84  205 1    
   167   85   86 1    
   168   85   87 1    
   169   85  206 1    
   170   86  207 1    
   171   86  208 1    
   172   86  209 1    
   173   87   88 2    
   174   87   89 am   BACKBONE|DICT|INTERRES
   175   89   90 1    
   176   89  210 1    
   177   90   91 1    
   178   90   92 1    
   179   90  211 1    
   180   91  212 1    
   181   91  213 1    
   182   91  214 1    
   183   92   93 2    
   184   92   94 am   BACKBONE|DICT|INTERRES
   185   94   95 1    
   186   94  215 1    
   187   95   96 1    
   188   95   97 1    
   189   95  216 1    
   190   96  217 1    
   191   96  218 1    
   192   96  219 1    
   193   97   98 2    
   194   97   99 am   BACKBONE|DICT|INTERRES
   195   99  100 1    
   196   99  220 1    
   197  100  101 1    
   198  100  102 1    
   199  100  221 1    
   200  101  222 1    
   201  101  223 1    
   202  101  224 1    
   203  102  103 2    
   204  102  104 am   BACKBONE|DICT|INTERRES
   205  104  105 1    
   206  104  225 1    
   207  105  106 1    
   208  105  107 1    
   209  105  226 1    
   210  106  227 1    
   211  106  228 1    
   212  106  229 1    
   213  107  108 2    
   214  107  109 am   BACKBONE|DICT|INTERRES
   215  109  110 1    
   216  109  230 1    
   217  110  111 1    
   218  110  112 1    
   219  110  231 1    
   220  111  232 1    
   221  111  233 1    
   222  111  234 1    
   223  112  113 2    
   224  112  114 am   BACKBONE|DICT|INTERRES
   225  114  115 1    
   226  114  235 1    
   227  115  116 1    
   228  115  117 1    
   229  115  236 1    
   230  116  237 1    
   231  116  238 1    
   232  116  239 1    
   233  117  118 2    
   234  117  119 am   BACKBONE|DICT|INTERRES
   235  119  120 1    
   236  119  240 1    
   237  120  121 1    
   238  120  124 1    
   239  120  241 1    
   240  121  122 am   BACKBONE|DICT|INTERRES
   241  121  123 2    
   242  122  242 1    
   243  122  243 1    
   244  124  125 1    
   245  124  244 1    
   246  124  245 1    
   247  125  126 1    
   248  126  246 1    
   249  126  247 1    
@<TRIPOS>SUBSTRUCTURE
     1 UNK         1 GROUP             0       ****    0 ROOT    
