@<TRIPOS>MOLECULE
3R540
247   249    1
SMALL
USER_CHARGES


@<TRIPOS>ATOM
      1 CA         -1.1047  -14.4302  -53.3561 C.3       0 UNK        -0.1800 
      2 C          -0.2670  -15.2001  -52.3464 C.2       0 UNK         0.5000 
      3 O          -0.6535  -16.2885  -51.9257 O.2       0 UNK        -0.5000 
      4 N           0.8846  -14.6419  -51.9566 N.am      1 UNK        -0.5000 
      5 CA          1.8051  -15.2008  -50.9623 C.3       1 UNK         0.1400 
      6 C6          2.6613  -14.0808  -50.3127 C.3       23 UNK        -0.0398 
      7 S7          3.1531  -14.5058  -48.6095 S.3       23 UNK        -0.2404 
      8 C8          2.0227  -13.4712  -47.6266 C.3       23 UNK        -0.0205 
      9 C9          0.5680  -13.8933  -47.7785 C.ar      23 UNK        -0.0193 
     10 C10        -0.2885  -13.1982  -48.6382 C.ar      23 UNK        -0.1150 
     11 C11        -1.6356  -13.5550  -48.7572 C.ar      23 UNK        -0.0193 
     12 C12        -2.1214  -14.6123  -47.9765 C.ar      23 UNK        -0.1150 
     13 C13        -1.2751  -15.3268  -47.1246 C.ar      23 UNK        -0.0193 
     14 C14         0.0714  -14.9676  -47.0381 C.ar      23 UNK        -0.1150 
     15 C15        -1.8250  -16.4687  -46.2829 C.3       23 UNK        -0.0205 
     16 S16        -2.5776  -17.7642  -47.3127 S.3       23 UNK        -0.2404 
     17 C17        -2.9949  -18.9996  -46.0493 C.3       23 UNK        -0.0398 
     18 CA         -1.9901  -20.1845  -46.0346 C.3       11 UNK         0.1400 
     19 N          -1.3449  -20.3245  -44.7264 N.am      11 UNK        -0.5000 
     20 C          -0.3641  -21.1858  -44.4260 C.2       10 UNK         0.5000 
     21 O           0.1769  -21.9265  -45.2458 O.2       10 UNK        -0.5000 
     22 CA          0.0380  -21.2693  -42.9433 C.3       10 UNK         0.1400 
     23 CB          1.0910  -20.2105  -42.5974 C.3       10 UNK        -0.1800 
     24 N          -1.1165  -21.1296  -42.0542 N.am      10 UNK        -0.5000 
     25 C          -2.0701  -22.0614  -41.9134 C.2       9 UNK         0.5000 
     26 O          -2.0499  -23.1476  -42.4889 O.2       9 UNK        -0.5000 
     27 CA         -3.2708  -21.7033  -41.0203 C.3       9 UNK         0.1400 
     28 CB         -2.9445  -21.9670  -39.5430 C.3       9 UNK        -0.1800 
     29 N          -3.6992  -20.3143  -41.1825 N.am      9 UNK        -0.5000 
     30 C          -4.2094  -19.7990  -42.3103 C.2       8 UNK         0.5000 
     31 O          -4.4041  -20.4506  -43.3370 O.2       8 UNK        -0.5000 
     32 CA         -4.4924  -18.2843  -42.2995 C.3       8 UNK         0.1400 
     33 CB         -5.8835  -17.9997  -41.7146 C.3       8 UNK        -0.1800 
     34 N          -3.4852  -17.5142  -41.5604 N.am      8 UNK        -0.5000 
     35 C          -2.1833  -17.4649  -41.8741 C.2       7 UNK         0.5000 
     36 O          -1.6870  -18.0890  -42.8139 O.2       7 UNK        -0.5000 
     37 CA         -1.2791  -16.6456  -40.9342 C.3       7 UNK         0.1400 
     38 CB         -0.6475  -17.5660  -39.8780 C.3       7 UNK        -0.1800 
     39 N          -0.2106  -15.9549  -41.6552 N.am      7 UNK        -0.5000 
     40 C          -0.3940  -14.9402  -42.5103 C.2       6 UNK         0.5000 
     41 O          -1.4932  -14.4277  -42.7273 O.2       6 UNK        -0.5000 
     42 CA          0.8519  -14.3772  -43.2318 C.3       6 UNK         0.1400 
     43 CB          1.2460  -13.0157  -42.6379 C.3       6 UNK        -0.1800 
     44 N           2.0365  -15.2469  -43.2339 N.am      6 UNK        -0.5000 
     45 C           2.1039  -16.4438  -43.8287 C.2       5 UNK         0.5000 
     46 O           1.1333  -16.9941  -44.3483 O.2       5 UNK        -0.5000 
     47 CA          3.4744  -17.1496  -43.8341 C.3       5 UNK         0.1400 
     48 CB          3.8274  -17.6869  -42.4377 C.3       5 UNK        -0.1800 
     49 N           3.4364  -18.2614  -44.7858 N.am      5 UNK        -0.5000 
     50 C           3.6390  -18.1148  -46.0999 C.2       4 UNK         0.5000 
     51 O           4.1797  -17.1274  -46.6027 O.2       4 UNK        -0.5000 
     52 CA          3.0780  -19.2337  -46.9961 C.3       4 UNK         0.1400 
     53 CB          1.5604  -19.0610  -47.1662 C.3       4 UNK        -0.1800 
     54 N           3.6929  -19.2139  -48.3204 N.am      4 UNK        -0.5000 
     55 C           4.8746  -19.7611  -48.6240 C.2       3 UNK         0.5000 
     56 O           5.5387  -20.4197  -47.8214 O.2       3 UNK        -0.5000 
     57 CA          5.4278  -19.5104  -50.0451 C.3       3 UNK         0.1400 
     58 CB          6.1072  -20.7628  -50.6381 C.3       3 UNK        -0.1800 
     59 N           4.4631  -18.9363  -50.9948 N.am      3 UNK        -0.5000 
     60 C           3.3661  -19.5053  -51.5140 C.2       2 UNK         0.5000 
     61 O           2.9629  -20.6272  -51.2063 O.2       2 UNK        -0.5000 
     62 CA          2.5860  -18.6486  -52.5356 C.3       2 UNK         0.1400 
     63 CB          1.4874  -19.4423  -53.2659 C.3       2 UNK        -0.1800 
     64 N           1.9906  -17.4591  -51.9205 N.am      2 UNK        -0.5000 
     65 C           2.6509  -16.3505  -51.5616 C.2       1 UNK         0.5000 
     66 O           3.8668  -16.2179  -51.7187 O.2       1 UNK        -0.5000 
     67 C          -2.6581  -21.4978  -46.4965 C.2       11 UNK         0.5000 
     68 O          -2.5341  -21.8751  -47.6635 O.2       11 UNK        -0.5000 
     69 N          -3.3357  -22.1746  -45.5584 N.am      12 UNK        -0.5000 
     70 CA         -3.9332  -23.4930  -45.7516 C.3       12 UNK         0.1400 
     71 CB         -4.9199  -23.7801  -44.6105 C.3       12 UNK        -0.1800 
     72 C          -2.8740  -24.6053  -45.8610 C.2       12 UNK         0.5000 
     73 O          -2.9903  -25.4613  -46.7374 O.2       12 UNK        -0.5000 
     74 N          -1.8510  -24.5671  -44.9930 N.am      13 UNK        -0.5000 
     75 CA         -0.7512  -25.5375  -44.9507 C.3       13 UNK         0.1400 
     76 CB          0.1316  -25.2785  -43.7221 C.3       13 UNK        -0.1800 
     77 C           0.1072  -25.5632  -46.2285 C.2       13 UNK         0.5000 
     78 O           0.6138  -26.6259  -46.5913 O.2       13 UNK        -0.5000 
     79 N           0.2136  -24.4212  -46.9218 N.am      14 UNK        -0.5000 
     80 CA          0.8507  -24.2560  -48.2322 C.3       14 UNK         0.1400 
     81 CB          1.1424  -22.7591  -48.4462 C.3       14 UNK        -0.1800 
     82 C           0.0156  -24.8659  -49.3846 C.2       14 UNK         0.5000 
     83 O          -0.2415  -24.1949  -50.3855 O.2       14 UNK        -0.5000 
     84 N          -0.4336  -26.1183  -49.2038 N.am      15 UNK        -0.5000 
     85 CA         -1.2668  -26.9363  -50.0985 C.3       15 UNK         0.1400 
     86 CB         -0.4469  -27.3540  -51.3365 C.3       15 UNK        -0.1800 
     87 C          -2.6127  -26.2820  -50.4885 C.2       15 UNK         0.5000 
     88 O          -3.1801  -26.6214  -51.5280 O.2       15 UNK        -0.5000 
     89 N          -3.0661  -25.3171  -49.6742 N.am      16 UNK        -0.5000 
     90 CA         -4.1496  -24.3579  -49.9105 C.3       16 UNK         0.1400 
     91 CB         -5.5166  -25.0690  -49.9236 C.3       16 UNK        -0.1800 
     92 C          -3.9453  -23.4560  -51.1500 C.2       16 UNK         0.5000 
     93 O          -4.8793  -22.7577  -51.5442 O.2       16 UNK        -0.5000 
     94 N          -2.7404  -23.4560  -51.7393 N.am      17 UNK        -0.5000 
     95 CA         -2.4105  -22.7181  -52.9560 C.3       17 UNK         0.1400 
     96 CB         -1.0890  -23.2415  -53.5384 C.3       17 UNK        -0.1800 
     97 C          -2.3351  -21.2099  -52.6953 C.2       17 UNK         0.5000 
     98 O          -2.8608  -20.4304  -53.4881 O.2       17 UNK        -0.5000 
     99 N          -1.7295  -20.8323  -51.5612 N.am      18 UNK        -0.5000 
    100 CA        -1.6689  -19.4489  -51.0953 C.3       18 UNK         0.1400 
    101 CB        -0.6732  -19.3408  -49.9333 C.3       18 UNK        -0.1800 
    102 C         -3.0576  -18.9207  -50.7003 C.2       18 UNK         0.5000 
    103 O         -3.3994  -17.7926  -51.0493 O.2       18 UNK        -0.5000 
    104 N         -3.8602  -19.7681  -50.0378 N.am      19 UNK        -0.5000 
    105 CA        -5.2471  -19.4705  -49.6789 C.3       19 UNK         0.1400 
    106 CB        -5.8144  -20.5993  -48.8035 C.3       19 UNK        -0.1800 
    107 C         -6.1312  -19.2257  -50.9165 C.2       19 UNK         0.5000 
    108 O         -6.8692  -18.2404  -50.9490 O.2       19 UNK        -0.5000 
    109 N         -6.0039  -20.0962  -51.9280 N.am      20 UNK        -0.5000 
    110 CA        -6.6907  -19.9822  -53.2144 C.3       20 UNK         0.1400 
    111 CB        -6.4783  -21.2706  -54.0238 C.3       20 UNK        -0.1800 
    112 C         -6.2543  -18.7505  -54.0300 C.2       20 UNK         0.5000 
    113 O         -7.1043  -18.1061  -54.6457 O.2       20 UNK        -0.5000 
    114 N         -4.9492  -18.4444  -54.0214 N.am      21 UNK        -0.5000 
    115 CA        -4.3684  -17.2920  -54.7098 C.3       21 UNK         0.1400 
    116 CB        -2.8420  -17.4473  -54.7836 C.3       21 UNK        -0.1800 
    117 C         -4.7539  -15.9527  -54.0568 C.2       21 UNK         0.5000 
    118 O         -5.1185  -15.0167  -54.7701 O.2       21 UNK        -0.5000 
    119 N         -4.6656  -15.8827  -52.7228 N.am      22 UNK        -0.5000 
    120 CA        -5.0385  -14.7054  -51.9274 C.3       22 UNK         0.1400 
    121 C         -6.5758  -14.4763  -51.8492 C.2       22 UNK         0.5000 
    122 N         -7.3913  -15.5162  -51.7222 N.am      22 UNK        -0.7600 
    123 O         -7.0393  -13.3417  -51.9269 O.2       22 UNK        -0.5000 
    124 C124       -4.3835  -14.7557  -50.5245 C.3       23 UNK        -0.0398 
    125 S125       -4.3009  -13.1236  -49.7047 S.3       23 UNK        -0.2404 
    126 C126       -2.5075  -12.7681  -49.7411 C.3       23 UNK        -0.0205 
    127 H127       -2.1501  -14.4250  -53.0499 H         1 UNK         0.0600 
    128 H128       -1.0350  -14.8995  -54.3365 H         1 UNK         0.0600 
    129 H129       -0.7753  -13.3951  -53.4477 H         1 UNK         0.0600 
    130 H130        1.1714  -13.7683  -52.3742 H         1 UNK         0.3000 
    131 H131        1.1888  -15.6429  -50.1753 H         1 UNK         0.0600 
    132 H132        2.1018  -13.1461  -50.2788 H         1 UNK         0.0800 
    133 H133        3.5517  -13.8484  -50.8989 H         1 UNK         0.0800 
    134 H134        2.1511  -12.4237  -47.9039 H         1 UNK         0.0800 
    135 H135        2.3106  -13.5424  -46.5765 H         1 UNK         0.0800 
    136 H136        0.0942  -12.3707  -49.2187 H         1 UNK         0.1150 
    137 H137       -3.1583  -14.9067  -48.0267 H         1 UNK         0.1150 
    138 H138        0.7352  -15.5148  -46.3858 H         1 UNK         0.1150 
    139 H139       -1.0386  -16.9188  -45.6770 H         1 UNK         0.0800 
    140 H140       -2.5670  -16.0749  -45.5869 H         1 UNK         0.0800 
    141 H141       -4.0228  -19.3213  -46.2270 H         1 UNK         0.0800 
    142 H142       -3.0284  -18.5005  -45.0820 H         1 UNK         0.0800 
    143 H143       -1.1836  -19.9884  -46.7416 H         1 UNK         0.0600 
    144 H144       -1.6636  -19.6969  -43.9949 H         1 UNK         0.3000 
    145 H145        0.4840  -22.2493  -42.7680 H         1 UNK         0.0600 
    146 H146        1.3943  -20.2825  -41.5529 H         1 UNK         0.0600 
    147 H147        1.9854  -20.3468  -43.2052 H         1 UNK         0.0600 
    148 H148        0.7223  -19.1999  -42.7723 H         1 UNK         0.0600 
    149 H149       -1.2338  -20.2379  -41.5972 H         1 UNK         0.3000 
    150 H150       -4.1031  -22.3491  -41.3083 H         1 UNK         0.0600 
    151 H151       -2.6364  -23.0023  -39.3907 H         1 UNK         0.0600 
    152 H152       -3.8146  -21.7920  -38.9099 H         1 UNK         0.0600 
    153 H153       -2.1356  -21.3278  -39.1870 H         1 UNK         0.0600 
    154 H154       -3.5743  -19.7029  -40.3896 H         1 UNK         0.3000 
    155 H155       -4.4852  -17.9365  -43.3338 H         1 UNK         0.0600 
    156 H156       -5.9496  -18.2939  -40.6664 H         1 UNK         0.0600 
    157 H157       -6.6548  -18.5469  -42.2585 H         1 UNK         0.0600 
    158 H158       -6.1307  -16.9400  -41.7825 H         1 UNK         0.0600 
    159 H159       -3.8185  -16.9855  -40.7671 H         1 UNK         0.3000 
    160 H160       -1.8868  -15.8946  -40.4253 H         1 UNK         0.0600 
    161 H161       -0.0051  -18.3209  -40.3330 H         1 UNK         0.0600 
    162 H162       -1.4129  -18.0887  -39.3031 H         1 UNK         0.0600 
    163 H163       -0.0445  -16.9971  -39.1700 H         1 UNK         0.0600 
    164 H164        0.7174  -16.3395  -41.5707 H         1 UNK         0.3000 
    165 H165        0.5625  -14.2159  -44.2716 H         1 UNK         0.0600 
    166 H166        2.0516  -12.5536  -43.2089 H         1 UNK         0.0600 
    167 H167        0.4038  -12.3225  -42.6514 H         1 UNK         0.0600 
    168 H168        1.5767  -13.1103  -41.6028 H         1 UNK         0.0600 
    169 H169        2.8683  -14.8658  -42.8066 H         1 UNK         0.3000 
    170 H170        4.2381  -16.4288  -44.1337 H         1 UNK         0.0600 
    171 H171        3.9581  -16.8706  -41.7266 H         1 UNK         0.0600 
    172 H172        3.0516  -18.3401  -42.0408 H         1 UNK         0.0600 
    173 H173        4.7611  -18.2492  -42.4567 H         1 UNK         0.0600 
    174 H174        2.9411  -19.0814  -44.4716 H         1 UNK         0.3000 
    175 H175        3.2691  -20.1979  -46.5198 H         1 UNK         0.0600 
    176 H176        1.3105  -18.1196  -47.6579 H         1 UNK         0.0600 
    177 H177        1.1395  -19.8739  -47.7555 H         1 UNK         0.0600 
    178 H178        1.0524  -19.0666  -46.2016 H         1 UNK         0.0600 
    179 H179        3.2371  -18.6522  -49.0224 H         1 UNK         0.3000 
    180 H180        6.2016  -18.7511  -49.9241 H         1 UNK         0.0600 
    181 H181        6.5099  -20.5612  -51.6307 H         1 UNK         0.0600 
    182 H182        5.4138  -21.6001  -50.7197 H         1 UNK         0.0600 
    183 H183        6.9392  -21.0905  -50.0138 H         1 UNK         0.0600 
    184 H184        4.6446  -17.9753  -51.2721 H         1 UNK         0.3000 
    185 H185        3.3010  -18.3197  -53.2927 H         1 UNK         0.0600 
    186 H186        0.9439  -18.8141  -53.9719 H         1 UNK         0.0600 
    187 H187        1.9186  -20.2694  -53.8311 H         1 UNK         0.0600 
    188 H188        0.7655  -19.8697  -52.5728 H         1 UNK         0.0600 
    189 H189        0.9814  -17.4529  -51.8107 H         1 UNK         0.3000 
    190 H190       -3.4425  -21.7553  -44.6410 H         1 UNK         0.3000 
    191 H191       -4.4991  -23.4755  -46.6848 H         1 UNK         0.0600 
    192 H192       -5.4057  -24.7467  -44.7493 H         1 UNK         0.0600 
    193 H193       -5.7041  -23.0238  -44.5695 H         1 UNK         0.0600 
    194 H194       -4.4241  -23.7979  -43.6398 H         1 UNK         0.0600 
    195 H195       -1.8602  -23.8668  -44.2569 H         1 UNK         0.3000 
    196 H196       -1.1981  -26.5276  -44.8403 H         1 UNK         0.0600 
    197 H197        0.6235  -24.3087  -43.7824 H         1 UNK         0.0600 
    198 H198       -0.4489  -25.3103  -42.8002 H         1 UNK         0.0600 
    199 H199        0.9130  -26.0348  -43.6381 H         1 UNK         0.0600 
    200 H200       -0.1888  -23.5843  -46.5143 H         1 UNK         0.3000 
    201 H201        1.8066  -24.7830  -48.2192 H         1 UNK         0.0600 
    202 H202        0.2235  -22.1717  -48.4601 H         1 UNK         0.0600 
    203 H203        1.6598  -22.5849  -49.3907 H         1 UNK         0.0600 
    204 H204        1.7783  -22.3643  -47.6536 H         1 UNK         0.0600 
    205 H205       -0.1687  -26.5630  -48.3290 H         1 UNK         0.3000 
    206 H206       -1.5186  -27.8398  -49.5419 H         1 UNK         0.0600 
    207 H207        0.4926  -27.8245  -51.0468 H         1 UNK         0.0600 
    208 H208       -0.9926  -28.0744  -51.9469 H         1 UNK         0.0600 
    209 H209       -0.2119  -26.4983  -51.9707 H         1 UNK         0.0600 
    210 H210       -2.5657  -25.1807  -48.8034 H         1 UNK         0.3000 
    211 H211       -4.1387  -23.6831  -49.0547 H         1 UNK         0.0600 
    212 H212       -6.3339  -24.3474  -49.9532 H         1 UNK         0.0600 
    213 H213       -5.6528  -25.6743  -49.0273 H         1 UNK         0.0600 
    214 H214       -5.6255  -25.7209  -50.7905 H         1 UNK         0.0600 
    215 H215       -1.9856  -23.9855  -51.3141 H         1 UNK         0.3000 
    216 H216       -3.2004  -22.8960  -53.6889 H         1 UNK         0.0600 
    217 H217       -0.2513  -23.0714  -52.8608 H         1 UNK         0.0600 
    218 H218       -0.8545  -22.7425  -54.4794 H         1 UNK         0.0600 
    219 H219       -1.1437  -24.3115  -53.7403 H         1 UNK         0.0600 
    220 H220       -1.3325  -21.5433  -50.9632 H         1 UNK         0.3000 
    221 H221       -1.3035  -18.8327  -51.9182 H         1 UNK         0.0600 
    222 H222        0.3205  -19.6816  -50.2227 H         1 UNK         0.0600 
    223 H223       -0.9939  -19.9373  -49.0803 H         1 UNK         0.0600 
    224 H224       -0.5783  -18.3064  -49.5998 H         1 UNK         0.0600 
    225 H225       -3.5023  -20.6765  -49.7814 H         1 UNK         0.3000 
    226 H226       -5.2438  -18.5526  -49.0871 H         1 UNK         0.0600 
    227 H227       -5.8242  -21.5552  -49.3265 H         1 UNK         0.0600 
    228 H228       -5.2331  -20.7241  -47.8910 H         1 UNK         0.0600 
    229 H229       -6.8403  -20.3801  -48.5052 H         1 UNK         0.0600 
    230 H230       -5.4094  -20.9111  -51.8049 H         1 UNK         0.3000 
    231 H231       -7.7591  -19.8825  -53.0123 H         1 UNK         0.0600 
    232 H232       -5.4211  -21.4508  -54.2222 H         1 UNK         0.0600 
    233 H233       -6.9902  -21.2184  -54.9854 H         1 UNK         0.0600 
    234 H234       -6.8706  -22.1381  -53.4929 H         1 UNK         0.0600 
    235 H235       -4.3004  -19.0614  -53.5426 H         1 UNK         0.3000 
    236 H236       -4.7510  -17.2846  -55.7327 H         1 UNK         0.0600 
    237 H237       -2.5633  -18.3623  -55.3063 H         1 UNK         0.0600 
    238 H238       -2.3923  -16.6160  -55.3265 H         1 UNK         0.0600 
    239 H239       -2.3914  -17.4789  -53.7909 H         1 UNK         0.0600 
    240 H240       -4.3155  -16.6846  -52.2018 H         1 UNK         0.3000 
    241 H241       -4.6192  -13.8396  -52.4442 H         1 UNK         0.0600 
    242 H242       -8.3849  -15.3564  -51.6865 H         1 UNK         0.3800 
    243 H243       -7.0397  -16.4628  -51.6044 H         1 UNK         0.3800 
    244 H244       -3.3668  -15.1434  -50.6093 H         1 UNK         0.0800 
    245 H245       -4.9096  -15.4580  -49.8753 H         1 UNK         0.0800 
    246 H246       -2.3806  -11.7040  -49.5367 H         1 UNK         0.0800 
    247 H247       -2.1358  -12.9312  -50.7536 H         1 UNK         0.0800 
@<TRIPOS>BOND
     1    1    2 1    
     2    1  127 1    
     3    1  128 1    
     4    1  129 1    
     5    2    3 2    
     6    2    4 am   BACKBONE|DICT|INTERRES
     7    4    5 1    
     8    4  130 1    
     9    5    6 1    
    10    5   65 1    
    11    5  131 1    
    12    6    7 1    
    13    6  132 1    
    14    6  133 1    
    15    7    8 1    
    16    8    9 1    
    17    8  134 1    
    18    8  135 1    
    19    9   10 ar   
    20    9   14 ar   
    21   10   11 ar   
    22   10  136 1    
    23   11   12 ar   
    24   11  126 1    
    25   12   13 ar   
    26   12  137 1    
    27   13   14 ar   
    28   13   15 1    
    29   14  138 1    
    30   15   16 1    
    31   15  139 1    
    32   15  140 1    
    33   16   17 1    
    34   17   18 1    
    35   17  141 1    
    36   17  142 1    
    37   18   19 1    
    38   18   67 1    
    39   18  143 1    
    40   19   20 am   BACKBONE|DICT|INTERRES
    41   19  144 1    
    42   20   21 2    
    43   20   22 1    
    44   22   23 1    
    45   22   24 1    
    46   22  145 1    
    47   23  146 1    
    48   23  147 1    
    49   23  148 1    
    50   24   25 am   BACKBONE|DICT|INTERRES
    51   24  149 1    
    52   25   26 2    
    53   25   27 1    
    54   27   28 1    
    55   27   29 1    
    56   27  150 1    
    57   28  151 1    
    58   28  152 1    
    59   28  153 1    
    60   29   30 am   BACKBONE|DICT|INTERRES
    61   29  154 1    
    62   30   31 2    
    63   30   32 1    
    64   32   33 1    
    65   32   34 1    
    66   32  155 1    
    67   33  156 1    
    68   33  157 1    
    69   33  158 1    
    70   34   35 am   BACKBONE|DICT|INTERRES
    71   34  159 1    
    72   35   36 2    
    73   35   37 1    
    74   37   38 1    
    75   37   39 1    
    76   37  160 1    
    77   38  161 1    
    78   38  162 1    
    79   38  163 1    
    80   39   40 am   BACKBONE|DICT|INTERRES
    81   39  164 1    
    82   40   41 2    
    83   40   42 1    
    84   42   43 1    
    85   42   44 1    
    86   42  165 1    
    87   43  166 1    
    88   43  167 1    
    89   43  168 1    
    90   44   45 am   BACKBONE|DICT|INTERRES
    91   44  169 1    
    92   45   46 2    
    93   45   47 1    
    94   47   48 1    
    95   47   49 1    
    96   47  170 1    
    97   48  171 1    
    98   48  172 1    
    99   48  173 1    
   100   49   50 am   BACKBONE|DICT|INTERRES
   101   49  174 1    
   102   50   51 2    
   103   50   52 1    
   104   52   53 1    
   105   52   54 1    
   106   52  175 1    
   107   53  176 1    
   108   53  177 1    
   109   53  178 1    
   110   54   55 am   BACKBONE|DICT|INTERRES
   111   54  179 1    
   112   55   56 2    
   113   55   57 1    
   114   57   58 1    
   115   57   59 1    
   116   57  180 1    
   117   58  181 1    
   118   58  182 1    
   119   58  183 1    
   120   59   60 am   BACKBONE|DICT|INTERRES
   121   59  184 1    
   122   60   61 2    
   123   60   62 1    
   124   62   63 1    
   125   62   64 1    
   126   62  185 1    
   127   63  186 1    
   128   63  187 1    
   129   63  188 1    
   130   64   65 am   BACKBONE|DICT|INTERRES
   131   64  189 1    
   132   65   66 2    
   133   67   68 2    
   134   67   69 am   BACKBONE|DICT|INTERRES
   135   69   70 1    
   136   69  190 1    
   137   70   71 1    
   138   70   72 1    
   139   70  191 1    
   140   71  192 1    
   141   71  193 1    
   142   71  194 1    
   143   72   73 2    
   144   72   74 am   BACKBONE|DICT|INTERRES
   145   74   75 1    
   146   74  195 1    
   147   75   76 1    
   148   75   77 1    
   149   75  196 1    
   150   76  197 1    
   151   76  198 1    
   152   76  199 1    
   153   77   78 2    
   154   77   79 am   BACKBONE|DICT|INTERRES
   155   79   80 1    
   156   79  200 1    
   157   80   81 1    
   158   80   82 1    
   159   80  201 1    
   160   81  202 1    
   161   81  203 1    
   162   81  204 1    
   163   82   83 2    
   164   82   84 am   BACKBONE|DICT|INTERRES
   165   84   85 1    
   166   84  205 1    
   167   85   86 1    
   168   85   87 1    
   169   85  206 1    
   170   86  207 1    
   171   86  208 1    
   172   86  209 1    
   173   87   88 2    
   174   87   89 am   BACKBONE|DICT|INTERRES
   175   89   90 1    
   176   89  210 1    
   177   90   91 1    
   178   90   92 1    
   179   90  211 1    
   180   91  212 1    
   181   91  213 1    
   182   91  214 1    
   183   92   93 2    
   184   92   94 am   BACKBONE|DICT|INTERRES
   185   94   95 1    
   186   94  215 1    
   187   95   96 1    
   188   95   97 1    
   189   95  216 1    
   190   96  217 1    
   191   96  218 1    
   192   96  219 1    
   193   97   98 2    
   194   97   99 am   BACKBONE|DICT|INTERRES
   195   99  100 1    
   196   99  220 1    
   197  100  101 1    
   198  100  102 1    
   199  100  221 1    
   200  101  222 1    
   201  101  223 1    
   202  101  224 1    
   203  102  103 2    
   204  102  104 am   BACKBONE|DICT|INTERRES
   205  104  105 1    
   206  104  225 1    
   207  105  106 1    
   208  105  107 1    
   209  105  226 1    
   210  106  227 1    
   211  106  228 1    
   212  106  229 1    
   213  107  108 2    
   214  107  109 am   BACKBONE|DICT|INTERRES
   215  109  110 1    
   216  109  230 1    
   217  110  111 1    
   218  110  112 1    
   219  110  231 1    
   220  111  232 1    
   221  111  233 1    
   222  111  234 1    
   223  112  113 2    
   224  112  114 am   BACKBONE|DICT|INTERRES
   225  114  115 1    
   226  114  235 1    
   227  115  116 1    
   228  115  117 1    
   229  115  236 1    
   230  116  237 1    
   231  116  238 1    
   232  116  239 1    
   233  117  118 2    
   234  117  119 am   BACKBONE|DICT|INTERRES
   235  119  120 1    
   236  119  240 1    
   237  120  121 1    
   238  120  124 1    
   239  120  241 1    
   240  121  122 am   BACKBONE|DICT|INTERRES
   241  121  123 2    
   242  122  242 1    
   243  122  243 1    
   244  124  125 1    
   245  124  244 1    
   246  124  245 1    
   247  125  126 1    
   248  126  246 1    
   249  126  247 1    
@<TRIPOS>SUBSTRUCTURE
     1 UNK         1 GROUP             0       ****    0 ROOT    
