@<TRIPOS>MOLECULE
3R540
247   249    1
SMALL
USER_CHARGES


@<TRIPOS>ATOM
      1 CA          6.4542  -11.8974  -50.2098 C.3       0 UNK        -0.1800 
      2 C           5.3778  -11.9839  -49.1374 C.2       0 UNK         0.5000 
      3 O           4.6948  -10.9930  -48.8765 O.2       0 UNK        -0.5000 
      4 N           5.2372  -13.1583  -48.5072 N.am      1 UNK        -0.5000 
      5 CA          4.2669  -13.5252  -47.4611 C.3       1 UNK         0.1400 
      6 C6          2.7833  -13.3420  -47.8725 C.3       23 UNK        -0.0398 
      7 S7          2.3288  -14.3488  -49.3228 S.3       23 UNK        -0.2404 
      8 C8          1.0603  -15.4317  -48.6003 C.3       23 UNK        -0.0205 
      9 C9          0.7907  -16.6321  -49.4887 C.ar      23 UNK        -0.0193 
     10 C10        -0.3161  -16.6573  -50.3426 C.ar      23 UNK        -0.1150 
     11 C11        -0.5655  -17.7776  -51.1420 C.ar      23 UNK        -0.0193 
     12 C12         0.2963  -18.8767  -51.0762 C.ar      23 UNK        -0.1150 
     13 C13         1.4139  -18.8530  -50.2393 C.ar      23 UNK        -0.0193 
     14 C14         1.6536  -17.7298  -49.4450 C.ar      23 UNK        -0.1150 
     15 C15         2.3660  -20.0374  -50.1963 C.3       23 UNK        -0.0205 
     16 S16         2.2833  -20.9092  -48.6046 S.3       23 UNK        -0.2404 
     17 C17         0.5391  -21.4359  -48.5916 C.3       23 UNK        -0.0398 
     18 CA          0.3156  -22.5655  -47.5662 C.3       11 UNK         0.1400 
     19 N           0.4220  -22.0962  -46.1829 N.am      11 UNK        -0.5000 
     20 C           0.4897  -22.9026  -45.1157 C.2       10 UNK         0.5000 
     21 O           0.5243  -24.1306  -45.1908 O.2       10 UNK        -0.5000 
     22 CA          0.4489  -22.2275  -43.7329 C.3       10 UNK         0.1400 
     23 CB          1.8281  -21.6732  -43.3467 C.3       10 UNK        -0.1800 
     24 N          -0.5556  -21.1642  -43.6646 N.am      10 UNK        -0.5000 
     25 C          -1.8746  -21.3682  -43.7953 C.2       9 UNK         0.5000 
     26 O          -2.3810  -22.4829  -43.9240 O.2       9 UNK        -0.5000 
     27 CA         -2.7785  -20.1230  -43.8307 C.3       9 UNK         0.1400 
     28 CB         -3.0837  -19.6340  -42.4074 C.3       9 UNK        -0.1800 
     29 N          -2.2133  -19.0283  -44.6210 N.am      9 UNK        -0.5000 
     30 C          -1.9819  -19.0760  -45.9410 C.2       8 UNK         0.5000 
     31 O          -2.2567  -20.0451  -46.6464 O.2       8 UNK        -0.5000 
     32 CA         -1.2741  -17.8615  -46.5714 C.3       8 UNK         0.1400 
     33 CB         -2.2658  -16.7201  -46.8385 C.3       8 UNK        -0.1800 
     34 N          -0.1648  -17.3720  -45.7519 N.am      8 UNK        -0.5000 
     35 C           0.9217  -18.0982  -45.4502 C.2       7 UNK         0.5000 
     36 O           1.1181  -19.2398  -45.8639 O.2       7 UNK        -0.5000 
     37 CA          1.9221  -17.4699  -44.4667 C.3       7 UNK         0.1400 
     38 CB          2.8495  -16.4660  -45.1669 C.3       7 UNK        -0.1800 
     39 N           1.2411  -16.8176  -43.3500 N.am      7 UNK        -0.5000 
     40 C           0.5854  -17.4735  -42.3825 C.2       6 UNK         0.5000 
     41 O           0.5276  -18.7006  -42.3047 O.2       6 UNK        -0.5000 
     42 CA         -0.1683  -16.6094  -41.3552 C.3       6 UNK         0.1400 
     43 CB          0.7704  -16.1712  -40.2214 C.3       6 UNK        -0.1800 
     44 N          -0.7991  -15.4325  -41.9604 N.am      6 UNK        -0.5000 
     45 C          -1.8168  -15.4981  -42.8304 C.2       5 UNK         0.5000 
     46 O          -2.3186  -16.5533  -43.2126 O.2       5 UNK        -0.5000 
     47 CA         -2.3462  -14.1695  -43.3948 C.3       5 UNK         0.1400 
     48 CB         -3.3695  -13.5468  -42.4337 C.3       5 UNK        -0.1800 
     49 N          -1.3036  -13.1862  -43.6948 N.am      5 UNK        -0.5000 
     50 C          -0.3102  -13.3508  -44.5807 C.2       4 UNK         0.5000 
     51 O          -0.0819  -14.4121  -45.1635 O.2       4 UNK        -0.5000 
     52 CA          0.5862  -12.1289  -44.8630 C.3       4 UNK         0.1400 
     53 CB          0.2183  -11.5218  -46.2261 C.3       4 UNK        -0.1800 
     54 N           0.4448  -11.0798  -43.8470 N.am      4 UNK        -0.5000 
     55 C           1.1297  -10.8930  -42.7065 C.2       3 UNK         0.5000 
     56 O           0.7487  -10.0621  -41.8839 O.2       3 UNK        -0.5000 
     57 CA          2.4325  -11.6710  -42.4037 C.3       3 UNK         0.1400 
     58 CB          2.1772  -13.1393  -42.0267 C.3       3 UNK        -0.1800 
     59 N           3.4548  -11.5867  -43.4463 N.am      3 UNK        -0.5000 
     60 C           4.0329  -10.4692  -43.9014 C.2       2 UNK         0.5000 
     61 O           3.7627   -9.3418  -43.4864 O.2       2 UNK        -0.5000 
     62 CA          5.1086  -10.6264  -44.9964 C.3       2 UNK         0.1400 
     63 CB          6.4682  -11.0056  -44.3802 C.3       2 UNK        -0.1800 
     64 N           4.7625  -11.5301  -46.1027 N.am      2 UNK        -0.5000 
     65 C           4.5463  -12.8521  -46.0998 C.2       1 UNK         0.5000 
     66 O           4.5563  -13.5441  -45.0817 O.2       1 UNK        -0.5000 
     67 C          -1.0117  -23.3007  -47.8280 C.2       11 UNK         0.5000 
     68 O          -0.9981  -24.3201  -48.5155 O.2       11 UNK        -0.5000 
     69 N          -2.1225  -22.8167  -47.2560 N.am      12 UNK        -0.5000 
     70 CA         -3.4294  -23.4709  -47.3276 C.3       12 UNK         0.1400 
     71 CB         -4.5209  -22.5451  -46.7728 C.3       12 UNK        -0.1800 
     72 C          -3.4444  -24.8435  -46.6320 C.2       12 UNK         0.5000 
     73 O          -3.9753  -25.8006  -47.1951 O.2       12 UNK        -0.5000 
     74 N          -2.8065  -24.9356  -45.4565 N.am      13 UNK        -0.5000 
     75 CA         -2.6008  -26.1849  -44.7184 C.3       13 UNK         0.1400 
     76 CB         -2.0245  -25.8698  -43.3299 C.3       13 UNK        -0.1800 
     77 C          -1.7045  -27.1895  -45.4717 C.2       13 UNK         0.5000 
     78 O          -1.9513  -28.3939  -45.4047 O.2       13 UNK        -0.5000 
     79 N          -0.7071  -26.6752  -46.2038 N.am      14 UNK        -0.5000 
     80 CA          0.1839  -27.4421  -47.0784 C.3       14 UNK         0.1400 
     81 CB          1.4757  -26.6359  -47.2909 C.3       14 UNK        -0.1800 
     82 C          -0.4470  -27.8168  -48.4383 C.2       14 UNK         0.5000 
     83 O           0.1771  -28.5586  -49.1979 O.2       14 UNK        -0.5000 
     84 N          -1.6473  -27.2925  -48.7311 N.am      15 UNK        -0.5000 
     85 CA         -2.4090  -27.4269  -49.9787 C.3       15 UNK         0.1400 
     86 CB         -2.7992  -28.8962  -50.2428 C.3       15 UNK        -0.1800 
     87 C          -1.7355  -26.7492  -51.1939 C.2       15 UNK         0.5000 
     88 O          -1.9787  -27.1447  -52.3351 O.2       15 UNK        -0.5000 
     89 N          -0.9309  -25.7115  -50.9311 N.am      16 UNK        -0.5000 
     90 CA         -0.3397  -24.8127  -51.9262 C.3       16 UNK         0.1400 
     91 CB          1.0387  -24.3579  -51.4191 C.3       16 UNK        -0.1800 
     92 C          -1.2496  -23.5999  -52.2186 C.2       16 UNK         0.5000 
     93 O          -0.9484  -22.8067  -53.1124 O.2       16 UNK        -0.5000 
     94 N          -2.3474  -23.4763  -51.4676 N.am      17 UNK        -0.5000 
     95 CA         -3.4055  -22.4929  -51.6334 C.3       17 UNK         0.1400 
     96 CB         -3.0968  -21.2666  -50.7574 C.3       17 UNK        -0.1800 
     97 C          -4.7343  -23.1490  -51.2322 C.2       17 UNK         0.5000 
     98 O          -4.7281  -24.1927  -50.5734 O.2       17 UNK        -0.5000 
     99 N          -5.8460  -22.5197  -51.6170 N.am      18 UNK        -0.5000 
    100 CA        -7.2010  -22.9141  -51.2459 C.3       18 UNK         0.1400 
    101 CB        -7.6498  -24.1816  -52.0033 C.3       18 UNK        -0.1800 
    102 C         -8.1212  -21.7113  -51.4818 C.2       18 UNK         0.5000 
    103 O         -8.7778  -21.6292  -52.5221 O.2       18 UNK        -0.5000 
    104 N         -8.1069  -20.7767  -50.5209 N.am      19 UNK        -0.5000 
    105 CA        -8.8617  -19.5201  -50.4907 C.3       19 UNK         0.1400 
    106 CB       -10.3753  -19.7928  -50.3366 C.3       19 UNK        -0.1800 
    107 C         -8.5119  -18.6138  -51.6875 C.2       19 UNK         0.5000 
    108 O         -7.4908  -17.9268  -51.6432 O.2       19 UNK        -0.5000 
    109 N         -9.3522  -18.6336  -52.7300 N.am      20 UNK        -0.5000 
    110 CA        -9.1455  -17.9090  -53.9829 C.3       20 UNK         0.1400 
    111 CB       -10.4679  -17.8763  -54.7644 C.3       20 UNK        -0.1800 
    112 C         -8.0204  -18.5068  -54.8502 C.2       20 UNK         0.5000 
    113 O         -7.4023  -17.7693  -55.6196 O.2       20 UNK        -0.5000 
    114 N         -7.7718  -19.8182  -54.7224 N.am      21 UNK        -0.5000 
    115 CA        -6.6787  -20.5086  -55.4029 C.3       21 UNK         0.1400 
    116 CB        -7.0017  -22.0044  -55.5041 C.3       21 UNK        -0.1800 
    117 C         -5.3575  -20.2899  -54.6490 C.2       21 UNK         0.5000 
    118 O         -5.3416  -20.3158  -53.4152 O.2       21 UNK        -0.5000 
    119 N         -4.2758  -20.1072  -55.4073 N.am      22 UNK        -0.5000 
    120 CA        -2.9298  -19.8119  -54.9156 C.3       22 UNK         0.1400 
    121 C         -1.9049  -20.3650  -55.9382 C.2       22 UNK         0.5000 
    122 N         -1.0506  -21.3015  -55.5493 N.am      22 UNK        -0.7600 
    123 O         -1.8817  -19.9455  -57.0933 O.2       22 UNK        -0.5000 
    124 C124       -2.7717  -18.2890  -54.6570 C.3       23 UNK        -0.0398 
    125 S125       -1.2141  -17.8517  -53.8196 S.3       23 UNK        -0.2404 
    126 C126       -1.7574  -17.8097  -52.0846 C.3       23 UNK        -0.0205 
    127 H127        6.9828  -12.8430  -50.3320 H         1 UNK         0.0600 
    128 H128        7.1836  -11.1309  -49.9481 H         1 UNK         0.0600 
    129 H129        6.0073  -11.6317  -51.1678 H         1 UNK         0.0600 
    130 H130        5.8596  -13.9095  -48.7704 H         1 UNK         0.3000 
    131 H131        4.4214  -14.5932  -47.2968 H         1 UNK         0.0600 
    132 H132        2.5599  -12.2979  -48.0945 H         1 UNK         0.0800 
    133 H133        2.1337  -13.6183  -47.0420 H         1 UNK         0.0800 
    134 H134        1.3862  -15.7847  -47.6230 H         1 UNK         0.0800 
    135 H135        0.1478  -14.8579  -48.4328 H         1 UNK         0.0800 
    136 H136       -0.9799  -15.8052  -50.3850 H         1 UNK         0.1150 
    137 H137        0.1044  -19.7423  -51.6952 H         1 UNK         0.1150 
    138 H138        2.5121  -17.7129  -48.7881 H         1 UNK         0.1150 
    139 H139        2.1549  -20.7398  -51.0043 H         1 UNK         0.0800 
    140 H140        3.3858  -19.6841  -50.3547 H         1 UNK         0.0800 
    141 H141       -0.0946  -20.5759  -48.3678 H         1 UNK         0.0800 
    142 H142        0.2731  -21.7600  -49.5993 H         1 UNK         0.0800 
    143 H143        1.1044  -23.3060  -47.7142 H         1 UNK         0.0600 
    144 H144        0.4586  -21.0899  -46.0452 H         1 UNK         0.3000 
    145 H145        0.1756  -22.9903  -43.0009 H         1 UNK         0.0600 
    146 H146        1.8166  -21.2559  -42.3397 H         1 UNK         0.0600 
    147 H147        2.5828  -22.4603  -43.3646 H         1 UNK         0.0600 
    148 H148        2.1560  -20.8893  -44.0291 H         1 UNK         0.0600 
    149 H149       -0.2142  -20.2210  -43.5151 H         1 UNK         0.3000 
    150 H150       -3.7224  -20.4126  -44.2964 H         1 UNK         0.0600 
    151 H151       -3.5185  -20.4320  -41.8044 H         1 UNK         0.0600 
    152 H152       -3.7972  -18.8099  -42.4189 H         1 UNK         0.0600 
    153 H153       -2.1833  -19.2898  -41.8981 H         1 UNK         0.0600 
    154 H154       -2.0166  -18.1650  -44.1208 H         1 UNK         0.3000 
    155 H155       -0.8605  -18.1819  -47.5299 H         1 UNK         0.0600 
    156 H156       -2.7227  -16.3579  -45.9178 H         1 UNK         0.0600 
    157 H157       -3.0700  -17.0512  -47.4967 H         1 UNK         0.0600 
    158 H158       -1.7766  -15.8755  -47.3225 H         1 UNK         0.0600 
    159 H159       -0.2442  -16.4294  -45.3852 H         1 UNK         0.3000 
    160 H160        2.5417  -18.2764  -44.0686 H         1 UNK         0.0600 
    161 H161        2.3169  -15.5682  -45.4771 H         1 UNK         0.0600 
    162 H162        3.3072  -16.9045  -46.0546 H         1 UNK         0.0600 
    163 H163        3.6579  -16.1561  -44.5046 H         1 UNK         0.0600 
    164 H164        1.1877  -15.8111  -43.3741 H         1 UNK         0.3000 
    165 H165       -0.9578  -17.2256  -40.9196 H         1 UNK         0.0600 
    166 H166        1.6108  -15.5851  -40.5927 H         1 UNK         0.0600 
    167 H167        0.2428  -15.5734  -39.4781 H         1 UNK         0.0600 
    168 H168        1.1835  -17.0388  -39.7052 H         1 UNK         0.0600 
    169 H169       -0.4527  -14.5264  -41.6857 H         1 UNK         0.3000 
    170 H170       -2.8583  -14.3967  -44.3319 H         1 UNK         0.0600 
    171 H171       -4.1702  -14.2516  -42.2049 H         1 UNK         0.0600 
    172 H172       -2.9100  -13.2538  -41.4889 H         1 UNK         0.0600 
    173 H173       -3.8335  -12.6622  -42.8703 H         1 UNK         0.0600 
    174 H174       -1.3985  -12.2856  -43.2494 H         1 UNK         0.3000 
    175 H175        1.6099  -12.4902  -44.9249 H         1 UNK         0.0600 
    176 H176        0.1973  -12.2775  -47.0120 H         1 UNK         0.0600 
    177 H177       -0.7680  -11.0566  -46.2068 H         1 UNK         0.0600 
    178 H178        0.9407  -10.7612  -46.5233 H         1 UNK         0.0600 
    179 H179       -0.3392  -10.4633  -44.0015 H         1 UNK         0.3000 
    180 H180        2.8636  -11.1971  -41.5192 H         1 UNK         0.0600 
    181 H181        3.0448  -13.5617  -41.5195 H         1 UNK         0.0600 
    182 H182        1.3315  -13.2267  -41.3441 H         1 UNK         0.0600 
    183 H183        1.9781  -13.7638  -42.8956 H         1 UNK         0.0600 
    184 H184        3.7742  -12.4618  -43.8557 H         1 UNK         0.3000 
    185 H185        5.2255   -9.6433  -45.4555 H         1 UNK         0.0600 
    186 H186        7.2511  -11.0288  -45.1383 H         1 UNK         0.0600 
    187 H187        6.7693  -10.2789  -43.6246 H         1 UNK         0.0600 
    188 H188        6.4398  -11.9830  -43.8977 H         1 UNK         0.0600 
    189 H189        4.7076  -11.0828  -47.0156 H         1 UNK         0.3000 
    190 H190       -2.0810  -21.9261  -46.7673 H         1 UNK         0.3000 
    191 H191       -3.6435  -23.6414  -48.3807 H         1 UNK         0.0600 
    192 H192       -4.3701  -22.3295  -45.7158 H         1 UNK         0.0600 
    193 H193       -4.5431  -21.5966  -47.3097 H         1 UNK         0.0600 
    194 H194       -5.5061  -23.0011  -46.8773 H         1 UNK         0.0600 
    195 H195       -2.4382  -24.0878  -45.0334 H         1 UNK         0.3000 
    196 H196       -3.5773  -26.6537  -44.5809 H         1 UNK         0.0600 
    197 H197       -1.8963  -26.7809  -42.7443 H         1 UNK         0.0600 
    198 H198       -2.6879  -25.2118  -42.7682 H         1 UNK         0.0600 
    199 H199       -1.0515  -25.3831  -43.3973 H         1 UNK         0.0600 
    200 H200       -0.5330  -25.6777  -46.1465 H         1 UNK         0.3000 
    201 H201        0.4464  -28.3745  -46.5746 H         1 UNK         0.0600 
    202 H202        1.2857  -25.7090  -47.8314 H         1 UNK         0.0600 
    203 H203        2.2042  -27.2067  -47.8680 H         1 UNK         0.0600 
    204 H204        1.9439  -26.3803  -46.3402 H         1 UNK         0.0600 
    205 H205       -2.0665  -26.6814  -48.0414 H         1 UNK         0.3000 
    206 H206       -3.3347  -26.8733  -49.8142 H         1 UNK         0.0600 
    207 H207       -3.2730  -29.3413  -49.3679 H         1 UNK         0.0600 
    208 H208       -3.5100  -28.9690  -51.0667 H         1 UNK         0.0600 
    209 H209       -1.9348  -29.5065  -50.5051 H         1 UNK         0.0600 
    210 H210       -0.8343  -25.4149  -49.9613 H         1 UNK         0.3000 
    211 H211       -0.1968  -25.3464  -52.8677 H         1 UNK         0.0600 
    212 H212        0.9696  -23.8512  -50.4574 H         1 UNK         0.0600 
    213 H213        1.5109  -23.6700  -52.1216 H         1 UNK         0.0600 
    214 H214        1.7096  -25.2083  -51.2970 H         1 UNK         0.0600 
    215 H215       -2.5541  -24.1939  -50.7850 H         1 UNK         0.3000 
    216 H216       -3.4719  -22.1996  -52.6822 H         1 UNK         0.0600 
    217 H217       -3.8311  -20.4765  -50.9179 H         1 UNK         0.0600 
    218 H218       -2.1147  -20.8562  -50.9895 H         1 UNK         0.0600 
    219 H219       -3.1071  -21.5142  -49.6958 H         1 UNK         0.0600 
    220 H220       -5.7659  -21.6636  -52.1648 H         1 UNK         0.3000 
    221 H221       -7.2224  -23.1387  -50.1772 H         1 UNK         0.0600 
    222 H222       -7.5672  -24.0707  -53.0827 H         1 UNK         0.0600 
    223 H223       -7.0553  -25.0482  -51.7146 H         1 UNK         0.0600 
    224 H224       -8.6903  -24.4186  -51.7783 H         1 UNK         0.0600 
    225 H225       -7.4844  -20.9173  -49.7377 H         1 UNK         0.3000 
    226 H226       -8.5368  -18.9845  -49.5973 H         1 UNK         0.0600 
    227 H227      -10.5798  -20.3205  -49.4050 H         1 UNK         0.0600 
    228 H228      -10.9396  -18.8598  -50.3068 H         1 UNK         0.0600 
    229 H229      -10.7783  -20.3976  -51.1492 H         1 UNK         0.0600 
    230 H230      -10.1441  -19.2591  -52.6924 H         1 UNK         0.3000 
    231 H231       -8.8663  -16.8809  -53.7425 H         1 UNK         0.0600 
    232 H232      -10.3576  -17.3189  -55.6955 H         1 UNK         0.0600 
    233 H233      -11.2555  -17.3909  -54.1877 H         1 UNK         0.0600 
    234 H234      -10.8084  -18.8803  -55.0211 H         1 UNK         0.0600 
    235 H235       -8.2744  -20.3502  -54.0192 H         1 UNK         0.3000 
    236 H236       -6.5856  -20.1132  -56.4169 H         1 UNK         0.0600 
    237 H237       -7.0556  -22.4631  -54.5194 H         1 UNK         0.0600 
    238 H238       -7.9541  -22.1725  -56.0070 H         1 UNK         0.0600 
    239 H239       -6.2338  -22.5331  -56.0700 H         1 UNK         0.0600 
    240 H240       -4.3553  -20.1467  -56.4148 H         1 UNK         0.3000 
    241 H241       -2.7811  -20.3362  -53.9698 H         1 UNK         0.0600 
    242 H242       -0.3838  -21.6551  -56.2166 H         1 UNK         0.3800 
    243 H243       -1.0619  -21.6994  -54.6120 H         1 UNK         0.3800 
    244 H244       -3.6025  -17.9232  -54.0517 H         1 UNK         0.0800 
    245 H245       -2.8256  -17.7348  -55.5955 H         1 UNK         0.0800 
    246 H246       -2.4011  -16.9423  -51.9306 H         1 UNK         0.0800 
    247 H247       -2.3643  -18.6881  -51.8691 H         1 UNK         0.0800 
@<TRIPOS>BOND
     1    1    2 1    
     2    1  127 1    
     3    1  128 1    
     4    1  129 1    
     5    2    3 2    
     6    2    4 am   BACKBONE|DICT|INTERRES
     7    4    5 1    
     8    4  130 1    
     9    5    6 1    
    10    5   65 1    
    11    5  131 1    
    12    6    7 1    
    13    6  132 1    
    14    6  133 1    
    15    7    8 1    
    16    8    9 1    
    17    8  134 1    
    18    8  135 1    
    19    9   10 ar   
    20    9   14 ar   
    21   10   11 ar   
    22   10  136 1    
    23   11   12 ar   
    24   11  126 1    
    25   12   13 ar   
    26   12  137 1    
    27   13   14 ar   
    28   13   15 1    
    29   14  138 1    
    30   15   16 1    
    31   15  139 1    
    32   15  140 1    
    33   16   17 1    
    34   17   18 1    
    35   17  141 1    
    36   17  142 1    
    37   18   19 1    
    38   18   67 1    
    39   18  143 1    
    40   19   20 am   BACKBONE|DICT|INTERRES
    41   19  144 1    
    42   20   21 2    
    43   20   22 1    
    44   22   23 1    
    45   22   24 1    
    46   22  145 1    
    47   23  146 1    
    48   23  147 1    
    49   23  148 1    
    50   24   25 am   BACKBONE|DICT|INTERRES
    51   24  149 1    
    52   25   26 2    
    53   25   27 1    
    54   27   28 1    
    55   27   29 1    
    56   27  150 1    
    57   28  151 1    
    58   28  152 1    
    59   28  153 1    
    60   29   30 am   BACKBONE|DICT|INTERRES
    61   29  154 1    
    62   30   31 2    
    63   30   32 1    
    64   32   33 1    
    65   32   34 1    
    66   32  155 1    
    67   33  156 1    
    68   33  157 1    
    69   33  158 1    
    70   34   35 am   BACKBONE|DICT|INTERRES
    71   34  159 1    
    72   35   36 2    
    73   35   37 1    
    74   37   38 1    
    75   37   39 1    
    76   37  160 1    
    77   38  161 1    
    78   38  162 1    
    79   38  163 1    
    80   39   40 am   BACKBONE|DICT|INTERRES
    81   39  164 1    
    82   40   41 2    
    83   40   42 1    
    84   42   43 1    
    85   42   44 1    
    86   42  165 1    
    87   43  166 1    
    88   43  167 1    
    89   43  168 1    
    90   44   45 am   BACKBONE|DICT|INTERRES
    91   44  169 1    
    92   45   46 2    
    93   45   47 1    
    94   47   48 1    
    95   47   49 1    
    96   47  170 1    
    97   48  171 1    
    98   48  172 1    
    99   48  173 1    
   100   49   50 am   BACKBONE|DICT|INTERRES
   101   49  174 1    
   102   50   51 2    
   103   50   52 1    
   104   52   53 1    
   105   52   54 1    
   106   52  175 1    
   107   53  176 1    
   108   53  177 1    
   109   53  178 1    
   110   54   55 am   BACKBONE|DICT|INTERRES
   111   54  179 1    
   112   55   56 2    
   113   55   57 1    
   114   57   58 1    
   115   57   59 1    
   116   57  180 1    
   117   58  181 1    
   118   58  182 1    
   119   58  183 1    
   120   59   60 am   BACKBONE|DICT|INTERRES
   121   59  184 1    
   122   60   61 2    
   123   60   62 1    
   124   62   63 1    
   125   62   64 1    
   126   62  185 1    
   127   63  186 1    
   128   63  187 1    
   129   63  188 1    
   130   64   65 am   BACKBONE|DICT|INTERRES
   131   64  189 1    
   132   65   66 2    
   133   67   68 2    
   134   67   69 am   BACKBONE|DICT|INTERRES
   135   69   70 1    
   136   69  190 1    
   137   70   71 1    
   138   70   72 1    
   139   70  191 1    
   140   71  192 1    
   141   71  193 1    
   142   71  194 1    
   143   72   73 2    
   144   72   74 am   BACKBONE|DICT|INTERRES
   145   74   75 1    
   146   74  195 1    
   147   75   76 1    
   148   75   77 1    
   149   75  196 1    
   150   76  197 1    
   151   76  198 1    
   152   76  199 1    
   153   77   78 2    
   154   77   79 am   BACKBONE|DICT|INTERRES
   155   79   80 1    
   156   79  200 1    
   157   80   81 1    
   158   80   82 1    
   159   80  201 1    
   160   81  202 1    
   161   81  203 1    
   162   81  204 1    
   163   82   83 2    
   164   82   84 am   BACKBONE|DICT|INTERRES
   165   84   85 1    
   166   84  205 1    
   167   85   86 1    
   168   85   87 1    
   169   85  206 1    
   170   86  207 1    
   171   86  208 1    
   172   86  209 1    
   173   87   88 2    
   174   87   89 am   BACKBONE|DICT|INTERRES
   175   89   90 1    
   176   89  210 1    
   177   90   91 1    
   178   90   92 1    
   179   90  211 1    
   180   91  212 1    
   181   91  213 1    
   182   91  214 1    
   183   92   93 2    
   184   92   94 am   BACKBONE|DICT|INTERRES
   185   94   95 1    
   186   94  215 1    
   187   95   96 1    
   188   95   97 1    
   189   95  216 1    
   190   96  217 1    
   191   96  218 1    
   192   96  219 1    
   193   97   98 2    
   194   97   99 am   BACKBONE|DICT|INTERRES
   195   99  100 1    
   196   99  220 1    
   197  100  101 1    
   198  100  102 1    
   199  100  221 1    
   200  101  222 1    
   201  101  223 1    
   202  101  224 1    
   203  102  103 2    
   204  102  104 am   BACKBONE|DICT|INTERRES
   205  104  105 1    
   206  104  225 1    
   207  105  106 1    
   208  105  107 1    
   209  105  226 1    
   210  106  227 1    
   211  106  228 1    
   212  106  229 1    
   213  107  108 2    
   214  107  109 am   BACKBONE|DICT|INTERRES
   215  109  110 1    
   216  109  230 1    
   217  110  111 1    
   218  110  112 1    
   219  110  231 1    
   220  111  232 1    
   221  111  233 1    
   222  111  234 1    
   223  112  113 2    
   224  112  114 am   BACKBONE|DICT|INTERRES
   225  114  115 1    
   226  114  235 1    
   227  115  116 1    
   228  115  117 1    
   229  115  236 1    
   230  116  237 1    
   231  116  238 1    
   232  116  239 1    
   233  117  118 2    
   234  117  119 am   BACKBONE|DICT|INTERRES
   235  119  120 1    
   236  119  240 1    
   237  120  121 1    
   238  120  124 1    
   239  120  241 1    
   240  121  122 am   BACKBONE|DICT|INTERRES
   241  121  123 2    
   242  122  242 1    
   243  122  243 1    
   244  124  125 1    
   245  124  244 1    
   246  124  245 1    
   247  125  126 1    
   248  126  246 1    
   249  126  247 1    
@<TRIPOS>SUBSTRUCTURE
     1 UNK         1 GROUP             0       ****    0 ROOT    
