@<TRIPOS>MOLECULE
3R540
247   249    1
SMALL
USER_CHARGES


@<TRIPOS>ATOM
      1 CA          5.4337  -14.5413  -52.0723 C.3       0 UNK        -0.1800 
      2 C           5.5694  -13.6373  -50.8552 C.2       0 UNK         0.5000 
      3 O           6.6645  -13.1574  -50.5619 O.2       0 UNK        -0.5000 
      4 N           4.4623  -13.4111  -50.1465 N.am      1 UNK        -0.5000 
      5 CA          4.3496  -12.5945  -48.9406 C.3       1 UNK         0.1400 
      6 C6          5.0350  -13.2313  -47.6946 C.3       23 UNK        -0.0398 
      7 S7          4.2676  -14.7517  -47.0242 S.3       23 UNK        -0.2404 
      8 C8          5.0516  -16.0660  -48.0225 C.3       23 UNK        -0.0205 
      9 C9          4.0667  -16.8813  -48.8589 C.ar      23 UNK        -0.0193 
     10 C10         2.9256  -16.2988  -49.4214 C.ar      23 UNK        -0.1150 
     11 C11         2.0549  -17.0450  -50.2142 C.ar      23 UNK        -0.0193 
     12 C12         2.3292  -18.3918  -50.4561 C.ar      23 UNK        -0.1150 
     13 C13         3.4597  -18.9942  -49.8992 C.ar      23 UNK        -0.0193 
     14 C14         4.3237  -18.2347  -49.1030 C.ar      23 UNK        -0.1150 
     15 C15         3.7567  -20.4598  -50.1766 C.3       23 UNK        -0.0205 
     16 S16         3.1436  -21.5427  -48.8503 S.3       23 UNK        -0.2404 
     17 C17         1.3373  -21.4056  -49.0686 C.3       23 UNK        -0.0398 
     18 CA          0.5793  -22.4434  -48.2113 C.3       11 UNK         0.1400 
     19 N           0.7283  -22.2031  -46.7719 N.am      11 UNK        -0.5000 
     20 C           0.3885  -23.0868  -45.8244 C.2       10 UNK         0.5000 
     21 O          -0.0421  -24.2127  -46.0714 O.2       10 UNK        -0.5000 
     22 CA          0.4977  -22.6269  -44.3593 C.3       10 UNK         0.1400 
     23 CB          1.9392  -22.7572  -43.8460 C.3       10 UNK        -0.1800 
     24 N           0.0156  -21.2592  -44.1618 N.am      10 UNK        -0.5000 
     25 C          -1.2560  -20.8740  -44.3419 C.2       9 UNK         0.5000 
     26 O          -2.1642  -21.6493  -44.6371 O.2       9 UNK        -0.5000 
     27 CA         -1.5619  -19.3691  -44.2240 C.3       9 UNK         0.1400 
     28 CB         -1.7429  -18.9571  -42.7561 C.3       9 UNK        -0.1800 
     29 N          -0.5379  -18.5330  -44.8488 N.am      9 UNK        -0.5000 
     30 C          -0.2281  -18.5559  -46.1533 C.2       8 UNK         0.5000 
     31 O          -0.8080  -19.2539  -46.9837 O.2       8 UNK        -0.5000 
     32 CA          0.9708  -17.6999  -46.5917 C.3       8 UNK         0.1400 
     33 CB          0.5503  -16.2378  -46.7845 C.3       8 UNK        -0.1800 
     34 N           2.0805  -17.7821  -45.6425 N.am      8 UNK        -0.5000 
     35 C           2.7769  -18.9028  -45.4050 C.2       7 UNK         0.5000 
     36 O           2.5629  -19.9725  -45.9724 O.2       7 UNK        -0.5000 
     37 CA          3.8468  -18.8336  -44.3015 C.3       7 UNK         0.1400 
     38 CB          5.1192  -18.1398  -44.8072 C.3       7 UNK        -0.1800 
     39 N           3.3619  -18.1495  -43.1032 N.am      7 UNK        -0.5000 
     40 C           2.3868  -18.6138  -42.3091 C.2       6 UNK         0.5000 
     41 O           1.8305  -19.6987  -42.4723 O.2       6 UNK        -0.5000 
     42 CA          1.9267  -17.6909  -41.1651 C.3       6 UNK         0.1400 
     43 CB          2.7695  -17.9329  -39.9042 C.3       6 UNK        -0.1800 
     44 N           1.9725  -16.2684  -41.5149 N.am      6 UNK        -0.5000 
     45 C           1.2494  -15.7020  -42.4899 C.2       5 UNK         0.5000 
     46 O           0.4766  -16.3271  -43.2199 O.2       5 UNK        -0.5000 
     47 CA          1.4869  -14.2000  -42.7215 C.3       5 UNK         0.1400 
     48 CB          2.6497  -14.0011  -43.7044 C.3       5 UNK        -0.1800 
     49 N           0.2959  -13.5264  -43.2399 N.am      5 UNK        -0.5000 
     50 C          -0.8128  -13.2973  -42.5192 C.2       4 UNK         0.5000 
     51 O          -0.9219  -13.6104  -41.3322 O.2       4 UNK        -0.5000 
     52 CA         -1.9906  -12.5704  -43.2026 C.3       4 UNK         0.1400 
     53 CB         -2.1145  -11.1336  -42.6703 C.3       4 UNK        -0.1800 
     54 N          -1.8841  -12.5150  -44.6593 N.am      4 UNK        -0.5000 
     55 C          -2.1551  -13.5285  -45.4913 C.2       3 UNK         0.5000 
     56 O          -2.5927  -14.6177  -45.1212 O.2       3 UNK        -0.5000 
     57 CA         -1.8899  -13.2868  -46.9928 C.3       3 UNK         0.1400 
     58 CB         -3.2066  -13.0045  -47.7328 C.3       3 UNK        -0.1800 
     59 N          -0.9373  -12.2086  -47.2900 N.am      3 UNK        -0.5000 
     60 C           0.3449  -12.1822  -46.9023 C.2       2 UNK         0.5000 
     61 O           0.8473  -13.0157  -46.1488 O.2       2 UNK        -0.5000 
     62 CA          1.1942  -10.9961  -47.3946 C.3       2 UNK         0.1400 
     63 CB          1.2618   -9.9076  -46.3123 C.3       2 UNK        -0.1800 
     64 N           2.5563  -11.4037  -47.7470 N.am      2 UNK        -0.5000 
     65 C           2.8590  -12.2466  -48.7433 C.2       1 UNK         0.5000 
     66 O           2.0143  -12.7222  -49.5099 O.2       1 UNK        -0.5000 
     67 C          -0.9037  -22.5509  -48.6288 C.2       11 UNK         0.5000 
     68 O          -1.2375  -23.4160  -49.4380 O.2       11 UNK        -0.5000 
     69 N          -1.7782  -21.7200  -48.0441 N.am      12 UNK        -0.5000 
     70 CA         -3.2300  -21.7948  -48.2240 C.3       12 UNK         0.1400 
     71 CB         -3.8951  -20.5601  -47.5998 C.3       12 UNK        -0.1800 
     72 C          -3.8272  -23.0934  -47.6471 C.2       12 UNK         0.5000 
     73 O          -4.6875  -23.7012  -48.2830 O.2       12 UNK        -0.5000 
     74 N          -3.3335  -23.5282  -46.4789 N.am      13 UNK        -0.5000 
     75 CA         -3.6910  -24.8018  -45.8508 C.3       13 UNK         0.1400 
     76 CB         -3.1365  -24.8556  -44.4201 C.3       13 UNK        -0.1800 
     77 C          -3.2251  -26.0196  -46.6707 C.2       13 UNK         0.5000 
     78 O          -3.9719  -26.9917  -46.7811 O.2       13 UNK        -0.5000 
     79 N          -2.0343  -25.9322  -47.2817 N.am      14 UNK        -0.5000 
     80 CA         -1.5092  -26.9226  -48.2281 C.3       14 UNK         0.1400 
     81 CB         -0.0347  -26.6192  -48.5323 C.3       14 UNK        -0.1800 
     82 C          -2.3365  -27.0065  -49.5281 C.2       14 UNK         0.5000 
     83 O          -2.4522  -28.0874  -50.1057 O.2       14 UNK        -0.5000 
     84 N          -2.9490  -25.8829  -49.9263 N.am      15 UNK        -0.5000 
     85 CA         -3.9416  -25.7786  -50.9993 C.3       15 UNK         0.1400 
     86 CB         -3.8929  -24.3563  -51.5881 C.3       15 UNK        -0.1800 
     87 C          -5.3708  -26.1543  -50.5397 C.2       15 UNK         0.5000 
     88 O          -6.3280  -25.8855  -51.2668 O.2       15 UNK        -0.5000 
     89 N          -5.5061  -26.7438  -49.3402 N.am      16 UNK        -0.5000 
     90 CA         -6.7361  -27.2294  -48.7022 C.3       16 UNK         0.1400 
     91 CB         -7.3289  -28.4069  -49.5038 C.3       16 UNK        -0.1800 
     92 C          -7.7754  -26.1242  -48.4213 C.2       16 UNK         0.5000 
     93 O          -8.9658  -26.4215  -48.3102 O.2       16 UNK        -0.5000 
     94 N          -7.3115  -24.8678  -48.3367 N.am      17 UNK        -0.5000 
     95 CA         -8.0891  -23.6309  -48.2187 C.3       17 UNK         0.1400 
     96 CB         -8.8429  -23.5769  -46.8742 C.3       17 UNK        -0.1800 
     97 C          -9.0058  -23.3486  -49.4307 C.2       17 UNK         0.5000 
     98 O          -9.8973  -22.5040  -49.3314 O.2       17 UNK        -0.5000 
     99 N          -8.7651  -24.0277  -50.5635 N.am      18 UNK        -0.5000 
    100 CA        -9.4803  -23.8185  -51.8251 C.3       18 UNK         0.1400 
    101 CB        -9.3049  -25.0590  -52.7143 C.3       18 UNK        -0.1800 
    102 C         -9.0033  -22.5518  -52.5611 C.2       18 UNK         0.5000 
    103 O         -9.7319  -22.0221  -53.4012 O.2       18 UNK        -0.5000 
    104 N         -7.7977  -22.0864  -52.2212 N.am      19 UNK        -0.5000 
    105 CA        -7.1776  -20.8574  -52.6869 C.3       19 UNK         0.1400 
    106 CB        -6.4231  -21.1258  -54.0016 C.3       19 UNK        -0.1800 
    107 C         -6.2230  -20.3651  -51.5909 C.2       19 UNK         0.5000 
    108 O         -5.8398  -21.1401  -50.7103 O.2       19 UNK        -0.5000 
    109 N         -5.8201  -19.0943  -51.6922 N.am      20 UNK        -0.5000 
    110 CA        -4.8417  -18.4505  -50.8097 C.3       20 UNK         0.1400 
    111 CB        -5.1404  -16.9419  -50.7694 C.3       20 UNK        -0.1800 
    112 C         -3.3800  -18.7124  -51.2361 C.2       20 UNK         0.5000 
    113 O         -2.4737  -18.0773  -50.6967 O.2       20 UNK        -0.5000 
    114 N         -3.1789  -19.5940  -52.2282 N.am      21 UNK        -0.5000 
    115 CA        -1.9362  -19.9567  -52.9230 C.3       21 UNK         0.1400 
    116 CB        -0.8716  -20.5014  -51.9525 C.3       21 UNK        -0.1800 
    117 C         -1.3845  -18.8295  -53.8183 C.2       21 UNK         0.5000 
    118 O         -1.0849  -19.0757  -54.9872 O.2       21 UNK        -0.5000 
    119 N         -1.3001  -17.6150  -53.2713 N.am      22 UNK        -0.5000 
    120 CA        -1.0264  -16.3695  -53.9971 C.3       22 UNK         0.1400 
    121 C         -2.2947  -15.8573  -54.7332 C.2       22 UNK         0.5000 
    122 N         -2.1347  -15.2261  -55.8882 N.am      22 UNK        -0.7600 
    123 O         -3.4182  -15.9925  -54.2523 O.2       22 UNK        -0.5000 
    124 C124       -0.4666  -15.2802  -53.0489 C.3       23 UNK        -0.0398 
    125 S125        1.2033  -15.6985  -52.4489 S.3       23 UNK        -0.2404 
    126 C126        0.8242  -16.3914  -50.8130 C.3       23 UNK        -0.0205 
    127 H127        5.6671  -13.9876  -52.9818 H         1 UNK         0.0600 
    128 H128        4.4240  -14.9440  -52.1666 H         1 UNK         0.0600 
    129 H129        6.1245  -15.3806  -51.9932 H         1 UNK         0.0600 
    130 H130        3.5698  -13.7761  -50.4577 H         1 UNK         0.3000 
    131 H131        4.8522  -11.6481  -49.1498 H         1 UNK         0.0600 
    132 H132        5.0528  -12.5030  -46.8831 H         1 UNK         0.0800 
    133 H133        6.0859  -13.4307  -47.9057 H         1 UNK         0.0800 
    134 H134        5.8007  -15.6415  -48.6901 H         1 UNK         0.0800 
    135 H135        5.5955  -16.7234  -47.3448 H         1 UNK         0.0800 
    136 H136        2.7014  -15.2594  -49.2433 H         1 UNK         0.1150 
    137 H137        1.6644  -18.9694  -51.0816 H         1 UNK         0.1150 
    138 H138        5.2019  -18.7004  -48.6784 H         1 UNK         0.1150 
    139 H139        3.3244  -20.7665  -51.1303 H         1 UNK         0.0800 
    140 H140        4.8342  -20.6004  -50.2739 H         1 UNK         0.0800 
    141 H141        1.1201  -21.5527  -50.1275 H         1 UNK         0.0800 
    142 H142        1.0185  -20.3928  -48.8172 H         1 UNK         0.0800 
    143 H143        1.0233  -23.4196  -48.4184 H         1 UNK         0.0600 
    144 H144        1.1394  -21.3161  -46.4964 H         1 UNK         0.3000 
    145 H145       -0.1305  -23.2880  -43.7591 H         1 UNK         0.0600 
    146 H146        2.3040  -23.7782  -43.9641 H         1 UNK         0.0600 
    147 H147        2.6226  -22.1008  -44.3842 H         1 UNK         0.0600 
    148 H148        2.0033  -22.5095  -42.7863 H         1 UNK         0.0600 
    149 H149        0.7014  -20.5729  -43.8631 H         1 UNK         0.3000 
    150 H150       -2.5017  -19.1796  -44.7462 H         1 UNK         0.0600 
    151 H151       -1.9939  -17.8994  -42.6710 H         1 UNK         0.0600 
    152 H152       -0.8394  -19.1347  -42.1737 H         1 UNK         0.0600 
    153 H153       -2.5500  -19.5234  -42.2900 H         1 UNK         0.0600 
    154 H154       -0.0431  -17.8830  -44.2437 H         1 UNK         0.3000 
    155 H155        1.3239  -18.0840  -47.5506 H         1 UNK         0.0600 
    156 H156       -0.2118  -16.1625  -47.5601 H         1 UNK         0.0600 
    157 H157        1.3893  -15.6167  -47.0939 H         1 UNK         0.0600 
    158 H158        0.1390  -15.8074  -45.8708 H         1 UNK         0.0600 
    159 H159        2.2817  -16.9527  -45.1055 H         1 UNK         0.3000 
    160 H160        4.1058  -19.8583  -44.0264 H         1 UNK         0.0600 
    161 H161        5.4861  -18.6150  -45.7179 H         1 UNK         0.0600 
    162 H162        5.9180  -18.1954  -44.0676 H         1 UNK         0.0600 
    163 H163        4.9417  -17.0872  -45.0291 H         1 UNK         0.0600 
    164 H164        3.7648  -17.2485  -42.8942 H         1 UNK         0.3000 
    165 H165        0.8899  -17.9427  -40.9345 H         1 UNK         0.0600 
    166 H166        2.3978  -17.3481  -39.0626 H         1 UNK         0.0600 
    167 H167        2.7361  -18.9824  -39.6085 H         1 UNK         0.0600 
    168 H168        3.8161  -17.6693  -40.0614 H         1 UNK         0.0600 
    169 H169        2.5932  -15.6914  -40.9657 H         1 UNK         0.3000 
    170 H170        1.7533  -13.7339  -41.7705 H         1 UNK         0.0600 
    171 H171        2.8191  -12.9446  -43.9129 H         1 UNK         0.0600 
    172 H172        3.5794  -14.4078  -43.3051 H         1 UNK         0.0600 
    173 H173        2.4558  -14.5010  -44.6537 H         1 UNK         0.0600 
    174 H174        0.3096  -13.2918  -44.2273 H         1 UNK         0.3000 
    175 H175       -2.9027  -13.1102  -42.9399 H         1 UNK         0.0600 
    176 H176       -1.2294  -10.5405  -42.9039 H         1 UNK         0.0600 
    177 H177       -2.9810  -10.6281  -43.0970 H         1 UNK         0.0600 
    178 H178       -2.2378  -11.1260  -41.5864 H         1 UNK         0.0600 
    179 H179       -1.5271  -11.6586  -45.0555 H         1 UNK         0.3000 
    180 H180       -1.4715  -14.2091  -47.3963 H         1 UNK         0.0600 
    181 H181       -3.0483  -12.9359  -48.8093 H         1 UNK         0.0600 
    182 H182       -3.6633  -12.0723  -47.3984 H         1 UNK         0.0600 
    183 H183       -3.9299  -13.8037  -47.5641 H         1 UNK         0.0600 
    184 H184       -1.2780  -11.4705  -47.8890 H         1 UNK         0.3000 
    185 H185        0.7276  -10.5731  -48.2867 H         1 UNK         0.0600 
    186 H186        1.7341  -10.2763  -45.4005 H         1 UNK         0.0600 
    187 H187        1.8268   -9.0414  -46.6572 H         1 UNK         0.0600 
    188 H188        0.2637   -9.5574  -46.0458 H         1 UNK         0.0600 
    189 H189        3.2909  -11.0675  -47.1427 H         1 UNK         0.3000 
    190 H190       -1.4280  -20.9782  -47.4425 H         1 UNK         0.3000 
    191 H191       -3.4337  -21.7802  -49.2968 H         1 UNK         0.0600 
    192 H192       -3.7637  -20.5324  -46.5184 H         1 UNK         0.0600 
    193 H193       -4.9670  -20.5547  -47.8021 H         1 UNK         0.0600 
    194 H194       -3.4785  -19.6396  -48.0089 H         1 UNK         0.0600 
    195 H195       -2.6808  -22.9368  -45.9719 H         1 UNK         0.3000 
    196 H196       -4.7806  -24.8450  -45.7897 H         1 UNK         0.0600 
    197 H197       -3.4298  -25.7811  -43.9232 H         1 UNK         0.0600 
    198 H198       -3.5163  -24.0291  -43.8192 H         1 UNK         0.0600 
    199 H199       -2.0482  -24.8069  -44.4053 H         1 UNK         0.0600 
    200 H200       -1.4393  -25.1349  -47.0760 H         1 UNK         0.3000 
    201 H201       -1.5581  -27.9003  -47.7444 H         1 UNK         0.0600 
    202 H202        0.5600  -26.5933  -47.6191 H         1 UNK         0.0600 
    203 H203        0.0859  -25.6619  -49.0377 H         1 UNK         0.0600 
    204 H204        0.3943  -27.3856  -49.1789 H         1 UNK         0.0600 
    205 H205       -2.7554  -25.0289  -49.4169 H         1 UNK         0.3000 
    206 H206       -3.6715  -26.4762  -51.7942 H         1 UNK         0.0600 
    207 H207       -4.5379  -24.2699  -52.4634 H         1 UNK         0.0600 
    208 H208       -4.2219  -23.6070  -50.8687 H         1 UNK         0.0600 
    209 H209       -2.8830  -24.0931  -51.9033 H         1 UNK         0.0600 
    210 H210       -4.6714  -26.8677  -48.7804 H         1 UNK         0.3000 
    211 H211       -6.4402  -27.6144  -47.7260 H         1 UNK         0.0600 
    212 H212       -7.7211  -28.0832  -50.4684 H         1 UNK         0.0600 
    213 H213       -8.1480  -28.8793  -48.9606 H         1 UNK         0.0600 
    214 H214       -6.5786  -29.1758  -49.6871 H         1 UNK         0.0600 
    215 H215       -6.3097  -24.7194  -48.4356 H         1 UNK         0.3000 
    216 H216       -7.3558  -22.8231  -48.2131 H         1 UNK         0.0600 
    217 H217       -9.2841  -22.5929  -46.7121 H         1 UNK         0.0600 
    218 H218       -8.1705  -23.7700  -46.0383 H         1 UNK         0.0600 
    219 H219       -9.6517  -24.3065  -46.8316 H         1 UNK         0.0600 
    220 H220       -8.0063  -24.7002  -50.5825 H         1 UNK         0.3000 
    221 H221      -10.5445  -23.7007  -51.6103 H         1 UNK         0.0600 
    222 H222       -8.2645  -25.1986  -53.0103 H         1 UNK         0.0600 
    223 H223       -9.6325  -25.9636  -52.2014 H         1 UNK         0.0600 
    224 H224       -9.8949  -24.9696  -53.6272 H         1 UNK         0.0600 
    225 H225       -7.2818  -22.5516  -51.4847 H         1 UNK         0.3000 
    226 H226       -7.9451  -20.0965  -52.8453 H         1 UNK         0.0600 
    227 H227       -7.0995  -21.4847  -54.7776 H         1 UNK         0.0600 
    228 H228       -5.9519  -20.2182  -54.3807 H         1 UNK         0.0600 
    229 H229       -5.6410  -21.8751  -53.8696 H         1 UNK         0.0600 
    230 H230       -6.1716  -18.5270  -52.4512 H         1 UNK         0.3000 
    231 H231       -4.9602  -18.8431  -49.7985 H         1 UNK         0.0600 
    232 H232       -4.9971  -16.4782  -51.7465 H         1 UNK         0.0600 
    233 H233       -6.1658  -16.7504  -50.4528 H         1 UNK         0.0600 
    234 H234       -4.4857  -16.4288  -50.0637 H         1 UNK         0.0600 
    235 H235       -4.0084  -20.0271  -52.6047 H         1 UNK         0.3000 
    236 H236       -2.2059  -20.7758  -53.5916 H         1 UNK         0.0600 
    237 H237       -0.5678  -19.7610  -51.2135 H         1 UNK         0.0600 
    238 H238       -1.2477  -21.3729  -51.4174 H         1 UNK         0.0600 
    239 H239        0.0243  -20.8117  -52.4913 H         1 UNK         0.0600 
    240 H240       -1.6157  -17.5199  -52.3112 H         1 UNK         0.3000 
    241 H241       -0.2688  -16.5797  -54.7552 H         1 UNK         0.0600 
    242 H242       -2.9484  -14.8765  -56.3706 H         1 UNK         0.3800 
    243 H243       -1.2234  -15.0967  -56.3008 H         1 UNK         0.3800 
    244 H244       -0.3859  -14.3244  -53.5698 H         1 UNK         0.0800 
    245 H245       -1.1387  -15.1097  -52.2058 H         1 UNK         0.0800 
    246 H246        0.0236  -17.1264  -50.8907 H         1 UNK         0.0800 
    247 H247        0.4571  -15.5996  -50.1577 H         1 UNK         0.0800 
@<TRIPOS>BOND
     1    1    2 1    
     2    1  127 1    
     3    1  128 1    
     4    1  129 1    
     5    2    3 2    
     6    2    4 am   BACKBONE|DICT|INTERRES
     7    4    5 1    
     8    4  130 1    
     9    5    6 1    
    10    5   65 1    
    11    5  131 1    
    12    6    7 1    
    13    6  132 1    
    14    6  133 1    
    15    7    8 1    
    16    8    9 1    
    17    8  134 1    
    18    8  135 1    
    19    9   10 ar   
    20    9   14 ar   
    21   10   11 ar   
    22   10  136 1    
    23   11   12 ar   
    24   11  126 1    
    25   12   13 ar   
    26   12  137 1    
    27   13   14 ar   
    28   13   15 1    
    29   14  138 1    
    30   15   16 1    
    31   15  139 1    
    32   15  140 1    
    33   16   17 1    
    34   17   18 1    
    35   17  141 1    
    36   17  142 1    
    37   18   19 1    
    38   18   67 1    
    39   18  143 1    
    40   19   20 am   BACKBONE|DICT|INTERRES
    41   19  144 1    
    42   20   21 2    
    43   20   22 1    
    44   22   23 1    
    45   22   24 1    
    46   22  145 1    
    47   23  146 1    
    48   23  147 1    
    49   23  148 1    
    50   24   25 am   BACKBONE|DICT|INTERRES
    51   24  149 1    
    52   25   26 2    
    53   25   27 1    
    54   27   28 1    
    55   27   29 1    
    56   27  150 1    
    57   28  151 1    
    58   28  152 1    
    59   28  153 1    
    60   29   30 am   BACKBONE|DICT|INTERRES
    61   29  154 1    
    62   30   31 2    
    63   30   32 1    
    64   32   33 1    
    65   32   34 1    
    66   32  155 1    
    67   33  156 1    
    68   33  157 1    
    69   33  158 1    
    70   34   35 am   BACKBONE|DICT|INTERRES
    71   34  159 1    
    72   35   36 2    
    73   35   37 1    
    74   37   38 1    
    75   37   39 1    
    76   37  160 1    
    77   38  161 1    
    78   38  162 1    
    79   38  163 1    
    80   39   40 am   BACKBONE|DICT|INTERRES
    81   39  164 1    
    82   40   41 2    
    83   40   42 1    
    84   42   43 1    
    85   42   44 1    
    86   42  165 1    
    87   43  166 1    
    88   43  167 1    
    89   43  168 1    
    90   44   45 am   BACKBONE|DICT|INTERRES
    91   44  169 1    
    92   45   46 2    
    93   45   47 1    
    94   47   48 1    
    95   47   49 1    
    96   47  170 1    
    97   48  171 1    
    98   48  172 1    
    99   48  173 1    
   100   49   50 am   BACKBONE|DICT|INTERRES
   101   49  174 1    
   102   50   51 2    
   103   50   52 1    
   104   52   53 1    
   105   52   54 1    
   106   52  175 1    
   107   53  176 1    
   108   53  177 1    
   109   53  178 1    
   110   54   55 am   BACKBONE|DICT|INTERRES
   111   54  179 1    
   112   55   56 2    
   113   55   57 1    
   114   57   58 1    
   115   57   59 1    
   116   57  180 1    
   117   58  181 1    
   118   58  182 1    
   119   58  183 1    
   120   59   60 am   BACKBONE|DICT|INTERRES
   121   59  184 1    
   122   60   61 2    
   123   60   62 1    
   124   62   63 1    
   125   62   64 1    
   126   62  185 1    
   127   63  186 1    
   128   63  187 1    
   129   63  188 1    
   130   64   65 am   BACKBONE|DICT|INTERRES
   131   64  189 1    
   132   65   66 2    
   133   67   68 2    
   134   67   69 am   BACKBONE|DICT|INTERRES
   135   69   70 1    
   136   69  190 1    
   137   70   71 1    
   138   70   72 1    
   139   70  191 1    
   140   71  192 1    
   141   71  193 1    
   142   71  194 1    
   143   72   73 2    
   144   72   74 am   BACKBONE|DICT|INTERRES
   145   74   75 1    
   146   74  195 1    
   147   75   76 1    
   148   75   77 1    
   149   75  196 1    
   150   76  197 1    
   151   76  198 1    
   152   76  199 1    
   153   77   78 2    
   154   77   79 am   BACKBONE|DICT|INTERRES
   155   79   80 1    
   156   79  200 1    
   157   80   81 1    
   158   80   82 1    
   159   80  201 1    
   160   81  202 1    
   161   81  203 1    
   162   81  204 1    
   163   82   83 2    
   164   82   84 am   BACKBONE|DICT|INTERRES
   165   84   85 1    
   166   84  205 1    
   167   85   86 1    
   168   85   87 1    
   169   85  206 1    
   170   86  207 1    
   171   86  208 1    
   172   86  209 1    
   173   87   88 2    
   174   87   89 am   BACKBONE|DICT|INTERRES
   175   89   90 1    
   176   89  210 1    
   177   90   91 1    
   178   90   92 1    
   179   90  211 1    
   180   91  212 1    
   181   91  213 1    
   182   91  214 1    
   183   92   93 2    
   184   92   94 am   BACKBONE|DICT|INTERRES
   185   94   95 1    
   186   94  215 1    
   187   95   96 1    
   188   95   97 1    
   189   95  216 1    
   190   96  217 1    
   191   96  218 1    
   192   96  219 1    
   193   97   98 2    
   194   97   99 am   BACKBONE|DICT|INTERRES
   195   99  100 1    
   196   99  220 1    
   197  100  101 1    
   198  100  102 1    
   199  100  221 1    
   200  101  222 1    
   201  101  223 1    
   202  101  224 1    
   203  102  103 2    
   204  102  104 am   BACKBONE|DICT|INTERRES
   205  104  105 1    
   206  104  225 1    
   207  105  106 1    
   208  105  107 1    
   209  105  226 1    
   210  106  227 1    
   211  106  228 1    
   212  106  229 1    
   213  107  108 2    
   214  107  109 am   BACKBONE|DICT|INTERRES
   215  109  110 1    
   216  109  230 1    
   217  110  111 1    
   218  110  112 1    
   219  110  231 1    
   220  111  232 1    
   221  111  233 1    
   222  111  234 1    
   223  112  113 2    
   224  112  114 am   BACKBONE|DICT|INTERRES
   225  114  115 1    
   226  114  235 1    
   227  115  116 1    
   228  115  117 1    
   229  115  236 1    
   230  116  237 1    
   231  116  238 1    
   232  116  239 1    
   233  117  118 2    
   234  117  119 am   BACKBONE|DICT|INTERRES
   235  119  120 1    
   236  119  240 1    
   237  120  121 1    
   238  120  124 1    
   239  120  241 1    
   240  121  122 am   BACKBONE|DICT|INTERRES
   241  121  123 2    
   242  122  242 1    
   243  122  243 1    
   244  124  125 1    
   245  124  244 1    
   246  124  245 1    
   247  125  126 1    
   248  126  246 1    
   249  126  247 1    
@<TRIPOS>SUBSTRUCTURE
     1 UNK         1 GROUP             0       ****    0 ROOT    
