@<TRIPOS>MOLECULE
3R540
247   249    1
SMALL
USER_CHARGES


@<TRIPOS>ATOM
      1 CA         -1.7866  -11.9814  -49.6715 C.3       0 UNK        -0.1800 
      2 C          -1.5416  -13.2596  -48.8729 C.2       0 UNK         0.5000 
      3 O          -2.3874  -14.1504  -48.8843 O.2       0 UNK        -0.5000 
      4 N          -0.4078  -13.4053  -48.1753 N.am      1 UNK        -0.5000 
      5 CA          0.6450  -12.4079  -47.9741 C.3       1 UNK         0.1400 
      6 C6          2.0069  -13.0566  -47.6177 C.3       23 UNK        -0.0398 
      7 S7          2.6179  -14.2002  -48.9053 S.3       23 UNK        -0.2404 
      8 C8          2.5240  -15.8180  -48.0615 C.3       23 UNK        -0.0205 
      9 C9          1.8725  -16.8929  -48.9238 C.ar      23 UNK        -0.0193 
     10 C10         0.6070  -16.6838  -49.4808 C.ar      23 UNK        -0.1150 
     11 C11        -0.0227  -17.6827  -50.2238 C.ar      23 UNK        -0.0193 
     12 C12         0.6290  -18.9026  -50.4200 C.ar      23 UNK        -0.1150 
     13 C13         1.8929  -19.1336  -49.8683 C.ar      23 UNK        -0.0193 
     14 C14         2.5087  -18.1229  -49.1215 C.ar      23 UNK        -0.1150 
     15 C15         2.5981  -20.4712  -50.0756 C.3       23 UNK        -0.0205 
     16 S16         1.5608  -21.9160  -49.6619 S.3       23 UNK        -0.2404 
     17 C17         1.0721  -21.5189  -47.9502 C.3       23 UNK        -0.0398 
     18 CA          0.4475  -22.7015  -47.1715 C.3       11 UNK         0.1400 
     19 N           0.2691  -22.3593  -45.7585 N.am      11 UNK        -0.5000 
     20 C          -0.1485  -23.1933  -44.7965 C.2       10 UNK         0.5000 
     21 O          -0.3959  -24.3841  -44.9792 O.2       10 UNK        -0.5000 
     22 CA         -0.3763  -22.5811  -43.4030 C.3       10 UNK         0.1400 
     23 CB          0.9562  -22.3827  -42.6657 C.3       10 UNK        -0.1800 
     24 N          -1.1066  -21.3137  -43.4593 N.am      10 UNK        -0.5000 
     25 C          -2.3621  -21.1852  -43.9132 C.2       9 UNK         0.5000 
     26 O          -3.0513  -22.1306  -44.2961 O.2       9 UNK        -0.5000 
     27 CA         -2.9315  -19.7580  -43.9953 C.3       9 UNK         0.1400 
     28 CB         -3.3888  -19.2694  -42.6129 C.3       9 UNK        -0.1800 
     29 N          -1.9824  -18.8028  -44.5656 N.am      9 UNK        -0.5000 
     30 C          -1.4873  -18.8687  -45.8100 C.2       8 UNK         0.5000 
     31 O          -1.8012  -19.7294  -46.6312 O.2       8 UNK        -0.5000 
     32 CA         -0.4173  -17.8285  -46.1791 C.3       8 UNK         0.1400 
     33 CB         -1.0581  -16.4608  -46.4560 C.3       8 UNK        -0.1800 
     34 N           0.6069  -17.6938  -45.1433 N.am      8 UNK        -0.5000 
     35 C           1.4154  -18.6854  -44.7415 C.2       7 UNK         0.5000 
     36 O           1.4253  -19.8096  -45.2393 O.2       7 UNK        -0.5000 
     37 CA          2.3275  -18.3886  -43.5421 C.3       7 UNK         0.1400 
     38 CB          3.6073  -17.6721  -43.9971 C.3       7 UNK        -0.1800 
     39 N           1.6358  -17.5955  -42.5253 N.am      7 UNK        -0.5000 
     40 C           0.6357  -18.0624  -41.7624 C.2       6 UNK         0.5000 
     41 O           0.2278  -19.2231  -41.8058 O.2       6 UNK        -0.5000 
     42 CA         -0.0531  -17.0513  -40.8274 C.3       6 UNK         0.1400 
     43 CB          0.7326  -16.9016  -39.5163 C.3       6 UNK        -0.1800 
     44 N          -0.2172  -15.7367  -41.4496 N.am      6 UNK        -0.5000 
     45 C          -1.0177  -15.4901  -42.4964 C.2       5 UNK         0.5000 
     46 O          -1.7473  -16.3383  -43.0087 O.2       5 UNK        -0.5000 
     47 CA         -0.9550  -14.0742  -43.1018 C.3       5 UNK         0.1400 
     48 CB         -1.9937  -13.1546  -42.4443 C.3       5 UNK        -0.1800 
     49 N           0.3706  -13.4561  -43.0029 N.am      5 UNK        -0.5000 
     50 C           1.4727  -13.9283  -43.5993 C.2       4 UNK         0.5000 
     51 O           1.4898  -14.9562  -44.2797 O.2       4 UNK        -0.5000 
     52 CA          2.7512  -13.1019  -43.3988 C.3       4 UNK         0.1400 
     53 CB          3.9801  -13.6905  -44.1208 C.3       4 UNK        -0.1800 
     54 N           2.5285  -11.7220  -43.8297 N.am      4 UNK        -0.5000 
     55 C           3.1880  -10.6621  -43.3409 C.2       3 UNK         0.5000 
     56 O           3.9888  -10.7404  -42.4079 O.2       3 UNK        -0.5000 
     57 CA          2.9552   -9.2885  -44.0034 C.3       3 UNK         0.1400 
     58 CB          4.2630   -8.7614  -44.6181 C.3       3 UNK        -0.1800 
     59 N           1.9387   -9.3197  -45.0552 N.am      3 UNK        -0.5000 
     60 C           0.6426   -9.0325  -44.8820 C.2       2 UNK         0.5000 
     61 O           0.1479   -8.7122  -43.8010 O.2       2 UNK        -0.5000 
     62 CA         -0.2546   -9.1369  -46.1320 C.3       2 UNK         0.1400 
     63 CB         -0.3500   -7.7776  -46.8413 C.3       2 UNK        -0.1800 
     64 N           0.1904  -10.1515  -47.0957 N.am      2 UNK        -0.5000 
     65 C           0.2008  -11.4662  -46.8418 C.2       1 UNK         0.5000 
     66 O          -0.1097  -11.9477  -45.7521 O.2       1 UNK        -0.5000 
     67 C          -0.8729  -23.1913  -47.8032 C.2       11 UNK         0.5000 
     68 O          -0.8960  -24.2698  -48.3989 O.2       11 UNK        -0.5000 
     69 N          -1.9542  -22.4210  -47.6096 N.am      12 UNK        -0.5000 
     70 CA         -3.3074  -22.7450  -48.0591 C.3       12 UNK         0.1400 
     71 CB         -4.2579  -21.5905  -47.7116 C.3       12 UNK        -0.1800 
     72 C          -3.8308  -24.0724  -47.4874 C.2       12 UNK         0.5000 
     73 O          -4.3655  -24.8811  -48.2435 O.2       12 UNK        -0.5000 
     74 N          -3.6396  -24.2881  -46.1792 N.am      13 UNK        -0.5000 
     75 CA         -4.0230  -25.5159  -45.4835 C.3       13 UNK         0.1400 
     76 CB         -3.8775  -25.3127  -43.9676 C.3       13 UNK        -0.1800 
     77 C          -3.2242  -26.7488  -45.9455 C.2       13 UNK         0.5000 
     78 O          -3.8108  -27.8183  -46.1155 O.2       13 UNK        -0.5000 
     79 N          -1.9083  -26.5823  -46.1336 N.am      14 UNK        -0.5000 
     80 CA         -0.9915  -27.6486  -46.5302 C.3       14 UNK         0.1400 
     81 CB          0.4571  -27.2096  -46.2640 C.3       14 UNK        -0.1800 
     82 C          -1.1648  -28.0787  -47.9960 C.2       14 UNK         0.5000 
     83 O          -1.2702  -29.2761  -48.2662 O.2       14 UNK        -0.5000 
     84 N          -1.1632  -27.1056  -48.9163 N.am      15 UNK        -0.5000 
     85 CA         -1.1626  -27.3601  -50.3578 C.3       15 UNK         0.1400 
     86 CB         -0.4275  -26.2139  -51.0661 C.3       15 UNK        -0.1800 
     87 C          -2.5696  -27.5366  -50.9525 C.2       15 UNK         0.5000 
     88 O          -2.6836  -28.1025  -52.0407 O.2       15 UNK        -0.5000 
     89 N          -3.6036  -27.0251  -50.2666 N.am      16 UNK        -0.5000 
     90 CA         -5.0230  -26.9694  -50.6490 C.3       16 UNK         0.1400 
     91 CB         -5.6131  -28.3730  -50.8870 C.3       16 UNK        -0.1800 
     92 C          -5.2994  -26.0251  -51.8355 C.2       16 UNK         0.5000 
     93 O          -6.1084  -25.1061  -51.7113 O.2       16 UNK        -0.5000 
     94 N          -4.5966  -26.2394  -52.9541 N.am      17 UNK        -0.5000 
     95 CA         -4.6843  -25.4555  -54.1881 C.3       17 UNK         0.1400 
     96 CB         -3.9378  -26.2065  -55.3010 C.3       17 UNK        -0.1800 
     97 C          -4.1430  -24.0183  -54.0526 C.2       17 UNK         0.5000 
     98 O          -4.4905  -23.1629  -54.8665 O.2       17 UNK        -0.5000 
     99 N          -3.3113  -23.7719  -53.0306 N.am      18 UNK        -0.5000 
    100 CA        -2.7429  -22.4607  -52.7188 C.3       18 UNK         0.1400 
    101 CB        -1.4889  -22.6409  -51.8514 C.3       18 UNK        -0.1800 
    102 C         -3.7361  -21.4980  -52.0405 C.2       18 UNK         0.5000 
    103 O         -3.4071  -20.3211  -51.9029 O.2       18 UNK        -0.5000 
    104 N         -4.9176  -21.9814  -51.6275 N.am      19 UNK        -0.5000 
    105 CA        -5.9837  -21.1758  -51.0293 C.3       19 UNK         0.1400 
    106 CB        -7.1534  -22.0902  -50.6367 C.3       19 UNK        -0.1800 
    107 C         -6.4420  -20.0448  -51.9702 C.2       19 UNK         0.5000 
    108 O         -6.9716  -20.3240  -53.0474 O.2       19 UNK        -0.5000 
    109 N         -6.1634  -18.7977  -51.5652 N.am      20 UNK        -0.5000 
    110 CA        -6.3807  -17.5199  -52.2600 C.3       20 UNK         0.1400 
    111 CB        -7.8742  -17.2911  -52.5618 C.3       20 UNK        -0.1800 
    112 C         -5.5200  -17.3046  -53.5240 C.2       20 UNK         0.5000 
    113 O         -5.0887  -16.1775  -53.7683 O.2       20 UNK        -0.5000 
    114 N         -5.2887  -18.3650  -54.3063 N.am      21 UNK        -0.5000 
    115 CA        -4.5145  -18.3440  -55.5473 C.3       21 UNK         0.1400 
    116 CB        -4.8530  -19.6035  -56.3593 C.3       21 UNK        -0.1800 
    117 C         -2.9935  -18.2472  -55.3235 C.2       21 UNK         0.5000 
    118 O         -2.2939  -17.7022  -56.1779 O.2       21 UNK        -0.5000 
    119 N         -2.5116  -18.7950  -54.2003 N.am      22 UNK        -0.5000 
    120 CA        -1.0978  -18.8676  -53.7889 C.3       22 UNK         0.1400 
    121 C         -0.1802  -19.7491  -54.6916 C.2       22 UNK         0.5000 
    122 N         -0.7163  -20.5757  -55.5816 N.am      22 UNK        -0.7600 
    123 O          1.0400  -19.7147  -54.5616 O.2       22 UNK        -0.5000 
    124 C124       -0.4683  -17.4802  -53.4743 C.3       23 UNK        -0.0398 
    125 S125       -1.4270  -16.4548  -52.3021 S.3       23 UNK        -0.2404 
    126 C126       -1.4214  -17.4523  -50.7761 C.3       23 UNK        -0.0205 
    127 H127       -0.9952  -11.8223  -50.4037 H         1 UNK         0.0600 
    128 H128       -1.8440  -11.1140  -49.0147 H         1 UNK         0.0600 
    129 H129       -2.7293  -12.0479  -50.2152 H         1 UNK         0.0600 
    130 H130       -0.2954  -14.2449  -47.6300 H         1 UNK         0.3000 
    131 H131        0.7825  -11.8314  -48.8902 H         1 UNK         0.0600 
    132 H132        2.7670  -12.2845  -47.4858 H         1 UNK         0.0800 
    133 H133        1.9457  -13.5770  -46.6617 H         1 UNK         0.0800 
    134 H134        1.9635  -15.7456  -47.1304 H         1 UNK         0.0800 
    135 H135        3.5354  -16.1124  -47.7776 H         1 UNK         0.0800 
    136 H136        0.0999  -15.7443  -49.3288 H         1 UNK         0.1150 
    137 H137        0.1476  -19.6856  -50.9858 H         1 UNK         0.1150 
    138 H138        3.4817  -18.2976  -48.6843 H         1 UNK         0.1150 
    139 H139        2.9038  -20.5465  -51.1198 H         1 UNK         0.0800 
    140 H140        3.5126  -20.5205  -49.4825 H         1 UNK         0.0800 
    141 H141        0.3905  -20.6671  -47.9665 H         1 UNK         0.0800 
    142 H142        1.9681  -21.1778  -47.4302 H         1 UNK         0.0800 
    143 H143        1.1522  -23.5349  -47.2063 H         1 UNK         0.0600 
    144 H144        0.4864  -21.3981  -45.5053 H         1 UNK         0.3000 
    145 H145       -0.9794  -23.2858  -42.8269 H         1 UNK         0.0600 
    146 H146        0.7938  -22.0248  -41.6489 H         1 UNK         0.0600 
    147 H147        1.5074  -23.3213  -42.5963 H         1 UNK         0.0600 
    148 H148        1.5964  -21.6623  -43.1749 H         1 UNK         0.0600 
    149 H149       -0.6185  -20.4906  -43.1207 H         1 UNK         0.3000 
    150 H150       -3.8046  -19.7869  -44.6502 H         1 UNK         0.0600 
    151 H151       -4.1118  -19.9583  -42.1745 H         1 UNK         0.0600 
    152 H152       -3.8684  -18.2928  -42.6798 H         1 UNK         0.0600 
    153 H153       -2.5529  -19.1831  -41.9183 H         1 UNK         0.0600 
    154 H154       -1.7031  -18.0290  -43.9693 H         1 UNK         0.3000 
    155 H155        0.0797  -18.1714  -47.0876 H         1 UNK         0.0600 
    156 H156       -1.6944  -16.1317  -45.6355 H         1 UNK         0.0600 
    157 H157       -1.6793  -16.5005  -47.3516 H         1 UNK         0.0600 
    158 H158       -0.3017  -15.6949  -46.6111 H         1 UNK         0.0600 
    159 H159        0.7012  -16.7858  -44.7008 H         1 UNK         0.3000 
    160 H160        2.6156  -19.3404  -43.0909 H         1 UNK         0.0600 
    161 H161        4.1943  -18.3149  -44.6541 H         1 UNK         0.0600 
    162 H162        3.3864  -16.7617  -44.5535 H         1 UNK         0.0600 
    163 H163        4.2398  -17.4083  -43.1495 H         1 UNK         0.0600 
    164 H164        1.8720  -16.6158  -42.4757 H         1 UNK         0.3000 
    165 H165       -1.0450  -17.4409  -40.5886 H         1 UNK         0.0600 
    166 H166        0.2130  -16.2449  -38.8184 H         1 UNK         0.0600 
    167 H167        0.8545  -17.8670  -39.0230 H         1 UNK         0.0600 
    168 H168        1.7289  -16.4914  -39.6860 H         1 UNK         0.0600 
    169 H169        0.3445  -14.9818  -41.0849 H         1 UNK         0.3000 
    170 H170       -1.2007  -14.1592  -44.1625 H         1 UNK         0.0600 
    171 H171       -2.9958  -13.5783  -42.5236 H         1 UNK         0.0600 
    172 H172       -1.7838  -13.0007  -41.3852 H         1 UNK         0.0600 
    173 H173       -2.0156  -12.1783  -42.9294 H         1 UNK         0.0600 
    174 H174        0.4305  -12.5921  -42.4841 H         1 UNK         0.3000 
    175 H175        2.9528  -13.1154  -42.3256 H         1 UNK         0.0600 
    176 H176        3.8301  -13.7495  -45.1986 H         1 UNK         0.0600 
    177 H177        4.8716  -13.0897  -43.9415 H         1 UNK         0.0600 
    178 H178        4.1979  -14.6953  -43.7602 H         1 UNK         0.0600 
    179 H179        1.8193  -11.5845  -44.5389 H         1 UNK         0.3000 
    180 H180        2.6511   -8.5966  -43.2153 H         1 UNK         0.0600 
    181 H181        4.6377   -9.4251  -45.3984 H         1 UNK         0.0600 
    182 H182        5.0444   -8.6692  -43.8627 H         1 UNK         0.0600 
    183 H183        4.1220   -7.7733  -45.0566 H         1 UNK         0.0600 
    184 H184        2.2552   -9.5650  -45.9817 H         1 UNK         0.3000 
    185 H185       -1.2552   -9.4134  -45.7923 H         1 UNK         0.0600 
    186 H186       -1.0509   -7.8157  -47.6753 H         1 UNK         0.0600 
    187 H187       -0.7029   -7.0041  -46.1577 H         1 UNK         0.0600 
    188 H188        0.6177   -7.4562  -47.2288 H         1 UNK         0.0600 
    189 H189        0.4640   -9.8148  -48.0081 H         1 UNK         0.3000 
    190 H190       -1.8467  -21.5349  -47.1207 H         1 UNK         0.3000 
    191 H191       -3.2821  -22.8444  -49.1450 H         1 UNK         0.0600 
    192 H192       -4.2638  -21.3817  -46.6418 H         1 UNK         0.0600 
    193 H193       -5.2823  -21.8243  -48.0028 H         1 UNK         0.0600 
    194 H194       -3.9676  -20.6751  -48.2276 H         1 UNK         0.0600 
    195 H195       -3.2241  -23.5535  -45.6126 H         1 UNK         0.3000 
    196 H196       -5.0767  -25.7054  -45.6986 H         1 UNK         0.0600 
    197 H197       -4.1658  -26.2119  -43.4220 H         1 UNK         0.0600 
    198 H198       -4.5145  -24.5007  -43.6167 H         1 UNK         0.0600 
    199 H199       -2.8500  -25.0739  -43.6907 H         1 UNK         0.0600 
    200 H200       -1.4909  -25.6786  -45.9278 H         1 UNK         0.3000 
    201 H201       -1.1943  -28.5197  -45.9034 H         1 UNK         0.0600 
    202 H202        0.6180  -27.0086  -45.2047 H         1 UNK         0.0600 
    203 H203        0.7127  -26.3049  -46.8174 H         1 UNK         0.0600 
    204 H204        1.1634  -27.9870  -46.5580 H         1 UNK         0.0600 
    205 H205       -1.0771  -26.1343  -48.6224 H         1 UNK         0.3000 
    206 H206       -0.6081  -28.2791  -50.5601 H         1 UNK         0.0600 
    207 H207        0.5945  -26.1133  -50.7003 H         1 UNK         0.0600 
    208 H208       -0.3745  -26.3824  -52.1424 H         1 UNK         0.0600 
    209 H209       -0.9329  -25.2641  -50.9057 H         1 UNK         0.0600 
    210 H210       -3.3946  -26.5436  -49.4001 H         1 UNK         0.3000 
    211 H211       -5.5496  -26.5526  -49.7903 H         1 UNK         0.0600 
    212 H212       -5.1788  -28.8646  -51.7575 H         1 UNK         0.0600 
    213 H213       -6.6894  -28.3154  -51.0530 H         1 UNK         0.0600 
    214 H214       -5.4519  -29.0176  -50.0229 H         1 UNK         0.0600 
    215 H215       -3.9253  -27.0032  -52.9383 H         1 UNK         0.3000 
    216 H216       -5.7372  -25.3822  -54.4678 H         1 UNK         0.0600 
    217 H217       -4.0004  -25.6685  -56.2479 H         1 UNK         0.0600 
    218 H218       -4.3638  -27.1969  -55.4625 H         1 UNK         0.0600 
    219 H219       -2.8808  -26.3307  -55.0618 H         1 UNK         0.0600 
    220 H220       -3.0798  -24.5328  -52.4102 H         1 UNK         0.3000 
    221 H221       -2.4341  -21.9906  -53.6543 H         1 UNK         0.0600 
    222 H222       -1.7249  -23.0966  -50.8908 H         1 UNK         0.0600 
    223 H223       -0.7470  -23.2635  -52.3514 H         1 UNK         0.0600 
    224 H224       -1.0133  -21.6822  -51.6447 H         1 UNK         0.0600 
    225 H225       -5.1349  -22.9540  -51.8003 H         1 UNK         0.3000 
    226 H226       -5.5872  -20.7269  -50.1181 H         1 UNK         0.0600 
    227 H227       -6.8364  -22.8516  -49.9234 H         1 UNK         0.0600 
    228 H228       -7.9567  -21.5192  -50.1698 H         1 UNK         0.0600 
    229 H229       -7.5729  -22.6009  -51.5045 H         1 UNK         0.0600 
    230 H230       -5.6643  -18.7058  -50.6915 H         1 UNK         0.3000 
    231 H231       -6.0735  -16.7509  -51.5494 H         1 UNK         0.0600 
    232 H232       -8.0388  -16.2920  -52.9671 H         1 UNK         0.0600 
    233 H233       -8.4774  -17.3784  -51.6581 H         1 UNK         0.0600 
    234 H234       -8.2579  -18.0035  -53.2924 H         1 UNK         0.0600 
    235 H235       -5.7292  -19.2419  -54.0449 H         1 UNK         0.3000 
    236 H236       -4.8194  -17.4716  -56.1292 H         1 UNK         0.0600 
    237 H237       -5.9159  -19.6446  -56.5978 H         1 UNK         0.0600 
    238 H238       -4.3076  -19.6203  -57.3038 H         1 UNK         0.0600 
    239 H239       -4.5978  -20.5135  -55.8146 H         1 UNK         0.0600 
    240 H240       -3.1623  -19.2003  -53.5364 H         1 UNK         0.3000 
    241 H241       -1.1181  -19.4232  -52.8550 H         1 UNK         0.0600 
    242 H242       -0.1106  -21.1451  -56.1514 H         1 UNK         0.3800 
    243 H243       -1.7123  -20.6090  -55.7209 H         1 UNK         0.3800 
    244 H244        0.5366  -17.5974  -53.0658 H         1 UNK         0.0800 
    245 H245       -0.3482  -16.9089  -54.3955 H         1 UNK         0.0800 
    246 H246       -2.0188  -16.9321  -50.0257 H         1 UNK         0.0800 
    247 H247       -1.9290  -18.4006  -50.9475 H         1 UNK         0.0800 
@<TRIPOS>BOND
     1    1    2 1    
     2    1  127 1    
     3    1  128 1    
     4    1  129 1    
     5    2    3 2    
     6    2    4 am   BACKBONE|DICT|INTERRES
     7    4    5 1    
     8    4  130 1    
     9    5    6 1    
    10    5   65 1    
    11    5  131 1    
    12    6    7 1    
    13    6  132 1    
    14    6  133 1    
    15    7    8 1    
    16    8    9 1    
    17    8  134 1    
    18    8  135 1    
    19    9   10 ar   
    20    9   14 ar   
    21   10   11 ar   
    22   10  136 1    
    23   11   12 ar   
    24   11  126 1    
    25   12   13 ar   
    26   12  137 1    
    27   13   14 ar   
    28   13   15 1    
    29   14  138 1    
    30   15   16 1    
    31   15  139 1    
    32   15  140 1    
    33   16   17 1    
    34   17   18 1    
    35   17  141 1    
    36   17  142 1    
    37   18   19 1    
    38   18   67 1    
    39   18  143 1    
    40   19   20 am   BACKBONE|DICT|INTERRES
    41   19  144 1    
    42   20   21 2    
    43   20   22 1    
    44   22   23 1    
    45   22   24 1    
    46   22  145 1    
    47   23  146 1    
    48   23  147 1    
    49   23  148 1    
    50   24   25 am   BACKBONE|DICT|INTERRES
    51   24  149 1    
    52   25   26 2    
    53   25   27 1    
    54   27   28 1    
    55   27   29 1    
    56   27  150 1    
    57   28  151 1    
    58   28  152 1    
    59   28  153 1    
    60   29   30 am   BACKBONE|DICT|INTERRES
    61   29  154 1    
    62   30   31 2    
    63   30   32 1    
    64   32   33 1    
    65   32   34 1    
    66   32  155 1    
    67   33  156 1    
    68   33  157 1    
    69   33  158 1    
    70   34   35 am   BACKBONE|DICT|INTERRES
    71   34  159 1    
    72   35   36 2    
    73   35   37 1    
    74   37   38 1    
    75   37   39 1    
    76   37  160 1    
    77   38  161 1    
    78   38  162 1    
    79   38  163 1    
    80   39   40 am   BACKBONE|DICT|INTERRES
    81   39  164 1    
    82   40   41 2    
    83   40   42 1    
    84   42   43 1    
    85   42   44 1    
    86   42  165 1    
    87   43  166 1    
    88   43  167 1    
    89   43  168 1    
    90   44   45 am   BACKBONE|DICT|INTERRES
    91   44  169 1    
    92   45   46 2    
    93   45   47 1    
    94   47   48 1    
    95   47   49 1    
    96   47  170 1    
    97   48  171 1    
    98   48  172 1    
    99   48  173 1    
   100   49   50 am   BACKBONE|DICT|INTERRES
   101   49  174 1    
   102   50   51 2    
   103   50   52 1    
   104   52   53 1    
   105   52   54 1    
   106   52  175 1    
   107   53  176 1    
   108   53  177 1    
   109   53  178 1    
   110   54   55 am   BACKBONE|DICT|INTERRES
   111   54  179 1    
   112   55   56 2    
   113   55   57 1    
   114   57   58 1    
   115   57   59 1    
   116   57  180 1    
   117   58  181 1    
   118   58  182 1    
   119   58  183 1    
   120   59   60 am   BACKBONE|DICT|INTERRES
   121   59  184 1    
   122   60   61 2    
   123   60   62 1    
   124   62   63 1    
   125   62   64 1    
   126   62  185 1    
   127   63  186 1    
   128   63  187 1    
   129   63  188 1    
   130   64   65 am   BACKBONE|DICT|INTERRES
   131   64  189 1    
   132   65   66 2    
   133   67   68 2    
   134   67   69 am   BACKBONE|DICT|INTERRES
   135   69   70 1    
   136   69  190 1    
   137   70   71 1    
   138   70   72 1    
   139   70  191 1    
   140   71  192 1    
   141   71  193 1    
   142   71  194 1    
   143   72   73 2    
   144   72   74 am   BACKBONE|DICT|INTERRES
   145   74   75 1    
   146   74  195 1    
   147   75   76 1    
   148   75   77 1    
   149   75  196 1    
   150   76  197 1    
   151   76  198 1    
   152   76  199 1    
   153   77   78 2    
   154   77   79 am   BACKBONE|DICT|INTERRES
   155   79   80 1    
   156   79  200 1    
   157   80   81 1    
   158   80   82 1    
   159   80  201 1    
   160   81  202 1    
   161   81  203 1    
   162   81  204 1    
   163   82   83 2    
   164   82   84 am   BACKBONE|DICT|INTERRES
   165   84   85 1    
   166   84  205 1    
   167   85   86 1    
   168   85   87 1    
   169   85  206 1    
   170   86  207 1    
   171   86  208 1    
   172   86  209 1    
   173   87   88 2    
   174   87   89 am   BACKBONE|DICT|INTERRES
   175   89   90 1    
   176   89  210 1    
   177   90   91 1    
   178   90   92 1    
   179   90  211 1    
   180   91  212 1    
   181   91  213 1    
   182   91  214 1    
   183   92   93 2    
   184   92   94 am   BACKBONE|DICT|INTERRES
   185   94   95 1    
   186   94  215 1    
   187   95   96 1    
   188   95   97 1    
   189   95  216 1    
   190   96  217 1    
   191   96  218 1    
   192   96  219 1    
   193   97   98 2    
   194   97   99 am   BACKBONE|DICT|INTERRES
   195   99  100 1    
   196   99  220 1    
   197  100  101 1    
   198  100  102 1    
   199  100  221 1    
   200  101  222 1    
   201  101  223 1    
   202  101  224 1    
   203  102  103 2    
   204  102  104 am   BACKBONE|DICT|INTERRES
   205  104  105 1    
   206  104  225 1    
   207  105  106 1    
   208  105  107 1    
   209  105  226 1    
   210  106  227 1    
   211  106  228 1    
   212  106  229 1    
   213  107  108 2    
   214  107  109 am   BACKBONE|DICT|INTERRES
   215  109  110 1    
   216  109  230 1    
   217  110  111 1    
   218  110  112 1    
   219  110  231 1    
   220  111  232 1    
   221  111  233 1    
   222  111  234 1    
   223  112  113 2    
   224  112  114 am   BACKBONE|DICT|INTERRES
   225  114  115 1    
   226  114  235 1    
   227  115  116 1    
   228  115  117 1    
   229  115  236 1    
   230  116  237 1    
   231  116  238 1    
   232  116  239 1    
   233  117  118 2    
   234  117  119 am   BACKBONE|DICT|INTERRES
   235  119  120 1    
   236  119  240 1    
   237  120  121 1    
   238  120  124 1    
   239  120  241 1    
   240  121  122 am   BACKBONE|DICT|INTERRES
   241  121  123 2    
   242  122  242 1    
   243  122  243 1    
   244  124  125 1    
   245  124  244 1    
   246  124  245 1    
   247  125  126 1    
   248  126  246 1    
   249  126  247 1    
@<TRIPOS>SUBSTRUCTURE
     1 UNK         1 GROUP             0       ****    0 ROOT    
