@<TRIPOS>MOLECULE
3R540
247   249    1
SMALL
USER_CHARGES


@<TRIPOS>ATOM
      1 CA         -4.1908  -15.0354  -42.4280 C.3       0 UNK        -0.1800 
      2 C          -3.6412  -14.1714  -43.5548 C.2       0 UNK         0.5000 
      3 O          -4.3604  -13.3252  -44.0868 O.2       0 UNK        -0.5000 
      4 N          -2.3744  -14.3896  -43.9246 N.am      1 UNK        -0.5000 
      5 CA         -1.6556  -13.6406  -44.9602 C.3       1 UNK         0.1400 
      6 C6         -0.3511  -14.3588  -45.3850 C.3       23 UNK        -0.0398 
      7 S7         -0.6725  -16.0233  -46.0550 S.3       23 UNK        -0.2404 
      8 C8         -0.3480  -15.7750  -47.8277 C.3       23 UNK        -0.0205 
      9 C9         -0.5482  -17.0721  -48.5941 C.ar      23 UNK        -0.0193 
     10 C10        -1.7134  -17.2895  -49.3342 C.ar      23 UNK        -0.1150 
     11 C11        -1.9110  -18.4993  -50.0068 C.ar      23 UNK        -0.0193 
     12 C12        -0.9355  -19.4985  -49.9277 C.ar      23 UNK        -0.1150 
     13 C13         0.2305  -19.2968  -49.1829 C.ar      23 UNK        -0.0193 
     14 C14         0.4253  -18.0721  -48.5387 C.ar      23 UNK        -0.1150 
     15 C15         1.2713  -20.4024  -49.0606 C.3       23 UNK        -0.0205 
     16 S16         1.6176  -20.8134  -47.3149 S.3       23 UNK        -0.2404 
     17 C17         1.6214  -22.6376  -47.3270 C.3       23 UNK        -0.0398 
     18 CA          0.3321  -23.2942  -46.7742 C.3       11 UNK         0.1400 
     19 N           0.0354  -22.9372  -45.3820 N.am      11 UNK        -0.5000 
     20 C          -0.7506  -23.6804  -44.5872 C.2       10 UNK         0.5000 
     21 O          -1.2785  -24.7338  -44.9464 O.2       10 UNK        -0.5000 
     22 CA         -1.0365  -23.1391  -43.1736 C.3       10 UNK         0.1400 
     23 CB          0.1518  -23.4059  -42.2377 C.3       10 UNK        -0.1800 
     24 N          -1.3572  -21.7116  -43.1546 N.am      10 UNK        -0.5000 
     25 C          -2.3793  -21.1420  -43.8080 C.2       9 UNK         0.5000 
     26 O          -3.1898  -21.7831  -44.4755 O.2       9 UNK        -0.5000 
     27 CA         -2.5281  -19.6076  -43.7220 C.3       9 UNK         0.1400 
     28 CB         -3.8001  -19.2296  -42.9476 C.3       9 UNK        -0.1800 
     29 N          -1.3868  -18.9038  -43.1269 N.am      9 UNK        -0.5000 
     30 C          -0.1654  -18.8278  -43.6690 C.2       8 UNK         0.5000 
     31 O           0.1662  -19.4259  -44.6939 O.2       8 UNK        -0.5000 
     32 CA          0.8608  -17.9722  -42.9174 C.3       8 UNK         0.1400 
     33 CB          1.4233  -18.7237  -41.6973 C.3       8 UNK        -0.1800 
     34 N           1.9437  -17.6319  -43.8316 N.am      8 UNK        -0.5000 
     35 C           2.7302  -16.5587  -43.7276 C.2       7 UNK         0.5000 
     36 O           2.6382  -15.7320  -42.8143 O.2       7 UNK        -0.5000 
     37 CA          3.7862  -16.3840  -44.8321 C.3       7 UNK         0.1400 
     38 CB          3.1493  -15.8629  -46.1292 C.3       7 UNK        -0.1800 
     39 N           4.7783  -15.4212  -44.3785 N.am      7 UNK        -0.5000 
     40 C           6.1059  -15.5664  -44.4045 C.2       6 UNK         0.5000 
     41 O           6.6893  -16.5054  -44.9476 O.2       6 UNK        -0.5000 
     42 CA          6.9137  -14.4936  -43.6482 C.3       6 UNK         0.1400 
     43 CB          7.1211  -13.2447  -44.5188 C.3       6 UNK        -0.1800 
     44 N           6.2573  -14.1112  -42.3960 N.am      6 UNK        -0.5000 
     45 C           6.1395  -14.9044  -41.3225 C.2       5 UNK         0.5000 
     46 O           6.7074  -15.9925  -41.2200 O.2       5 UNK        -0.5000 
     47 CA          5.2049  -14.4414  -40.1866 C.3       5 UNK         0.1400 
     48 CB          5.9609  -13.6097  -39.1323 C.3       5 UNK        -0.1800 
     49 N           3.9831  -13.7702  -40.6535 N.am      5 UNK        -0.5000 
     50 C           3.8491  -12.5591  -41.2077 C.2       4 UNK         0.5000 
     51 O           4.7794  -11.7655  -41.3701 O.2       4 UNK        -0.5000 
     52 CA          2.4305  -12.1876  -41.6791 C.3       4 UNK         0.1400 
     53 CB          1.6760  -11.4269  -40.5788 C.3       4 UNK        -0.1800 
     54 N           2.4357  -11.3769  -42.8965 N.am      4 UNK        -0.5000 
     55 C           2.9497  -11.7517  -44.0740 C.2       3 UNK         0.5000 
     56 O           3.4827  -12.8446  -44.2652 O.2       3 UNK        -0.5000 
     57 CA          2.7851  -10.7545  -45.2380 C.3       3 UNK         0.1400 
     58 CB          3.4880  -11.2268  -46.5240 C.3       3 UNK        -0.1800 
     59 N           1.3657  -10.5542  -45.5246 N.am      3 UNK        -0.5000 
     60 C           0.5476   -9.7232  -44.8646 C.2       2 UNK         0.5000 
     61 O           0.9285   -8.9295  -44.0033 O.2       2 UNK        -0.5000 
     62 CA         -0.9554   -9.8566  -45.1767 C.3       2 UNK         0.1400 
     63 CB         -1.3374   -8.9984  -46.3921 C.3       2 UNK        -0.1800 
     64 N          -1.3517  -11.2488  -45.4170 N.am      2 UNK        -0.5000 
     65 C          -1.3356  -12.2102  -44.4819 C.2       1 UNK         0.5000 
     66 O          -1.0396  -12.0118  -43.3008 O.2       1 UNK        -0.5000 
     67 C          -0.8860  -23.0769  -47.6940 C.2       11 UNK         0.5000 
     68 O          -1.0746  -23.8548  -48.6275 O.2       11 UNK        -0.5000 
     69 N          -1.7152  -22.0664  -47.3905 N.am      12 UNK        -0.5000 
     70 CA         -2.9718  -21.7872  -48.0871 C.3       12 UNK         0.1400 
     71 CB         -3.5547  -20.4485  -47.6056 C.3       12 UNK        -0.1800 
     72 C          -3.9900  -22.9230  -47.9022 C.2       12 UNK         0.5000 
     73 O          -4.6006  -23.3551  -48.8800 O.2       12 UNK        -0.5000 
     74 N          -4.1138  -23.4096  -46.6597 N.am      13 UNK        -0.5000 
     75 CA         -4.9405  -24.5527  -46.2820 C.3       13 UNK         0.1400 
     76 CB         -4.9860  -24.6693  -44.7510 C.3       13 UNK        -0.1800 
     77 C          -4.4554  -25.8655  -46.9203 C.2       13 UNK         0.5000 
     78 O          -5.2769  -26.6151  -47.4476 O.2       13 UNK        -0.5000 
     79 N          -3.1344  -26.1010  -46.9033 N.am      14 UNK        -0.5000 
     80 CA         -2.4909  -27.2640  -47.5233 C.3       14 UNK         0.1400 
     81 CB         -1.0052  -27.2978  -47.1363 C.3       14 UNK        -0.1800 
     82 C          -2.6534  -27.2980  -49.0554 C.2       14 UNK         0.5000 
     83 O          -2.8859  -28.3665  -49.6212 O.2       14 UNK        -0.5000 
     84 N          -2.5627  -26.1229  -49.6913 N.am      15 UNK        -0.5000 
     85 CA         -2.7918  -25.9178  -51.1220 C.3       15 UNK         0.1400 
     86 CB         -2.1590  -24.5762  -51.5219 C.3       15 UNK        -0.1800 
     87 C          -4.2813  -25.9268  -51.5206 C.2       15 UNK         0.5000 
     88 O          -4.5803  -25.9403  -52.7169 O.2       15 UNK        -0.5000 
     89 N          -5.1783  -25.8534  -50.5239 N.am      16 UNK        -0.5000 
     90 CA         -6.6301  -25.6731  -50.6343 C.3       16 UNK         0.1400 
     91 CB         -7.2896  -26.9524  -51.1878 C.3       16 UNK        -0.1800 
     92 C          -7.0009  -24.4078  -51.4382 C.2       16 UNK         0.5000 
     93 O          -7.9584  -24.4256  -52.2141 O.2       16 UNK        -0.5000 
     94 N          -6.1807  -23.3557  -51.2853 N.am      17 UNK        -0.5000 
     95 CA         -6.1050  -22.1039  -52.0500 C.3       17 UNK         0.1400 
     96 CB         -7.3924  -21.2735  -51.8927 C.3       17 UNK        -0.1800 
     97 C          -5.7376  -22.2793  -53.5400 C.2       17 UNK         0.5000 
     98 O          -4.9095  -21.5243  -54.0515 O.2       17 UNK        -0.5000 
     99 N          -6.3556  -23.2602  -54.2066 N.am      18 UNK        -0.5000 
    100 CA        -6.2742  -23.5433  -55.6368 C.3       18 UNK         0.1400 
    101 CB        -7.1994  -24.7240  -55.9675 C.3       18 UNK        -0.1800 
    102 C         -4.8512  -23.8097  -56.1520 C.2       18 UNK         0.5000 
    103 O         -4.4621  -23.2206  -57.1608 O.2       18 UNK        -0.5000 
    104 N         -4.0834  -24.6563  -55.4492 N.am      19 UNK        -0.5000 
    105 CA        -2.7205  -25.0262  -55.8542 C.3       19 UNK         0.1400 
    106 CB        -2.2882  -26.3069  -55.1250 C.3       19 UNK        -0.1800 
    107 C         -1.6916  -23.8946  -55.6525 C.2       19 UNK         0.5000 
    108 O         -0.6278  -23.9271  -56.2715 O.2       19 UNK        -0.5000 
    109 N         -2.0356  -22.9068  -54.8160 N.am      20 UNK        -0.5000 
    110 CA        -1.2645  -21.6840  -54.5924 C.3       20 UNK         0.1400 
    111 CB        -1.4267  -21.2698  -53.1213 C.3       20 UNK        -0.1800 
    112 C         -1.6964  -20.5410  -55.5345 C.2       20 UNK         0.5000 
    113 O         -1.0706  -19.4808  -55.5135 O.2       20 UNK        -0.5000 
    114 N         -2.7553  -20.7689  -56.3291 N.am      21 UNK        -0.5000 
    115 CA        -3.4288  -19.8202  -57.2212 C.3       21 UNK         0.1400 
    116 CB        -2.4920  -19.3596  -58.3577 C.3       21 UNK        -0.1800 
    117 C         -4.0961  -18.6481  -56.4683 C.2       21 UNK         0.5000 
    118 O         -4.2307  -17.5565  -57.0246 O.2       21 UNK        -0.5000 
    119 N         -4.5198  -18.8991  -55.2228 N.am      22 UNK        -0.5000 
    120 CA        -5.2257  -17.9355  -54.3636 C.3       22 UNK         0.1400 
    121 C         -6.7612  -17.8783  -54.6173 C.2       22 UNK         0.5000 
    122 N         -7.3422  -18.7670  -55.4148 N.am      22 UNK        -0.7600 
    123 O         -7.4392  -17.0034  -54.0858 O.2       22 UNK        -0.5000 
    124 C124       -4.9320  -18.1827  -52.8627 C.3       23 UNK        -0.0398 
    125 S125       -3.1705  -18.0105  -52.4271 S.3       23 UNK        -0.2404 
    126 C126       -3.2066  -18.7423  -50.7642 C.3       23 UNK        -0.0205 
    127 H127       -4.5309  -14.4068  -41.6051 H         1 UNK         0.0600 
    128 H128       -3.4393  -15.7239  -42.0409 H         1 UNK         0.0600 
    129 H129       -5.0381  -15.6217  -42.7837 H         1 UNK         0.0600 
    130 H130       -1.8308  -15.0879  -43.4409 H         1 UNK         0.3000 
    131 H131       -2.3074  -13.5699  -45.8340 H         1 UNK         0.0600 
    132 H132        0.3266  -14.4611  -44.5347 H         1 UNK         0.0800 
    133 H133        0.1903  -13.7738  -46.1305 H         1 UNK         0.0800 
    134 H134        0.6732  -15.4192  -47.9710 H         1 UNK         0.0800 
    135 H135       -1.0083  -14.9963  -48.2127 H         1 UNK         0.0800 
    136 H136       -2.4753  -16.5238  -49.3759 H         1 UNK         0.1150 
    137 H137       -1.0950  -20.4433  -50.4259 H         1 UNK         0.1150 
    138 H138        1.3224  -17.9152  -47.9591 H         1 UNK         0.1150 
    139 H139        0.9364  -21.2909  -49.5974 H         1 UNK         0.0800 
    140 H140        2.1956  -20.0806  -49.5418 H         1 UNK         0.0800 
    141 H141        1.8366  -23.0039  -48.3322 H         1 UNK         0.0800 
    142 H142        2.4683  -22.9608  -46.7206 H         1 UNK         0.0800 
    143 H143        0.5250  -24.3689  -46.7872 H         1 UNK         0.0600 
    144 H144        0.4006  -22.0550  -45.0479 H         1 UNK         0.3000 
    145 H145       -1.9040  -23.6769  -42.7853 H         1 UNK         0.0600 
    146 H146       -0.0803  -23.1151  -41.2130 H         1 UNK         0.0600 
    147 H147        0.4068  -24.4665  -42.2233 H         1 UNK         0.0600 
    148 H148        1.0422  -22.8578  -42.5487 H         1 UNK         0.0600 
    149 H149       -0.7357  -21.1117  -42.6340 H         1 UNK         0.3000 
    150 H150       -2.6377  -19.2461  -44.7467 H         1 UNK         0.0600 
    151 H151       -4.6804  -19.7060  -43.3816 H         1 UNK         0.0600 
    152 H152       -3.9726  -18.1537  -42.9730 H         1 UNK         0.0600 
    153 H153       -3.7414  -19.5382  -41.9031 H         1 UNK         0.0600 
    154 H154       -1.5695  -18.4151  -42.2625 H         1 UNK         0.3000 
    155 H155        0.3628  -17.0569  -42.5897 H         1 UNK         0.0600 
    156 H156        2.1408  -18.1104  -41.1518 H         1 UNK         0.0600 
    157 H157        1.9278  -19.6448  -41.9921 H         1 UNK         0.0600 
    158 H158        0.6308  -18.9909  -40.9975 H         1 UNK         0.0600 
    159 H159        2.0073  -18.2447  -44.6358 H         1 UNK         0.3000 
    160 H160        4.2516  -17.3544  -45.0168 H         1 UNK         0.0600 
    161 H161        2.6587  -14.9007  -45.9786 H         1 UNK         0.0600 
    162 H162        2.4002  -16.5603  -46.4998 H         1 UNK         0.0600 
    163 H163        3.8961  -15.7386  -46.9134 H         1 UNK         0.0600 
    164 H164        4.3806  -14.6010  -43.9289 H         1 UNK         0.3000 
    165 H165        7.8938  -14.9126  -43.4109 H         1 UNK         0.0600 
    166 H166        6.1743  -12.7683  -44.7747 H         1 UNK         0.0600 
    167 H167        7.7397  -12.5067  -44.0079 H         1 UNK         0.0600 
    168 H168        7.6229  -13.5000  -45.4529 H         1 UNK         0.0600 
    169 H169        5.7719  -13.2209  -42.3786 H         1 UNK         0.3000 
    170 H170        4.8570  -15.3483  -39.6894 H         1 UNK         0.0600 
    171 H171        6.7721  -14.1912  -38.6926 H         1 UNK         0.0600 
    172 H172        6.4054  -12.7103  -39.5586 H         1 UNK         0.0600 
    173 H173        5.3004  -13.3070  -38.3198 H         1 UNK         0.0600 
    174 H174        3.1624  -14.3615  -40.6452 H         1 UNK         0.3000 
    175 H175        1.8844  -13.1065  -41.9036 H         1 UNK         0.0600 
    176 H176        2.1633  -10.4810  -40.3384 H         1 UNK         0.0600 
    177 H177        0.6513  -11.2102  -40.8825 H         1 UNK         0.0600 
    178 H178        1.6251  -12.0138  -39.6609 H         1 UNK         0.0600 
    179 H179        1.9977  -10.4664  -42.8390 H         1 UNK         0.3000 
    180 H180        3.2374   -9.8081  -44.9341 H         1 UNK         0.0600 
    181 H181        3.0820  -12.1732  -46.8837 H         1 UNK         0.0600 
    182 H182        4.5557  -11.3712  -46.3542 H         1 UNK         0.0600 
    183 H183        3.3835  -10.4920  -47.3224 H         1 UNK         0.0600 
    184 H184        0.9567  -11.1830  -46.1987 H         1 UNK         0.3000 
    185 H185       -1.5096   -9.4890  -44.3104 H         1 UNK         0.0600 
    186 H186       -1.0696   -7.9533  -46.2305 H         1 UNK         0.0600 
    187 H187       -0.8297   -9.3309  -47.2983 H         1 UNK         0.0600 
    188 H188       -2.4114   -9.0321  -46.5766 H         1 UNK         0.0600 
    189 H189       -1.6248  -11.4806  -46.3614 H         1 UNK         0.3000 
    190 H190       -1.4884  -21.4794  -46.6015 H         1 UNK         0.3000 
    191 H191       -2.7504  -21.7047  -49.1525 H         1 UNK         0.0600 
    192 H192       -4.3700  -20.1288  -48.2550 H         1 UNK         0.0600 
    193 H193       -2.8032  -19.6595  -47.6076 H         1 UNK         0.0600 
    194 H194       -3.9579  -20.5136  -46.5959 H         1 UNK         0.0600 
    195 H195       -3.6105  -22.9468  -45.9067 H         1 UNK         0.3000 
    196 H196       -5.9548  -24.3629  -46.6393 H         1 UNK         0.0600 
    197 H197       -5.6117  -25.5069  -44.4406 H         1 UNK         0.0600 
    198 H198       -5.4011  -23.7675  -44.3007 H         1 UNK         0.0600 
    199 H199       -3.9929  -24.8247  -44.3281 H         1 UNK         0.0600 
    200 H200       -2.5284  -25.4560  -46.4068 H         1 UNK         0.3000 
    201 H201       -2.9668  -28.1601  -47.1196 H         1 UNK         0.0600 
    202 H202       -0.8787  -27.3266  -46.0539 H         1 UNK         0.0600 
    203 H203       -0.4723  -26.4254  -47.5141 H         1 UNK         0.0600 
    204 H204       -0.5159  -28.1828  -47.5449 H         1 UNK         0.0600 
    205 H205       -2.2931  -25.2991  -49.1610 H         1 UNK         0.3000 
    206 H206       -2.2962  -26.7175  -51.6755 H         1 UNK         0.0600 
    207 H207       -1.0831  -24.5780  -51.3472 H         1 UNK         0.0600 
    208 H208       -2.3152  -24.3651  -52.5771 H         1 UNK         0.0600 
    209 H209       -2.5894  -23.7458  -50.9607 H         1 UNK         0.0600 
    210 H210       -4.8172  -25.8275  -49.5792 H         1 UNK         0.3000 
    211 H211       -7.0004  -25.5145  -49.6205 H         1 UNK         0.0600 
    212 H212       -7.0003  -27.1416  -52.2221 H         1 UNK         0.0600 
    213 H213       -8.3771  -26.8760  -51.1602 H         1 UNK         0.0600 
    214 H214       -7.0110  -27.8248  -50.5966 H         1 UNK         0.0600 
    215 H215       -5.4641  -23.4544  -50.5693 H         1 UNK         0.3000 
    216 H216       -5.2903  -21.5364  -51.5977 H         1 UNK         0.0600 
    217 H217       -8.2647  -21.7914  -52.2915 H         1 UNK         0.0600 
    218 H218       -7.3177  -20.3233  -52.4218 H         1 UNK         0.0600 
    219 H219       -7.5876  -21.0479  -50.8444 H         1 UNK         0.0600 
    220 H220       -7.0140  -23.8220  -53.6725 H         1 UNK         0.3000 
    221 H221       -6.6504  -22.6620  -56.1601 H         1 UNK         0.0600 
    222 H222       -6.9108  -25.6247  -55.4237 H         1 UNK         0.0600 
    223 H223       -8.2343  -24.4968  -55.7107 H         1 UNK         0.0600 
    224 H224       -7.1727  -24.9581  -57.0326 H         1 UNK         0.0600 
    225 H225       -4.4480  -25.0870  -54.6043 H         1 UNK         0.3000 
    226 H226       -2.7391  -25.2514  -56.9228 H         1 UNK         0.0600 
    227 H227       -3.0055  -27.1127  -55.2819 H         1 UNK         0.0600 
    228 H228       -1.3222  -26.6556  -55.4921 H         1 UNK         0.0600 
    229 H229       -2.1893  -26.1514  -54.0531 H         1 UNK         0.0600 
    230 H230       -2.9462  -22.9448  -54.3791 H         1 UNK         0.3000 
    231 H231       -0.2049  -21.8734  -54.7755 H         1 UNK         0.0600 
    232 H232       -2.4722  -21.1015  -52.8625 H         1 UNK         0.0600 
    233 H233       -0.8852  -20.3462  -52.9127 H         1 UNK         0.0600 
    234 H234       -1.0316  -22.0328  -52.4513 H         1 UNK         0.0600 
    235 H235       -3.1899  -21.6820  -56.2818 H         1 UNK         0.3000 
    236 H236       -4.2454  -20.3777  -57.6817 H         1 UNK         0.0600 
    237 H237       -2.0382  -20.2116  -58.8638 H         1 UNK         0.0600 
    238 H238       -3.0409  -18.7921  -59.1101 H         1 UNK         0.0600 
    239 H239       -1.6895  -18.7198  -57.9900 H         1 UNK         0.0600 
    240 H240       -4.4099  -19.8347  -54.8422 H         1 UNK         0.3000 
    241 H241       -4.8543  -16.9365  -54.5995 H         1 UNK         0.0600 
    242 H242       -6.7973  -19.4863  -55.8608 H         1 UNK         0.3800 
    243 H243       -8.3355  -18.7137  -55.5770 H         1 UNK         0.3800 
    244 H244       -5.4900  -17.4804  -52.2405 H         1 UNK         0.0800 
    245 H245       -5.2645  -19.1794  -52.5755 H         1 UNK         0.0800 
    246 H246       -3.4051  -19.8117  -50.8468 H         1 UNK         0.0800 
    247 H247       -4.0378  -18.3183  -50.1985 H         1 UNK         0.0800 
@<TRIPOS>BOND
     1    1    2 1    
     2    1  127 1    
     3    1  128 1    
     4    1  129 1    
     5    2    3 2    
     6    2    4 am   BACKBONE|DICT|INTERRES
     7    4    5 1    
     8    4  130 1    
     9    5    6 1    
    10    5   65 1    
    11    5  131 1    
    12    6    7 1    
    13    6  132 1    
    14    6  133 1    
    15    7    8 1    
    16    8    9 1    
    17    8  134 1    
    18    8  135 1    
    19    9   10 ar   
    20    9   14 ar   
    21   10   11 ar   
    22   10  136 1    
    23   11   12 ar   
    24   11  126 1    
    25   12   13 ar   
    26   12  137 1    
    27   13   14 ar   
    28   13   15 1    
    29   14  138 1    
    30   15   16 1    
    31   15  139 1    
    32   15  140 1    
    33   16   17 1    
    34   17   18 1    
    35   17  141 1    
    36   17  142 1    
    37   18   19 1    
    38   18   67 1    
    39   18  143 1    
    40   19   20 am   BACKBONE|DICT|INTERRES
    41   19  144 1    
    42   20   21 2    
    43   20   22 1    
    44   22   23 1    
    45   22   24 1    
    46   22  145 1    
    47   23  146 1    
    48   23  147 1    
    49   23  148 1    
    50   24   25 am   BACKBONE|DICT|INTERRES
    51   24  149 1    
    52   25   26 2    
    53   25   27 1    
    54   27   28 1    
    55   27   29 1    
    56   27  150 1    
    57   28  151 1    
    58   28  152 1    
    59   28  153 1    
    60   29   30 am   BACKBONE|DICT|INTERRES
    61   29  154 1    
    62   30   31 2    
    63   30   32 1    
    64   32   33 1    
    65   32   34 1    
    66   32  155 1    
    67   33  156 1    
    68   33  157 1    
    69   33  158 1    
    70   34   35 am   BACKBONE|DICT|INTERRES
    71   34  159 1    
    72   35   36 2    
    73   35   37 1    
    74   37   38 1    
    75   37   39 1    
    76   37  160 1    
    77   38  161 1    
    78   38  162 1    
    79   38  163 1    
    80   39   40 am   BACKBONE|DICT|INTERRES
    81   39  164 1    
    82   40   41 2    
    83   40   42 1    
    84   42   43 1    
    85   42   44 1    
    86   42  165 1    
    87   43  166 1    
    88   43  167 1    
    89   43  168 1    
    90   44   45 am   BACKBONE|DICT|INTERRES
    91   44  169 1    
    92   45   46 2    
    93   45   47 1    
    94   47   48 1    
    95   47   49 1    
    96   47  170 1    
    97   48  171 1    
    98   48  172 1    
    99   48  173 1    
   100   49   50 am   BACKBONE|DICT|INTERRES
   101   49  174 1    
   102   50   51 2    
   103   50   52 1    
   104   52   53 1    
   105   52   54 1    
   106   52  175 1    
   107   53  176 1    
   108   53  177 1    
   109   53  178 1    
   110   54   55 am   BACKBONE|DICT|INTERRES
   111   54  179 1    
   112   55   56 2    
   113   55   57 1    
   114   57   58 1    
   115   57   59 1    
   116   57  180 1    
   117   58  181 1    
   118   58  182 1    
   119   58  183 1    
   120   59   60 am   BACKBONE|DICT|INTERRES
   121   59  184 1    
   122   60   61 2    
   123   60   62 1    
   124   62   63 1    
   125   62   64 1    
   126   62  185 1    
   127   63  186 1    
   128   63  187 1    
   129   63  188 1    
   130   64   65 am   BACKBONE|DICT|INTERRES
   131   64  189 1    
   132   65   66 2    
   133   67   68 2    
   134   67   69 am   BACKBONE|DICT|INTERRES
   135   69   70 1    
   136   69  190 1    
   137   70   71 1    
   138   70   72 1    
   139   70  191 1    
   140   71  192 1    
   141   71  193 1    
   142   71  194 1    
   143   72   73 2    
   144   72   74 am   BACKBONE|DICT|INTERRES
   145   74   75 1    
   146   74  195 1    
   147   75   76 1    
   148   75   77 1    
   149   75  196 1    
   150   76  197 1    
   151   76  198 1    
   152   76  199 1    
   153   77   78 2    
   154   77   79 am   BACKBONE|DICT|INTERRES
   155   79   80 1    
   156   79  200 1    
   157   80   81 1    
   158   80   82 1    
   159   80  201 1    
   160   81  202 1    
   161   81  203 1    
   162   81  204 1    
   163   82   83 2    
   164   82   84 am   BACKBONE|DICT|INTERRES
   165   84   85 1    
   166   84  205 1    
   167   85   86 1    
   168   85   87 1    
   169   85  206 1    
   170   86  207 1    
   171   86  208 1    
   172   86  209 1    
   173   87   88 2    
   174   87   89 am   BACKBONE|DICT|INTERRES
   175   89   90 1    
   176   89  210 1    
   177   90   91 1    
   178   90   92 1    
   179   90  211 1    
   180   91  212 1    
   181   91  213 1    
   182   91  214 1    
   183   92   93 2    
   184   92   94 am   BACKBONE|DICT|INTERRES
   185   94   95 1    
   186   94  215 1    
   187   95   96 1    
   188   95   97 1    
   189   95  216 1    
   190   96  217 1    
   191   96  218 1    
   192   96  219 1    
   193   97   98 2    
   194   97   99 am   BACKBONE|DICT|INTERRES
   195   99  100 1    
   196   99  220 1    
   197  100  101 1    
   198  100  102 1    
   199  100  221 1    
   200  101  222 1    
   201  101  223 1    
   202  101  224 1    
   203  102  103 2    
   204  102  104 am   BACKBONE|DICT|INTERRES
   205  104  105 1    
   206  104  225 1    
   207  105  106 1    
   208  105  107 1    
   209  105  226 1    
   210  106  227 1    
   211  106  228 1    
   212  106  229 1    
   213  107  108 2    
   214  107  109 am   BACKBONE|DICT|INTERRES
   215  109  110 1    
   216  109  230 1    
   217  110  111 1    
   218  110  112 1    
   219  110  231 1    
   220  111  232 1    
   221  111  233 1    
   222  111  234 1    
   223  112  113 2    
   224  112  114 am   BACKBONE|DICT|INTERRES
   225  114  115 1    
   226  114  235 1    
   227  115  116 1    
   228  115  117 1    
   229  115  236 1    
   230  116  237 1    
   231  116  238 1    
   232  116  239 1    
   233  117  118 2    
   234  117  119 am   BACKBONE|DICT|INTERRES
   235  119  120 1    
   236  119  240 1    
   237  120  121 1    
   238  120  124 1    
   239  120  241 1    
   240  121  122 am   BACKBONE|DICT|INTERRES
   241  121  123 2    
   242  122  242 1    
   243  122  243 1    
   244  124  125 1    
   245  124  244 1    
   246  124  245 1    
   247  125  126 1    
   248  126  246 1    
   249  126  247 1    
@<TRIPOS>SUBSTRUCTURE
     1 UNK         1 GROUP             0       ****    0 ROOT    
