@<TRIPOS>MOLECULE
3R540
247   249    1
SMALL
USER_CHARGES


@<TRIPOS>ATOM
      1 CA         -0.4465  -13.2212  -48.0559 C.3       0 UNK        -0.1800 
      2 C           1.0342  -13.2807  -48.4025 C.2       0 UNK         0.5000 
      3 O           1.7051  -12.2497  -48.3894 O.2       0 UNK        -0.5000 
      4 N           1.5467  -14.4830  -48.6969 N.am      1 UNK        -0.5000 
      5 CA          2.9291  -14.7591  -49.1158 C.3       1 UNK         0.1400 
      6 C6          3.1227  -16.2484  -49.5011 C.3       23 UNK        -0.0398 
      7 S7          2.6760  -17.4166  -48.1656 S.3       23 UNK        -0.2404 
      8 C8          2.4274  -18.9625  -49.0966 C.3       23 UNK        -0.0205 
      9 C9          1.1887  -18.9397  -49.9807 C.ar      23 UNK        -0.0193 
     10 C10         1.2888  -19.2831  -51.3324 C.ar      23 UNK        -0.1150 
     11 C11         0.1497  -19.3189  -52.1406 C.ar      23 UNK        -0.0193 
     12 C12        -1.0948  -19.0056  -51.5886 C.ar      23 UNK        -0.1150 
     13 C13        -1.2094  -18.6585  -50.2411 C.ar      23 UNK        -0.0193 
     14 C14        -0.0629  -18.6224  -49.4425 C.ar      23 UNK        -0.1150 
     15 C15        -2.5745  -18.3314  -49.6565 C.3       23 UNK        -0.0205 
     16 S16        -3.3784  -19.8094  -48.9600 S.3       23 UNK        -0.2404 
     17 C17        -2.5049  -19.9880  -47.3713 C.3       23 UNK        -0.0398 
     18 CA         -1.4225  -21.0965  -47.3894 C.3       11 UNK         0.1400 
     19 N          -0.3554  -20.8343  -46.4120 N.am      11 UNK        -0.5000 
     20 C           0.7452  -21.5786  -46.2242 C.2       10 UNK         0.5000 
     21 O           0.9974  -22.5885  -46.8775 O.2       10 UNK        -0.5000 
     22 CA          1.6886  -21.1780  -45.0734 C.3       10 UNK         0.1400 
     23 CB          2.6046  -20.0125  -45.4678 C.3       10 UNK        -0.1800 
     24 N           0.9528  -20.8364  -43.8585 N.am      10 UNK        -0.5000 
     25 C           0.2602  -21.7195  -43.1259 C.2       9 UNK         0.5000 
     26 O           0.2521  -22.9307  -43.3437 O.2       9 UNK        -0.5000 
     27 CA         -0.6051  -21.1476  -41.9888 C.3       9 UNK         0.1400 
     28 CB          0.2070  -21.0097  -40.6921 C.3       9 UNK        -0.1800 
     29 N          -1.1915  -19.8542  -42.3421 N.am      9 UNK        -0.5000 
     30 C          -2.1359  -19.6826  -43.2781 C.2       8 UNK         0.5000 
     31 O          -2.6508  -20.6061  -43.9100 O.2       8 UNK        -0.5000 
     32 CA         -2.5268  -18.2281  -43.5962 C.3       8 UNK         0.1400 
     33 CB         -3.5521  -17.7036  -42.5806 C.3       8 UNK        -0.1800 
     34 N          -1.3645  -17.3369  -43.6283 N.am      8 UNK        -0.5000 
     35 C          -0.4108  -17.3888  -44.5710 C.2       7 UNK         0.5000 
     36 O          -0.4348  -18.1730  -45.5147 O.2       7 UNK        -0.5000 
     37 CA          0.7929  -16.4420  -44.4311 C.3       7 UNK         0.1400 
     38 CB          0.5059  -15.1309  -45.1734 C.3       7 UNK        -0.1800 
     39 N           1.1476  -16.1586  -43.0421 N.am      7 UNK        -0.5000 
     40 C           1.5096  -17.0858  -42.1411 C.2       6 UNK         0.5000 
     41 O           1.6491  -18.2776  -42.4183 O.2       6 UNK        -0.5000 
     42 CA          1.7023  -16.6268  -40.6801 C.3       6 UNK         0.1400 
     43 CB          3.1979  -16.4695  -40.3686 C.3       6 UNK        -0.1800 
     44 N           1.0178  -15.3736  -40.3509 N.am      6 UNK        -0.5000 
     45 C          -0.2986  -15.1398  -40.4610 C.2       5 UNK         0.5000 
     46 O          -1.1208  -16.0052  -40.7648 O.2       5 UNK        -0.5000 
     47 CA         -0.7655  -13.6802  -40.2717 C.3       5 UNK         0.1400 
     48 CB         -1.3353  -13.4812  -38.8594 C.3       5 UNK        -0.1800 
     49 N           0.2677  -12.6625  -40.5190 N.am      5 UNK        -0.5000 
     50 C           0.9673  -12.5133  -41.6537 C.2       4 UNK         0.5000 
     51 O           0.8485  -13.2620  -42.6263 O.2       4 UNK        -0.5000 
     52 CA          2.0151  -11.3827  -41.6659 C.3       4 UNK         0.1400 
     53 CB          3.1796  -11.7195  -40.7194 C.3       4 UNK        -0.1800 
     54 N           2.5671  -11.1656  -43.0012 N.am      4 UNK        -0.5000 
     55 C           1.9387  -10.5960  -44.0344 C.2       3 UNK         0.5000 
     56 O           0.8317  -10.0627  -43.9478 O.2       3 UNK        -0.5000 
     57 CA          2.6577  -10.6367  -45.4001 C.3       3 UNK         0.1400 
     58 CB          3.6977   -9.5066  -45.5189 C.3       3 UNK        -0.1800 
     59 N           3.2373  -11.9433  -45.7504 N.am      3 UNK        -0.5000 
     60 C           4.2475  -12.6121  -45.1705 C.2       2 UNK         0.5000 
     61 O           4.8987  -12.1722  -44.2220 O.2       2 UNK        -0.5000 
     62 CA          4.5663  -14.0267  -45.6953 C.3       2 UNK         0.1400 
     63 CB          4.4274  -15.0628  -44.5663 C.3       2 UNK        -0.1800 
     64 N           3.7000  -14.4274  -46.8059 N.am      2 UNK        -0.5000 
     65 C           4.0021  -14.2942  -48.1038 C.2       1 UNK         0.5000 
     66 O           5.0593  -13.8144  -48.5156 O.2       1 UNK        -0.5000 
     67 C          -2.0660  -22.4864  -47.2135 C.2       11 UNK         0.5000 
     68 O          -2.3469  -23.1640  -48.2044 O.2       11 UNK        -0.5000 
     69 N          -2.2379  -22.9111  -45.9545 N.am      12 UNK        -0.5000 
     70 CA         -2.7394  -24.2324  -45.5728 C.3       12 UNK         0.1400 
     71 CB         -2.9871  -24.2583  -44.0574 C.3       12 UNK        -0.1800 
     72 C          -1.8314  -25.4052  -46.0042 C.2       12 UNK         0.5000 
     73 O          -2.3134  -26.5367  -46.0531 O.2       12 UNK        -0.5000 
     74 N          -0.5606  -25.1266  -46.3260 N.am      13 UNK        -0.5000 
     75 CA          0.3929  -26.0892  -46.8734 C.3       13 UNK         0.1400 
     76 CB          1.7171  -25.9835  -46.0997 C.3       13 UNK        -0.1800 
     77 C           0.6214  -25.8550  -48.3774 C.2       13 UNK         0.5000 
     78 O           0.6027  -26.8164  -49.1458 O.2       13 UNK        -0.5000 
     79 N           0.8476  -24.5926  -48.7689 N.am      14 UNK        -0.5000 
     80 CA          1.2159  -24.1798  -50.1239 C.3       14 UNK         0.1400 
     81 CB          1.7041  -22.7210  -50.0998 C.3       14 UNK        -0.1800 
     82 C           0.0783  -24.3564  -51.1417 C.2       14 UNK         0.5000 
     83 O           0.2732  -25.0132  -52.1653 O.2       14 UNK        -0.5000 
     84 N          -1.0854  -23.7714  -50.8363 N.am      15 UNK        -0.5000 
     85 CA         -2.2780  -23.8264  -51.6817 C.3       15 UNK         0.1400 
     86 CB         -3.0218  -22.4864  -51.5685 C.3       15 UNK        -0.1800 
     87 C          -3.2159  -24.9764  -51.2775 C.2       15 UNK         0.5000 
     88 O          -4.0705  -25.3597  -52.0761 O.2       15 UNK        -0.5000 
     89 N          -3.0529  -25.4742  -50.0407 N.am      16 UNK        -0.5000 
     90 CA         -3.9994  -26.3033  -49.2868 C.3       16 UNK         0.1400 
     91 CB         -4.2652  -27.6575  -49.9779 C.3       16 UNK        -0.1800 
     92 C          -5.2776  -25.5012  -48.9598 C.2       16 UNK         0.5000 
     93 O          -6.3882  -26.0103  -49.1191 O.2       16 UNK        -0.5000 
     94 N          -5.0595  -24.2479  -48.5266 N.am      17 UNK        -0.5000 
     95 CA         -6.0028  -23.1346  -48.3757 C.3       17 UNK         0.1400 
     96 CB         -7.2638  -23.5185  -47.5776 C.3       17 UNK        -0.1800 
     97 C          -6.3425  -22.4982  -49.7374 C.2       17 UNK         0.5000 
     98 O          -6.3557  -23.1815  -50.7624 O.2       17 UNK        -0.5000 
     99 N          -6.5663  -21.1783  -49.7246 N.am      18 UNK        -0.5000 
    100 CA        -6.7067  -20.3474  -50.9202 C.3       18 UNK         0.1400 
    101 CB        -6.7931  -18.8696  -50.5058 C.3       18 UNK        -0.1800 
    102 C         -7.9142  -20.7280  -51.7971 C.2       18 UNK         0.5000 
    103 O         -9.0302  -20.8535  -51.2878 O.2       18 UNK        -0.5000 
    104 N         -7.6657  -20.8509  -53.1024 N.am      19 UNK        -0.5000 
    105 CA        -8.6563  -21.0862  -54.1461 C.3       19 UNK         0.1400 
    106 CB        -8.7770  -22.5978  -54.4142 C.3       19 UNK        -0.1800 
    107 C         -8.1898  -20.2821  -55.3662 C.2       19 UNK         0.5000 
    108 O         -7.6508  -20.8549  -56.3139 O.2       19 UNK        -0.5000 
    109 N         -8.3202  -18.9496  -55.2555 N.am      20 UNK        -0.5000 
    110 CA        -7.6419  -17.9275  -56.0658 C.3       20 UNK         0.1400 
    111 CB        -8.0559  -17.9973  -57.5512 C.3       20 UNK        -0.1800 
    112 C         -6.1188  -18.0159  -55.8401 C.2       20 UNK         0.5000 
    113 O         -5.3507  -18.2443  -56.7777 O.2       20 UNK        -0.5000 
    114 N         -5.7341  -17.9167  -54.5569 N.am      21 UNK        -0.5000 
    115 CA        -4.4153  -18.2429  -54.0077 C.3       21 UNK         0.1400 
    116 CB        -3.3497  -17.2274  -54.4805 C.3       21 UNK        -0.1800 
    117 C         -4.0792  -19.7213  -54.2964 C.2       21 UNK         0.5000 
    118 O         -4.8888  -20.5859  -53.9559 O.2       21 UNK        -0.5000 
    119 N         -2.9337  -19.9782  -54.9351 N.am      22 UNK        -0.5000 
    120 CA        -2.5242  -21.3014  -55.4331 C.3       22 UNK         0.1400 
    121 C         -3.1799  -21.6938  -56.7931 C.2       22 UNK         0.5000 
    122 N         -3.9981  -20.8579  -57.4229 N.am      22 UNK        -0.7600 
    123 O         -2.9477  -22.7928  -57.2892 O.2       22 UNK        -0.5000 
    124 C124       -0.9771  -21.4304  -55.4933 C.3       23 UNK        -0.0398 
    125 S125       -0.2158  -21.4509  -53.8358 S.3       23 UNK        -0.2404 
    126 C126        0.2507  -19.7088  -53.6056 C.3       23 UNK        -0.0205 
    127 H127       -0.5783  -12.8645  -47.0343 H         1 UNK         0.0600 
    128 H128       -0.9239  -14.1976  -48.1420 H         1 UNK         0.0600 
    129 H129       -0.9603  -12.5327  -48.7267 H         1 UNK         0.0600 
    130 H130        0.9433  -15.2928  -48.6777 H         1 UNK         0.3000 
    131 H131        3.0942  -14.1703  -50.0206 H         1 UNK         0.0600 
    132 H132        4.1523  -16.4404  -49.8083 H         1 UNK         0.0800 
    133 H133        2.5097  -16.4692  -50.3759 H         1 UNK         0.0800 
    134 H134        3.3243  -19.1708  -49.6820 H         1 UNK         0.0800 
    135 H135        2.3223  -19.7883  -48.3940 H         1 UNK         0.0800 
    136 H136        2.2502  -19.5410  -51.7535 H         1 UNK         0.1150 
    137 H137       -1.9791  -19.0508  -52.2060 H         1 UNK         0.1150 
    138 H138       -0.1426  -18.3645  -48.3957 H         1 UNK         0.1150 
    139 H139       -2.4895  -17.5517  -48.8981 H         1 UNK         0.0800 
    140 H140       -3.2193  -17.9216  -50.4352 H         1 UNK         0.0800 
    141 H141       -3.2387  -20.1575  -46.5812 H         1 UNK         0.0800 
    142 H142       -2.0614  -19.0234  -47.1401 H         1 UNK         0.0800 
    143 H143       -0.9387  -21.0939  -48.3676 H         1 UNK         0.0600 
    144 H144       -0.4487  -19.9754  -45.8749 H         1 UNK         0.3000 
    145 H145        2.3229  -22.0382  -44.8486 H         1 UNK         0.0600 
    146 H146        3.2380  -19.7066  -44.6349 H         1 UNK         0.0600 
    147 H147        3.2644  -20.2980  -46.2872 H         1 UNK         0.0600 
    148 H148        2.0345  -19.1425  -45.7894 H         1 UNK         0.0600 
    149 H149        0.9627  -19.8650  -43.5682 H         1 UNK         0.3000 
    150 H150       -1.4204  -21.8510  -41.8061 H         1 UNK         0.0600 
    151 H151        0.6163  -21.9735  -40.3866 H         1 UNK         0.0600 
    152 H152       -0.4150  -20.6470  -39.8737 H         1 UNK         0.0600 
    153 H153        1.0446  -20.3217  -40.8078 H         1 UNK         0.0600 
    154 H154       -0.7931  -19.0377  -41.9018 H         1 UNK         0.3000 
    155 H155       -2.9921  -18.2162  -44.5841 H         1 UNK         0.0600 
    156 H156       -3.8663  -16.6889  -42.8256 H         1 UNK         0.0600 
    157 H157       -3.1491  -17.6938  -41.5672 H         1 UNK         0.0600 
    158 H158       -4.4461  -18.3283  -42.5720 H         1 UNK         0.0600 
    159 H159       -1.2594  -16.6932  -42.8530 H         1 UNK         0.3000 
    160 H160        1.6536  -16.9213  -44.9011 H         1 UNK         0.0600 
    161 H161        1.3478  -14.4423  -45.1225 H         1 UNK         0.0600 
    162 H162       -0.3638  -14.6179  -44.7607 H         1 UNK         0.0600 
    163 H163        0.3008  -15.3298  -46.2245 H         1 UNK         0.0600 
    164 H164        1.0512  -15.1911  -42.7456 H         1 UNK         0.3000 
    165 H165        1.2931  -17.4083  -40.0369 H         1 UNK         0.0600 
    166 H166        3.3600  -16.2264  -39.3183 H         1 UNK         0.0600 
    167 H167        3.7395  -17.3940  -40.5739 H         1 UNK         0.0600 
    168 H168        3.6528  -15.6820  -40.9712 H         1 UNK         0.0600 
    169 H169        1.6090  -14.5952  -40.1015 H         1 UNK         0.3000 
    170 H170       -1.5682  -13.5079  -40.9914 H         1 UNK         0.0600 
    171 H171       -2.1259  -14.2034  -38.6507 H         1 UNK         0.0600 
    172 H172       -0.5672  -13.6053  -38.0950 H         1 UNK         0.0600 
    173 H173       -1.7682  -12.4873  -38.7440 H         1 UNK         0.0600 
    174 H174        0.4384  -12.0175  -39.7608 H         1 UNK         0.3000 
    175 H175        1.5344  -10.4617  -41.3305 H         1 UNK         0.0600 
    176 H176        3.6776  -12.6459  -41.0097 H         1 UNK         0.0600 
    177 H177        3.9274  -10.9260  -40.7192 H         1 UNK         0.0600 
    178 H178        2.8378  -11.8372  -39.6905 H         1 UNK         0.0600 
    179 H179        3.4717  -11.5864  -43.1948 H         1 UNK         0.3000 
    180 H180        1.8927  -10.4507  -46.1557 H         1 UNK         0.0600 
    181 H181        4.1562   -9.4966  -46.5078 H         1 UNK         0.0600 
    182 H182        4.4939   -9.6020  -44.7803 H         1 UNK         0.0600 
    183 H183        3.2304   -8.5330  -45.3673 H         1 UNK         0.0600 
    184 H184        2.7919  -12.3860  -46.5452 H         1 UNK         0.3000 
    185 H185        5.6080  -14.0257  -46.0226 H         1 UNK         0.0600 
    186 H186        4.5821  -16.0775  -44.9341 H         1 UNK         0.0600 
    187 H187        5.1655  -14.8867  -43.7830 H         1 UNK         0.0600 
    188 H188        3.4454  -15.0197  -44.0975 H         1 UNK         0.0600 
    189 H189        2.8144  -14.8472  -46.5666 H         1 UNK         0.3000 
    190 H190       -2.0156  -22.2753  -45.1971 H         1 UNK         0.3000 
    191 H191       -3.7016  -24.3731  -46.0674 H         1 UNK         0.0600 
    192 H192       -3.4470  -25.1994  -43.7536 H         1 UNK         0.0600 
    193 H193       -3.6583  -23.4551  -43.7522 H         1 UNK         0.0600 
    194 H194       -2.0600  -24.1525  -43.4952 H         1 UNK         0.0600 
    195 H195       -0.2427  -24.1668  -46.2662 H         1 UNK         0.3000 
    196 H196        0.0200  -27.1083  -46.7512 H         1 UNK         0.0600 
    197 H197        2.1529  -24.9863  -46.1710 H         1 UNK         0.0600 
    198 H198        1.5716  -26.2072  -45.0428 H         1 UNK         0.0600 
    199 H199        2.4518  -26.6918  -46.4845 H         1 UNK         0.0600 
    200 H200        0.8746  -23.8598  -48.0612 H         1 UNK         0.3000 
    201 H201        2.0501  -24.8058  -50.4477 H         1 UNK         0.0600 
    202 H202        0.9322  -22.0405  -49.7388 H         1 UNK         0.0600 
    203 H203        1.9909  -22.3874  -51.0980 H         1 UNK         0.0600 
    204 H204        2.5751  -22.6064  -49.4546 H         1 UNK         0.0600 
    205 H205       -1.1831  -23.2859  -49.9532 H         1 UNK         0.3000 
    206 H206       -1.9938  -23.9694  -52.7265 H         1 UNK         0.0600 
    207 H207       -2.3846  -21.6468  -51.8416 H         1 UNK         0.0600 
    208 H208       -3.8890  -22.4663  -52.2292 H         1 UNK         0.0600 
    209 H209       -3.3833  -22.3134  -50.5557 H         1 UNK         0.0600 
    210 H210       -2.3119  -25.0603  -49.4913 H         1 UNK         0.3000 
    211 H211       -3.5218  -26.5212  -48.3334 H         1 UNK         0.0600 
    212 H212       -4.8343  -28.3183  -49.3234 H         1 UNK         0.0600 
    213 H213       -3.3320  -28.1655  -50.2209 H         1 UNK         0.0600 
    214 H214       -4.8377  -27.5451  -50.8986 H         1 UNK         0.0600 
    215 H215       -4.0877  -23.9563  -48.4777 H         1 UNK         0.3000 
    216 H216       -5.4610  -22.3873  -47.7933 H         1 UNK         0.0600 
    217 H217       -7.8385  -22.6298  -47.3151 H         1 UNK         0.0600 
    218 H218       -7.9266  -24.1698  -48.1475 H         1 UNK         0.0600 
    219 H219       -7.0058  -24.0260  -46.6481 H         1 UNK         0.0600 
    220 H220       -6.5642  -20.6879  -48.8428 H         1 UNK         0.3000 
    221 H221       -5.7925  -20.4785  -51.5015 H         1 UNK         0.0600 
    222 H222       -5.9066  -18.5560  -49.9558 H         1 UNK         0.0600 
    223 H223       -7.6629  -18.6801  -49.8756 H         1 UNK         0.0600 
    224 H224       -6.8746  -18.2226  -51.3799 H         1 UNK         0.0600 
    225 H225       -6.7070  -20.7524  -53.4342 H         1 UNK         0.3000 
    226 H226       -9.6328  -20.7030  -53.8424 H         1 UNK         0.0600 
    227 H227       -7.8178  -23.0356  -54.6940 H         1 UNK         0.0600 
    228 H228       -9.1372  -23.1250  -53.5306 H         1 UNK         0.0600 
    229 H229       -9.4810  -22.7958  -55.2232 H         1 UNK         0.0600 
    230 H230       -8.7919  -18.5987  -54.4336 H         1 UNK         0.3000 
    231 H231       -7.9618  -16.9571  -55.6829 H         1 UNK         0.0600 
    232 H232       -7.7083  -18.9095  -58.0363 H         1 UNK         0.0600 
    233 H233       -7.6366  -17.1580  -58.1068 H         1 UNK         0.0600 
    234 H234       -9.1393  -17.9514  -57.6604 H         1 UNK         0.0600 
    235 H235       -6.4524  -17.7422  -53.8700 H         1 UNK         0.3000 
    236 H236       -4.4971  -18.1558  -52.9232 H         1 UNK         0.0600 
    237 H237       -3.1833  -17.2681  -55.5573 H         1 UNK         0.0600 
    238 H238       -3.6528  -16.2093  -54.2361 H         1 UNK         0.0600 
    239 H239       -2.3923  -17.3980  -53.9876 H         1 UNK         0.0600 
    240 H240       -2.3582  -19.2010  -55.2206 H         1 UNK         0.3000 
    241 H241       -2.8825  -22.0507  -54.7242 H         1 UNK         0.0600 
    242 H242       -4.4145  -21.1478  -58.2930 H         1 UNK         0.3800 
    243 H243       -4.2574  -19.9601  -57.0300 H         1 UNK         0.3800 
    244 H244       -0.5398  -20.6362  -56.1002 H         1 UNK         0.0800 
    245 H245       -0.6874  -22.3669  -55.9730 H         1 UNK         0.0800 
    246 H246        1.2642  -19.5559  -53.9792 H         1 UNK         0.0800 
    247 H247       -0.3939  -19.0568  -54.1944 H         1 UNK         0.0800 
@<TRIPOS>BOND
     1    1    2 1    
     2    1  127 1    
     3    1  128 1    
     4    1  129 1    
     5    2    3 2    
     6    2    4 am   BACKBONE|DICT|INTERRES
     7    4    5 1    
     8    4  130 1    
     9    5    6 1    
    10    5   65 1    
    11    5  131 1    
    12    6    7 1    
    13    6  132 1    
    14    6  133 1    
    15    7    8 1    
    16    8    9 1    
    17    8  134 1    
    18    8  135 1    
    19    9   10 ar   
    20    9   14 ar   
    21   10   11 ar   
    22   10  136 1    
    23   11   12 ar   
    24   11  126 1    
    25   12   13 ar   
    26   12  137 1    
    27   13   14 ar   
    28   13   15 1    
    29   14  138 1    
    30   15   16 1    
    31   15  139 1    
    32   15  140 1    
    33   16   17 1    
    34   17   18 1    
    35   17  141 1    
    36   17  142 1    
    37   18   19 1    
    38   18   67 1    
    39   18  143 1    
    40   19   20 am   BACKBONE|DICT|INTERRES
    41   19  144 1    
    42   20   21 2    
    43   20   22 1    
    44   22   23 1    
    45   22   24 1    
    46   22  145 1    
    47   23  146 1    
    48   23  147 1    
    49   23  148 1    
    50   24   25 am   BACKBONE|DICT|INTERRES
    51   24  149 1    
    52   25   26 2    
    53   25   27 1    
    54   27   28 1    
    55   27   29 1    
    56   27  150 1    
    57   28  151 1    
    58   28  152 1    
    59   28  153 1    
    60   29   30 am   BACKBONE|DICT|INTERRES
    61   29  154 1    
    62   30   31 2    
    63   30   32 1    
    64   32   33 1    
    65   32   34 1    
    66   32  155 1    
    67   33  156 1    
    68   33  157 1    
    69   33  158 1    
    70   34   35 am   BACKBONE|DICT|INTERRES
    71   34  159 1    
    72   35   36 2    
    73   35   37 1    
    74   37   38 1    
    75   37   39 1    
    76   37  160 1    
    77   38  161 1    
    78   38  162 1    
    79   38  163 1    
    80   39   40 am   BACKBONE|DICT|INTERRES
    81   39  164 1    
    82   40   41 2    
    83   40   42 1    
    84   42   43 1    
    85   42   44 1    
    86   42  165 1    
    87   43  166 1    
    88   43  167 1    
    89   43  168 1    
    90   44   45 am   BACKBONE|DICT|INTERRES
    91   44  169 1    
    92   45   46 2    
    93   45   47 1    
    94   47   48 1    
    95   47   49 1    
    96   47  170 1    
    97   48  171 1    
    98   48  172 1    
    99   48  173 1    
   100   49   50 am   BACKBONE|DICT|INTERRES
   101   49  174 1    
   102   50   51 2    
   103   50   52 1    
   104   52   53 1    
   105   52   54 1    
   106   52  175 1    
   107   53  176 1    
   108   53  177 1    
   109   53  178 1    
   110   54   55 am   BACKBONE|DICT|INTERRES
   111   54  179 1    
   112   55   56 2    
   113   55   57 1    
   114   57   58 1    
   115   57   59 1    
   116   57  180 1    
   117   58  181 1    
   118   58  182 1    
   119   58  183 1    
   120   59   60 am   BACKBONE|DICT|INTERRES
   121   59  184 1    
   122   60   61 2    
   123   60   62 1    
   124   62   63 1    
   125   62   64 1    
   126   62  185 1    
   127   63  186 1    
   128   63  187 1    
   129   63  188 1    
   130   64   65 am   BACKBONE|DICT|INTERRES
   131   64  189 1    
   132   65   66 2    
   133   67   68 2    
   134   67   69 am   BACKBONE|DICT|INTERRES
   135   69   70 1    
   136   69  190 1    
   137   70   71 1    
   138   70   72 1    
   139   70  191 1    
   140   71  192 1    
   141   71  193 1    
   142   71  194 1    
   143   72   73 2    
   144   72   74 am   BACKBONE|DICT|INTERRES
   145   74   75 1    
   146   74  195 1    
   147   75   76 1    
   148   75   77 1    
   149   75  196 1    
   150   76  197 1    
   151   76  198 1    
   152   76  199 1    
   153   77   78 2    
   154   77   79 am   BACKBONE|DICT|INTERRES
   155   79   80 1    
   156   79  200 1    
   157   80   81 1    
   158   80   82 1    
   159   80  201 1    
   160   81  202 1    
   161   81  203 1    
   162   81  204 1    
   163   82   83 2    
   164   82   84 am   BACKBONE|DICT|INTERRES
   165   84   85 1    
   166   84  205 1    
   167   85   86 1    
   168   85   87 1    
   169   85  206 1    
   170   86  207 1    
   171   86  208 1    
   172   86  209 1    
   173   87   88 2    
   174   87   89 am   BACKBONE|DICT|INTERRES
   175   89   90 1    
   176   89  210 1    
   177   90   91 1    
   178   90   92 1    
   179   90  211 1    
   180   91  212 1    
   181   91  213 1    
   182   91  214 1    
   183   92   93 2    
   184   92   94 am   BACKBONE|DICT|INTERRES
   185   94   95 1    
   186   94  215 1    
   187   95   96 1    
   188   95   97 1    
   189   95  216 1    
   190   96  217 1    
   191   96  218 1    
   192   96  219 1    
   193   97   98 2    
   194   97   99 am   BACKBONE|DICT|INTERRES
   195   99  100 1    
   196   99  220 1    
   197  100  101 1    
   198  100  102 1    
   199  100  221 1    
   200  101  222 1    
   201  101  223 1    
   202  101  224 1    
   203  102  103 2    
   204  102  104 am   BACKBONE|DICT|INTERRES
   205  104  105 1    
   206  104  225 1    
   207  105  106 1    
   208  105  107 1    
   209  105  226 1    
   210  106  227 1    
   211  106  228 1    
   212  106  229 1    
   213  107  108 2    
   214  107  109 am   BACKBONE|DICT|INTERRES
   215  109  110 1    
   216  109  230 1    
   217  110  111 1    
   218  110  112 1    
   219  110  231 1    
   220  111  232 1    
   221  111  233 1    
   222  111  234 1    
   223  112  113 2    
   224  112  114 am   BACKBONE|DICT|INTERRES
   225  114  115 1    
   226  114  235 1    
   227  115  116 1    
   228  115  117 1    
   229  115  236 1    
   230  116  237 1    
   231  116  238 1    
   232  116  239 1    
   233  117  118 2    
   234  117  119 am   BACKBONE|DICT|INTERRES
   235  119  120 1    
   236  119  240 1    
   237  120  121 1    
   238  120  124 1    
   239  120  241 1    
   240  121  122 am   BACKBONE|DICT|INTERRES
   241  121  123 2    
   242  122  242 1    
   243  122  243 1    
   244  124  125 1    
   245  124  244 1    
   246  124  245 1    
   247  125  126 1    
   248  126  246 1    
   249  126  247 1    
@<TRIPOS>SUBSTRUCTURE
     1 UNK         1 GROUP             0       ****    0 ROOT    
