@<TRIPOS>MOLECULE
3R540
247   249    1
SMALL
USER_CHARGES


@<TRIPOS>ATOM
      1 CA         -1.5851  -10.7662  -51.4366 C.3       0 UNK        -0.1800 
      2 C          -0.1738  -11.1961  -51.0615 C.2       0 UNK         0.5000 
      3 O           0.6576  -10.3498  -50.7305 O.2       0 UNK        -0.5000 
      4 N           0.1008  -12.5036  -51.1194 N.am      1 UNK        -0.5000 
      5 CA          1.3644  -13.1186  -50.7082 C.3       1 UNK         0.1400 
      6 C6          1.4698  -14.5611  -51.2675 C.3       23 UNK        -0.0398 
      7 S7          3.1698  -15.2248  -51.2499 S.3       23 UNK        -0.2404 
      8 C8          2.9940  -16.7176  -52.2804 C.3       23 UNK        -0.0205 
      9 C9          2.3345  -17.8707  -51.5348 C.ar      23 UNK        -0.0193 
     10 C10         0.9673  -18.1255  -51.6900 C.ar      23 UNK        -0.1150 
     11 C11         0.3685  -19.2005  -51.0255 C.ar      23 UNK        -0.0193 
     12 C12         1.1484  -20.0326  -50.2224 C.ar      23 UNK        -0.1150 
     13 C13         2.5090  -19.7798  -50.0399 C.ar      23 UNK        -0.0193 
     14 C14         3.0990  -18.6992  -50.7040 C.ar      23 UNK        -0.1150 
     15 C15         3.3346  -20.6919  -49.1421 C.3       23 UNK        -0.0205 
     16 S16         3.3740  -20.1433  -47.4007 S.3       23 UNK        -0.2404 
     17 C17         1.6323  -20.2982  -46.8761 C.3       23 UNK        -0.0398 
     18 CA          1.1703  -21.7500  -46.6301 C.3       11 UNK         0.1400 
     19 N           1.8812  -22.3715  -45.5148 N.am      11 UNK        -0.5000 
     20 C           2.1467  -23.6789  -45.4136 C.2       10 UNK         0.5000 
     21 O           1.8719  -24.5047  -46.2841 O.2       10 UNK        -0.5000 
     22 CA          2.8280  -24.1474  -44.1129 C.3       10 UNK         0.1400 
     23 CB          4.3548  -24.1606  -44.2826 C.3       10 UNK        -0.1800 
     24 N           2.4842  -23.3282  -42.9480 N.am      10 UNK        -0.5000 
     25 C           1.2632  -23.2607  -42.4005 C.2       9 UNK         0.5000 
     26 O           0.2878  -23.8857  -42.8185 O.2       9 UNK        -0.5000 
     27 CA          1.0951  -22.2981  -41.2098 C.3       9 UNK         0.1400 
     28 CB          1.5163  -22.9856  -39.9024 C.3       9 UNK        -0.1800 
     29 N           1.8048  -21.0181  -41.3321 N.am      9 UNK        -0.5000 
     30 C           1.7092  -20.1613  -42.3578 C.2       8 UNK         0.5000 
     31 O           1.1273  -20.4137  -43.4130 O.2       8 UNK        -0.5000 
     32 CA          2.3199  -18.7649  -42.1588 C.3       8 UNK         0.1400 
     33 CB          3.1947  -18.3570  -43.3556 C.3       8 UNK        -0.1800 
     34 N           1.2413  -17.7925  -41.9920 N.am      8 UNK        -0.5000 
     35 C           0.4947  -17.6768  -40.8833 C.2       7 UNK         0.5000 
     36 O           0.7183  -18.3121  -39.8508 O.2       7 UNK        -0.5000 
     37 CA         -0.7071  -16.7094  -40.9441 C.3       7 UNK         0.1400 
     38 CB         -1.2026  -16.2662  -39.5516 C.3       7 UNK        -0.1800 
     39 N          -0.4791  -15.5523  -41.8125 N.am      7 UNK        -0.5000 
     40 C           0.4427  -14.5862  -41.6724 C.2       6 UNK         0.5000 
     41 O           1.2192  -14.5135  -40.7192 O.2       6 UNK        -0.5000 
     42 CA          0.5274  -13.5268  -42.7910 C.3       6 UNK         0.1400 
     43 CB          1.9276  -13.5179  -43.4273 C.3       6 UNK        -0.1800 
     44 N          -0.4636  -13.7569  -43.8449 N.am      6 UNK        -0.5000 
     45 C          -1.6715  -13.1791  -43.9076 C.2       5 UNK         0.5000 
     46 O          -2.0592  -12.3206  -43.1150 O.2       5 UNK        -0.5000 
     47 CA         -2.6176  -13.6495  -45.0325 C.3       5 UNK         0.1400 
     48 CB         -2.5575  -12.6794  -46.2225 C.3       5 UNK        -0.1800 
     49 N          -2.3319  -15.0037  -45.5133 N.am      5 UNK        -0.5000 
     50 C          -2.4978  -16.1298  -44.8034 C.2       4 UNK         0.5000 
     51 O          -2.9391  -16.1569  -43.6555 O.2       4 UNK        -0.5000 
     52 CA         -2.0113  -17.4350  -45.4640 C.3       4 UNK         0.1400 
     53 CB         -3.1160  -18.0393  -46.3439 C.3       4 UNK        -0.1800 
     54 N          -0.8038  -17.2441  -46.2717 N.am      4 UNK        -0.5000 
     55 C           0.3693  -16.7923  -45.8046 C.2       3 UNK         0.5000 
     56 O           0.5688  -16.5324  -44.6170 O.2       3 UNK        -0.5000 
     57 CA          1.4867  -16.5361  -46.8251 C.3       3 UNK         0.1400 
     58 CB          1.0952  -16.8633  -48.2760 C.3       3 UNK        -0.1800 
     59 N           1.8227  -15.1220  -46.8014 N.am      3 UNK        -0.5000 
     60 C           3.0524  -14.6075  -46.8392 C.2       2 UNK         0.5000 
     61 O           4.0838  -15.2540  -46.6493 O.2       2 UNK        -0.5000 
     62 CA          3.1144  -13.1241  -47.2611 C.3       2 UNK         0.1400 
     63 CB          4.5042  -12.5013  -47.0431 C.3       2 UNK        -0.1800 
     64 N           2.7455  -12.9866  -48.6745 N.am      2 UNK        -0.5000 
     65 C           1.5029  -13.0885  -49.1686 C.2       1 UNK         0.5000 
     66 O           0.4997  -13.2051  -48.4570 O.2       1 UNK        -0.5000 
     67 C          -0.3495  -21.7733  -46.3865 C.2       11 UNK         0.5000 
     68 O          -1.1093  -22.0000  -47.3262 O.2       11 UNK        -0.5000 
     69 N          -0.7639  -21.5263  -45.1354 N.am      12 UNK        -0.5000 
     70 CA         -2.1584  -21.4628  -44.7002 C.3       12 UNK         0.1400 
     71 CB         -2.2160  -20.9760  -43.2450 C.3       12 UNK        -0.1800 
     72 C          -2.9168  -22.7909  -44.8577 C.2       12 UNK         0.5000 
     73 O          -4.1234  -22.7570  -45.0996 O.2       12 UNK        -0.5000 
     74 N          -2.1977  -23.9185  -44.7453 N.am      13 UNK        -0.5000 
     75 CA         -2.6656  -25.2917  -44.9486 C.3       13 UNK         0.1400 
     76 CB         -1.4648  -26.2431  -44.8163 C.3       13 UNK        -0.1800 
     77 C          -3.3828  -25.4763  -46.3020 C.2       13 UNK         0.5000 
     78 O          -2.7263  -25.6195  -47.3361 O.2       13 UNK        -0.5000 
     79 N          -4.7214  -25.3897  -46.2644 N.am      14 UNK        -0.5000 
     80 CA         -5.6563  -25.4028  -47.3966 C.3       14 UNK         0.1400 
     81 CB         -5.6929  -26.8050  -48.0408 C.3       14 UNK        -0.1800 
     82 C          -5.3986  -24.2893  -48.4379 C.2       14 UNK         0.5000 
     83 O          -5.7630  -24.4600  -49.6013 O.2       14 UNK        -0.5000 
     84 N          -4.7375  -23.1948  -48.0247 N.am      15 UNK        -0.5000 
     85 CA         -4.1981  -22.1198  -48.8710 C.3       15 UNK         0.1400 
     86 CB         -5.3336  -21.2145  -49.3902 C.3       15 UNK        -0.1800 
     87 C          -3.2931  -22.6595  -50.0034 C.2       15 UNK         0.5000 
     88 O          -3.4413  -22.2559  -51.1583 O.2       15 UNK        -0.5000 
     89 N          -2.4235  -23.6198  -49.6499 N.am      16 UNK        -0.5000 
     90 CA         -1.5353  -24.3909  -50.5257 C.3       16 UNK         0.1400 
     91 CB         -0.3981  -23.5066  -51.0724 C.3       16 UNK        -0.1800 
     92 C          -2.3050  -25.1495  -51.6273 C.2       16 UNK         0.5000 
     93 O          -1.9149  -25.1173  -52.7954 O.2       16 UNK        -0.5000 
     94 N          -3.3991  -25.8065  -51.2143 N.am      17 UNK        -0.5000 
     95 CA         -4.3825  -26.5096  -52.0439 C.3       17 UNK         0.1400 
     96 CB         -3.7498  -27.7217  -52.7599 C.3       17 UNK        -0.1800 
     97 C          -5.1256  -25.5475  -52.9943 C.2       17 UNK         0.5000 
     98 O          -5.1908  -25.7861  -54.2018 O.2       17 UNK        -0.5000 
     99 N          -5.6772  -24.4779  -52.4037 N.am      18 UNK        -0.5000 
    100 CA        -6.4719  -23.4154  -53.0227 C.3       18 UNK         0.1400 
    101 CB        -7.8384  -23.9643  -53.4825 C.3       18 UNK        -0.1800 
    102 C         -5.7183  -22.6587  -54.1351 C.2       18 UNK         0.5000 
    103 O         -6.2565  -22.4586  -55.2270 O.2       18 UNK        -0.5000 
    104 N         -4.4858  -22.2279  -53.8376 N.am      19 UNK        -0.5000 
    105 CA        -3.6247  -21.4584  -54.7364 C.3       19 UNK         0.1400 
    106 CB        -2.1611  -21.6386  -54.3003 C.3       19 UNK        -0.1800 
    107 C         -4.0545  -19.9777  -54.7857 C.2       19 UNK         0.5000 
    108 O         -3.3541  -19.1071  -54.2654 O.2       19 UNK        -0.5000 
    109 N         -5.2367  -19.7305  -55.3711 N.am      20 UNK        -0.5000 
    110 CA        -5.8900  -18.4271  -55.5681 C.3       20 UNK         0.1400 
    111 CB        -5.1139  -17.5960  -56.6105 C.3       20 UNK        -0.1800 
    112 C         -6.1280  -17.6520  -54.2526 C.2       20 UNK         0.5000 
    113 O         -6.0525  -16.4211  -54.2341 O.2       20 UNK        -0.5000 
    114 N         -6.3493  -18.4008  -53.1594 N.am      21 UNK        -0.5000 
    115 CA        -6.4532  -17.9401  -51.7670 C.3       21 UNK         0.1400 
    116 CB        -7.7552  -17.1390  -51.5616 C.3       21 UNK        -0.1800 
    117 C         -5.2035  -17.1748  -51.2684 C.2       21 UNK         0.5000 
    118 O         -5.2991  -16.4059  -50.3108 O.2       21 UNK        -0.5000 
    119 N         -4.0628  -17.3893  -51.9388 N.am      22 UNK        -0.5000 
    120 CA        -2.7860  -16.6864  -51.7524 C.3       22 UNK         0.1400 
    121 C         -2.8099  -15.1796  -52.1510 C.2       22 UNK         0.5000 
    122 N         -3.7832  -14.7158  -52.9276 N.am      22 UNK        -0.7600 
    123 O         -1.9140  -14.4240  -51.7836 O.2       22 UNK        -0.5000 
    124 C124       -2.1335  -16.9369  -50.3632 C.3       23 UNK        -0.0398 
    125 S125       -2.0858  -18.6889  -49.8396 S.3       23 UNK        -0.2404 
    126 C126       -1.1176  -19.4811  -51.1626 C.3       23 UNK        -0.0205 
    127 H127       -2.2078  -11.6179  -51.7117 H         1 UNK         0.0600 
    128 H128       -1.5568  -10.0786  -52.2818 H         1 UNK         0.0600 
    129 H129       -2.0579  -10.2578  -50.5964 H         1 UNK         0.0600 
    130 H130       -0.6438  -13.1553  -51.3632 H         1 UNK         0.3000 
    131 H131        2.1714  -12.5218  -51.1389 H         1 UNK         0.0600 
    132 H132        0.8072  -15.2405  -50.7331 H         1 UNK         0.0800 
    133 H133        1.1309  -14.5723  -52.3046 H         1 UNK         0.0800 
    134 H134        3.9861  -17.0276  -52.6119 H         1 UNK         0.0800 
    135 H135        2.4375  -16.4777  -53.1876 H         1 UNK         0.0800 
    136 H136        0.3706  -17.4871  -52.3254 H         1 UNK         0.1150 
    137 H137        0.6841  -20.8650  -49.7142 H         1 UNK         0.1150 
    138 H138        4.1537  -18.5015  -50.5745 H         1 UNK         0.1150 
    139 H139        2.9582  -21.7141  -49.1959 H         1 UNK         0.0800 
    140 H140        4.3597  -20.7343  -49.5129 H         1 UNK         0.0800 
    141 H141        0.9935  -19.8285  -47.6162 H         1 UNK         0.0800 
    142 H142        1.5083  -19.7051  -45.9696 H         1 UNK         0.0800 
    143 H143        1.3553  -22.3240  -47.5401 H         1 UNK         0.0600 
    144 H144        2.0920  -21.7685  -44.7298 H         1 UNK         0.3000 
    145 H145        2.4956  -25.1691  -43.9171 H         1 UNK         0.0600 
    146 H146        4.7483  -23.1592  -44.4622 H         1 UNK         0.0600 
    147 H147        4.8473  -24.5626  -43.3969 H         1 UNK         0.0600 
    148 H148        4.6482  -24.7848  -45.1277 H         1 UNK         0.0600 
    149 H149        3.2231  -22.7702  -42.5459 H         1 UNK         0.3000 
    150 H150        0.0327  -22.0637  -41.1325 H         1 UNK         0.0600 
    151 H151        0.9907  -23.9325  -39.7706 H         1 UNK         0.0600 
    152 H152        1.2837  -22.3646  -39.0370 H         1 UNK         0.0600 
    153 H153        2.5859  -23.1984  -39.8857 H         1 UNK         0.0600 
    154 H154        2.2832  -20.7044  -40.4997 H         1 UNK         0.3000 
    155 H155        2.9458  -18.7641  -41.2641 H         1 UNK         0.0600 
    156 H156        4.0230  -19.0537  -43.4886 H         1 UNK         0.0600 
    157 H157        3.6216  -17.3644  -43.2112 H         1 UNK         0.0600 
    158 H158        2.6298  -18.3412  -44.2870 H         1 UNK         0.0600 
    159 H159        0.9795  -17.2643  -42.8193 H         1 UNK         0.3000 
    160 H160       -1.5153  -17.2748  -41.4102 H         1 UNK         0.0600 
    161 H161       -2.0565  -15.5937  -39.6331 H         1 UNK         0.0600 
    162 H162       -0.4235  -15.7535  -38.9870 H         1 UNK         0.0600 
    163 H163       -1.5231  -17.1240  -38.9593 H         1 UNK         0.0600 
    164 H164       -1.0725  -15.5156  -42.6310 H         1 UNK         0.3000 
    165 H165        0.3611  -12.5517  -42.3289 H         1 UNK         0.0600 
    166 H166        2.1812  -14.4867  -43.8585 H         1 UNK         0.0600 
    167 H167        1.9977  -12.7670  -44.2137 H         1 UNK         0.0600 
    168 H168        2.6928  -13.2811  -42.6871 H         1 UNK         0.0600 
    169 H169       -0.2395  -14.4947  -44.4992 H         1 UNK         0.3000 
    170 H170       -3.6338  -13.6404  -44.6327 H         1 UNK         0.0600 
    171 H171       -1.5637  -12.6537  -46.6714 H         1 UNK         0.0600 
    172 H172       -3.2693  -12.9606  -46.9990 H         1 UNK         0.0600 
    173 H173       -2.8026  -11.6631  -45.9114 H         1 UNK         0.0600 
    174 H174       -1.9618  -15.0778  -46.4490 H         1 UNK         0.3000 
    175 H175       -1.7703  -18.1445  -44.6703 H         1 UNK         0.0600 
    176 H176       -3.4273  -17.3514  -47.1313 H         1 UNK         0.0600 
    177 H177       -2.7835  -18.9594  -46.8240 H         1 UNK         0.0600 
    178 H178       -3.9988  -18.2809  -45.7508 H         1 UNK         0.0600 
    179 H179       -0.8913  -17.4358  -47.2592 H         1 UNK         0.3000 
    180 H180        2.3408  -17.1501  -46.5331 H         1 UNK         0.0600 
    181 H181        0.3263  -16.1823  -48.6381 H         1 UNK         0.0600 
    182 H182        0.7185  -17.8733  -48.3992 H         1 UNK         0.0600 
    183 H183        1.9590  -16.7619  -48.9306 H         1 UNK         0.0600 
    184 H184        1.0642  -14.4881  -47.0305 H         1 UNK         0.3000 
    185 H185        2.3987  -12.5685  -46.6518 H         1 UNK         0.0600 
    186 H186        4.5047  -11.4414  -47.2982 H         1 UNK         0.0600 
    187 H187        4.8079  -12.5838  -45.9987 H         1 UNK         0.0600 
    188 H188        5.2678  -12.9919  -47.6481 H         1 UNK         0.0600 
    189 H189        3.5169  -12.9411  -49.3250 H         1 UNK         0.3000 
    190 H190       -0.0656  -21.2839  -44.4355 H         1 UNK         0.3000 
    191 H191       -2.6645  -20.7271  -45.3251 H         1 UNK         0.0600 
    192 H192       -1.7688  -21.7012  -42.5660 H         1 UNK         0.0600 
    193 H193       -1.6913  -20.0291  -43.1175 H         1 UNK         0.0600 
    194 H194       -3.2478  -20.8225  -42.9264 H         1 UNK         0.0600 
    195 H195       -1.2200  -23.8208  -44.5006 H         1 UNK         0.3000 
    196 H196       -3.3693  -25.5255  -44.1475 H         1 UNK         0.0600 
    197 H197       -1.0268  -26.1887  -43.8195 H         1 UNK         0.0600 
    198 H198       -0.6812  -26.0055  -45.5375 H         1 UNK         0.0600 
    199 H199       -1.7644  -27.2783  -44.9837 H         1 UNK         0.0600 
    200 H200       -5.1472  -25.1971  -45.3679 H         1 UNK         0.3000 
    201 H201       -6.6447  -25.2017  -46.9815 H         1 UNK         0.0600 
    202 H202       -6.4776  -26.8726  -48.7953 H         1 UNK         0.0600 
    203 H203       -5.8971  -27.5744  -47.2964 H         1 UNK         0.0600 
    204 H204       -4.7490  -27.0529  -48.5271 H         1 UNK         0.0600 
    205 H205       -4.5011  -23.1364  -47.0389 H         1 UNK         0.3000 
    206 H206       -3.5599  -21.5082  -48.2323 H         1 UNK         0.0600 
    207 H207       -6.0104  -21.7522  -50.0539 H         1 UNK         0.0600 
    208 H208       -4.9293  -20.3675  -49.9459 H         1 UNK         0.0600 
    209 H209       -5.9215  -20.8101  -48.5665 H         1 UNK         0.0600 
    210 H210       -2.4082  -23.9020  -48.6763 H         1 UNK         0.3000 
    211 H211       -1.0788  -25.1546  -49.8943 H         1 UNK         0.0600 
    212 H212        0.1404  -23.0204  -50.2603 H         1 UNK         0.0600 
    213 H213        0.3263  -24.1021  -51.6289 H         1 UNK         0.0600 
    214 H214       -0.7712  -22.7366  -51.7461 H         1 UNK         0.0600 
    215 H215       -3.6410  -25.7243  -50.2367 H         1 UNK         0.3000 
    216 H216       -5.1357  -26.8978  -51.3565 H         1 UNK         0.0600 
    217 H217       -4.5120  -28.3102  -53.2716 H         1 UNK         0.0600 
    218 H218       -3.0171  -27.4195  -53.5085 H         1 UNK         0.0600 
    219 H219       -3.2519  -28.3825  -52.0504 H         1 UNK         0.0600 
    220 H220       -5.5758  -24.3999  -51.3924 H         1 UNK         0.3000 
    221 H221       -6.6627  -22.6841  -52.2366 H         1 UNK         0.0600 
    222 H222       -7.7336  -24.6860  -54.2931 H         1 UNK         0.0600 
    223 H223       -8.3611  -24.4555  -52.6617 H         1 UNK         0.0600 
    224 H224       -8.4825  -23.1605  -53.8410 H         1 UNK         0.0600 
    225 H225       -4.1210  -22.3840  -52.8992 H         1 UNK         0.3000 
    226 H226       -3.7160  -21.8610  -55.7474 H         1 UNK         0.0600 
    227 H227       -1.8656  -22.6872  -54.3380 H         1 UNK         0.0600 
    228 H228       -1.4849  -21.0839  -54.9516 H         1 UNK         0.0600 
    229 H229       -2.0021  -21.2864  -53.2827 H         1 UNK         0.0600 
    230 H230       -5.7600  -20.5389  -55.6939 H         1 UNK         0.3000 
    231 H231       -6.8784  -18.6364  -55.9792 H         1 UNK         0.0600 
    232 H232       -5.6537  -16.6837  -56.8670 H         1 UNK         0.0600 
    233 H233       -4.9710  -18.1564  -57.5344 H         1 UNK         0.0600 
    234 H234       -4.1308  -17.3019  -56.2411 H         1 UNK         0.0600 
    235 H235       -6.3689  -19.4019  -53.2876 H         1 UNK         0.3000 
    236 H236       -6.5194  -18.8390  -51.1531 H         1 UNK         0.0600 
    237 H237       -8.6224  -17.6995  -51.9105 H         1 UNK         0.0600 
    238 H238       -7.9178  -16.9179  -50.5061 H         1 UNK         0.0600 
    239 H239       -7.7332  -16.1881  -52.0947 H         1 UNK         0.0600 
    240 H240       -4.0716  -18.0383  -52.7187 H         1 UNK         0.3000 
    241 H241       -2.1241  -17.1173  -52.5014 H         1 UNK         0.0600 
    242 H242       -3.7838  -13.7441  -53.1915 H         1 UNK         0.3800 
    243 H243       -4.5199  -15.3264  -53.2618 H         1 UNK         0.3800 
    244 H244       -1.1129  -16.5595  -50.3633 H         1 UNK         0.0800 
    245 H245       -2.6630  -16.3742  -49.5933 H         1 UNK         0.0800 
    246 H246       -1.4810  -19.1932  -52.1477 H         1 UNK         0.0800 
    247 H247       -1.2861  -20.5548  -51.0935 H         1 UNK         0.0800 
@<TRIPOS>BOND
     1    1    2 1    
     2    1  127 1    
     3    1  128 1    
     4    1  129 1    
     5    2    3 2    
     6    2    4 am   BACKBONE|DICT|INTERRES
     7    4    5 1    
     8    4  130 1    
     9    5    6 1    
    10    5   65 1    
    11    5  131 1    
    12    6    7 1    
    13    6  132 1    
    14    6  133 1    
    15    7    8 1    
    16    8    9 1    
    17    8  134 1    
    18    8  135 1    
    19    9   10 ar   
    20    9   14 ar   
    21   10   11 ar   
    22   10  136 1    
    23   11   12 ar   
    24   11  126 1    
    25   12   13 ar   
    26   12  137 1    
    27   13   14 ar   
    28   13   15 1    
    29   14  138 1    
    30   15   16 1    
    31   15  139 1    
    32   15  140 1    
    33   16   17 1    
    34   17   18 1    
    35   17  141 1    
    36   17  142 1    
    37   18   19 1    
    38   18   67 1    
    39   18  143 1    
    40   19   20 am   BACKBONE|DICT|INTERRES
    41   19  144 1    
    42   20   21 2    
    43   20   22 1    
    44   22   23 1    
    45   22   24 1    
    46   22  145 1    
    47   23  146 1    
    48   23  147 1    
    49   23  148 1    
    50   24   25 am   BACKBONE|DICT|INTERRES
    51   24  149 1    
    52   25   26 2    
    53   25   27 1    
    54   27   28 1    
    55   27   29 1    
    56   27  150 1    
    57   28  151 1    
    58   28  152 1    
    59   28  153 1    
    60   29   30 am   BACKBONE|DICT|INTERRES
    61   29  154 1    
    62   30   31 2    
    63   30   32 1    
    64   32   33 1    
    65   32   34 1    
    66   32  155 1    
    67   33  156 1    
    68   33  157 1    
    69   33  158 1    
    70   34   35 am   BACKBONE|DICT|INTERRES
    71   34  159 1    
    72   35   36 2    
    73   35   37 1    
    74   37   38 1    
    75   37   39 1    
    76   37  160 1    
    77   38  161 1    
    78   38  162 1    
    79   38  163 1    
    80   39   40 am   BACKBONE|DICT|INTERRES
    81   39  164 1    
    82   40   41 2    
    83   40   42 1    
    84   42   43 1    
    85   42   44 1    
    86   42  165 1    
    87   43  166 1    
    88   43  167 1    
    89   43  168 1    
    90   44   45 am   BACKBONE|DICT|INTERRES
    91   44  169 1    
    92   45   46 2    
    93   45   47 1    
    94   47   48 1    
    95   47   49 1    
    96   47  170 1    
    97   48  171 1    
    98   48  172 1    
    99   48  173 1    
   100   49   50 am   BACKBONE|DICT|INTERRES
   101   49  174 1    
   102   50   51 2    
   103   50   52 1    
   104   52   53 1    
   105   52   54 1    
   106   52  175 1    
   107   53  176 1    
   108   53  177 1    
   109   53  178 1    
   110   54   55 am   BACKBONE|DICT|INTERRES
   111   54  179 1    
   112   55   56 2    
   113   55   57 1    
   114   57   58 1    
   115   57   59 1    
   116   57  180 1    
   117   58  181 1    
   118   58  182 1    
   119   58  183 1    
   120   59   60 am   BACKBONE|DICT|INTERRES
   121   59  184 1    
   122   60   61 2    
   123   60   62 1    
   124   62   63 1    
   125   62   64 1    
   126   62  185 1    
   127   63  186 1    
   128   63  187 1    
   129   63  188 1    
   130   64   65 am   BACKBONE|DICT|INTERRES
   131   64  189 1    
   132   65   66 2    
   133   67   68 2    
   134   67   69 am   BACKBONE|DICT|INTERRES
   135   69   70 1    
   136   69  190 1    
   137   70   71 1    
   138   70   72 1    
   139   70  191 1    
   140   71  192 1    
   141   71  193 1    
   142   71  194 1    
   143   72   73 2    
   144   72   74 am   BACKBONE|DICT|INTERRES
   145   74   75 1    
   146   74  195 1    
   147   75   76 1    
   148   75   77 1    
   149   75  196 1    
   150   76  197 1    
   151   76  198 1    
   152   76  199 1    
   153   77   78 2    
   154   77   79 am   BACKBONE|DICT|INTERRES
   155   79   80 1    
   156   79  200 1    
   157   80   81 1    
   158   80   82 1    
   159   80  201 1    
   160   81  202 1    
   161   81  203 1    
   162   81  204 1    
   163   82   83 2    
   164   82   84 am   BACKBONE|DICT|INTERRES
   165   84   85 1    
   166   84  205 1    
   167   85   86 1    
   168   85   87 1    
   169   85  206 1    
   170   86  207 1    
   171   86  208 1    
   172   86  209 1    
   173   87   88 2    
   174   87   89 am   BACKBONE|DICT|INTERRES
   175   89   90 1    
   176   89  210 1    
   177   90   91 1    
   178   90   92 1    
   179   90  211 1    
   180   91  212 1    
   181   91  213 1    
   182   91  214 1    
   183   92   93 2    
   184   92   94 am   BACKBONE|DICT|INTERRES
   185   94   95 1    
   186   94  215 1    
   187   95   96 1    
   188   95   97 1    
   189   95  216 1    
   190   96  217 1    
   191   96  218 1    
   192   96  219 1    
   193   97   98 2    
   194   97   99 am   BACKBONE|DICT|INTERRES
   195   99  100 1    
   196   99  220 1    
   197  100  101 1    
   198  100  102 1    
   199  100  221 1    
   200  101  222 1    
   201  101  223 1    
   202  101  224 1    
   203  102  103 2    
   204  102  104 am   BACKBONE|DICT|INTERRES
   205  104  105 1    
   206  104  225 1    
   207  105  106 1    
   208  105  107 1    
   209  105  226 1    
   210  106  227 1    
   211  106  228 1    
   212  106  229 1    
   213  107  108 2    
   214  107  109 am   BACKBONE|DICT|INTERRES
   215  109  110 1    
   216  109  230 1    
   217  110  111 1    
   218  110  112 1    
   219  110  231 1    
   220  111  232 1    
   221  111  233 1    
   222  111  234 1    
   223  112  113 2    
   224  112  114 am   BACKBONE|DICT|INTERRES
   225  114  115 1    
   226  114  235 1    
   227  115  116 1    
   228  115  117 1    
   229  115  236 1    
   230  116  237 1    
   231  116  238 1    
   232  116  239 1    
   233  117  118 2    
   234  117  119 am   BACKBONE|DICT|INTERRES
   235  119  120 1    
   236  119  240 1    
   237  120  121 1    
   238  120  124 1    
   239  120  241 1    
   240  121  122 am   BACKBONE|DICT|INTERRES
   241  121  123 2    
   242  122  242 1    
   243  122  243 1    
   244  124  125 1    
   245  124  244 1    
   246  124  245 1    
   247  125  126 1    
   248  126  246 1    
   249  126  247 1    
@<TRIPOS>SUBSTRUCTURE
     1 UNK         1 GROUP             0       ****    0 ROOT    
