@<TRIPOS>MOLECULE
3R540
247   249    1
SMALL
USER_CHARGES


@<TRIPOS>ATOM
      1 CA          1.8188   -9.3975  -49.9613 C.3       0 UNK        -0.1800 
      2 C           2.8959  -10.4728  -49.9511 C.2       0 UNK         0.5000 
      3 O           4.0259  -10.2142  -50.3644 O.2       0 UNK        -0.5000 
      4 N           2.5525  -11.6740  -49.4695 N.am      1 UNK        -0.5000 
      5 CA          3.4354  -12.8500  -49.4160 C.3       1 UNK         0.1400 
      6 C6          2.6533  -14.1895  -49.4945 C.3       23 UNK        -0.0398 
      7 S7          1.4467  -14.2746  -50.8588 S.3       23 UNK        -0.2404 
      8 C8         -0.1325  -14.2899  -49.9386 C.3       23 UNK        -0.0205 
      9 C9         -0.6167  -15.6481  -49.4181 C.ar      23 UNK        -0.0193 
     10 C10        -1.8658  -15.6883  -48.7910 C.ar      23 UNK        -0.1150 
     11 C11        -2.4225  -16.8968  -48.3648 C.ar      23 UNK        -0.0193 
     12 C12        -1.7039  -18.0799  -48.5395 C.ar      23 UNK        -0.1150 
     13 C13        -0.4410  -18.0625  -49.1382 C.ar      23 UNK        -0.0193 
     14 C14         0.0967  -16.8463  -49.5771 C.ar      23 UNK        -0.1150 
     15 C15         0.3097  -19.3690  -49.3646 C.3       23 UNK        -0.0205 
     16 S16         1.5934  -19.7013  -48.1098 S.3       23 UNK        -0.2404 
     17 C17         0.6422  -19.8839  -46.5612 C.3       23 UNK        -0.0398 
     18 CA          0.3352  -21.3537  -46.1880 C.3       11 UNK         0.1400 
     19 N          -0.1538  -21.4867  -44.8130 N.am      11 UNK        -0.5000 
     20 C          -0.2558  -22.6519  -44.1553 C.2       10 UNK         0.5000 
     21 O           0.1383  -23.7276  -44.6063 O.2       10 UNK        -0.5000 
     22 CA         -0.9692  -22.6210  -42.7904 C.3       10 UNK         0.1400 
     23 CB          0.0177  -22.3296  -41.6515 C.3       10 UNK        -0.1800 
     24 N          -2.0643  -21.6499  -42.7572 N.am      10 UNK        -0.5000 
     25 C          -3.2215  -21.8175  -43.4145 C.2       9 UNK         0.5000 
     26 O          -3.4881  -22.8215  -44.0728 O.2       9 UNK        -0.5000 
     27 CA         -4.2336  -20.6574  -43.3757 C.3       9 UNK         0.1400 
     28 CB         -5.1740  -20.8041  -42.1710 C.3       9 UNK        -0.1800 
     29 N          -3.6076  -19.3364  -43.3399 N.am      9 UNK        -0.5000 
     30 C          -2.7725  -18.8457  -44.2655 C.2       8 UNK         0.5000 
     31 O          -2.4476  -19.4594  -45.2816 O.2       8 UNK        -0.5000 
     32 CA         -2.1720  -17.4529  -43.9988 C.3       8 UNK         0.1400 
     33 CB         -3.0439  -16.5871  -43.0627 C.3       8 UNK        -0.1800 
     34 N          -0.7990  -17.5178  -43.4898 N.am      8 UNK        -0.5000 
     35 C          -0.3465  -18.1854  -42.4165 C.2       7 UNK         0.5000 
     36 O          -1.0195  -18.9812  -41.7595 O.2       7 UNK        -0.5000 
     37 CA          1.1015  -17.8883  -41.9808 C.3       7 UNK         0.1400 
     38 CB          2.1004  -18.7585  -42.7574 C.3       7 UNK        -0.1800 
     39 N           1.4627  -16.4766  -42.1353 N.am      7 UNK        -0.5000 
     40 C           0.9242  -15.4643  -41.4376 C.2       6 UNK         0.5000 
     41 O           0.1125  -15.6173  -40.5242 O.2       6 UNK        -0.5000 
     42 CA          1.3441  -14.0380  -41.8443 C.3       6 UNK         0.1400 
     43 CB          2.6771  -13.6453  -41.1894 C.3       6 UNK        -0.1800 
     44 N           1.4487  -13.8864  -43.2953 N.am      6 UNK        -0.5000 
     45 C           0.4062  -13.9026  -44.1383 C.2       5 UNK         0.5000 
     46 O          -0.7684  -13.9291  -43.7753 O.2       5 UNK        -0.5000 
     47 CA          0.7306  -13.9290  -45.6418 C.3       5 UNK         0.1400 
     48 CB          0.8387  -12.5044  -46.2058 C.3       5 UNK        -0.1800 
     49 N           1.9605  -14.6749  -45.9170 N.am      5 UNK        -0.5000 
     50 C           2.0430  -16.0125  -45.8689 C.2       4 UNK         0.5000 
     51 O           1.0816  -16.7387  -45.6202 O.2       4 UNK        -0.5000 
     52 CA          3.4363  -16.6419  -46.0699 C.3       4 UNK         0.1400 
     53 CB          3.7088  -16.9931  -47.5413 C.3       4 UNK        -0.1800 
     54 N           4.5174  -15.7978  -45.5617 N.am      4 UNK        -0.5000 
     55 C           4.7566  -15.5913  -44.2598 C.2       3 UNK         0.5000 
     56 O           4.1155  -16.1306  -43.3590 O.2       3 UNK        -0.5000 
     57 CA          5.8528  -14.5679  -43.9048 C.3       3 UNK         0.1400 
     58 CB          7.2221  -15.2560  -43.8087 C.3       3 UNK        -0.1800 
     59 N           5.9368  -13.4514  -44.8511 N.am      3 UNK        -0.5000 
     60 C           4.9390  -12.5980  -45.1186 C.2       2 UNK         0.5000 
     61 O           3.8350  -12.6618  -44.5771 O.2       2 UNK        -0.5000 
     62 CA          5.1805  -11.5196  -46.1934 C.3       2 UNK         0.1400 
     63 CB          6.6655  -11.3291  -46.5761 C.3       2 UNK        -0.1800 
     64 N           4.3644  -11.7597  -47.3895 N.am      2 UNK        -0.5000 
     65 C           4.3867  -12.8366  -48.1917 C.2       1 UNK         0.5000 
     66 O           5.1107  -13.8111  -47.9849 O.2       1 UNK        -0.5000 
     67 C          -0.6596  -21.9965  -47.1703 C.2       11 UNK         0.5000 
     68 O          -0.2463  -22.7776  -48.0255 O.2       11 UNK        -0.5000 
     69 N          -1.9548  -21.6905  -47.0037 N.am      12 UNK        -0.5000 
     70 CA         -3.0453  -22.2545  -47.7966 C.3       12 UNK         0.1400 
     71 CB         -4.3770  -21.6058  -47.3952 C.3       12 UNK        -0.1800 
     72 C          -3.1196  -23.7873  -47.6927 C.2       12 UNK         0.5000 
     73 O          -3.2467  -24.4490  -48.7211 O.2       12 UNK        -0.5000 
     74 N          -2.9825  -24.3266  -46.4730 N.am      13 UNK        -0.5000 
     75 CA         -2.9140  -25.7626  -46.1982 C.3       13 UNK         0.1400 
     76 CB         -2.8840  -26.0018  -44.6814 C.3       13 UNK        -0.1800 
     77 C          -1.7172  -26.4466  -46.8837 C.2       13 UNK         0.5000 
     78 O          -1.9033  -27.4776  -47.5314 O.2       13 UNK        -0.5000 
     79 N          -0.5259  -25.8383  -46.7783 N.am      14 UNK        -0.5000 
     80 CA          0.7009  -26.2951  -47.4410 C.3       14 UNK         0.1400 
     81 CB          1.8917  -25.4619  -46.9440 C.3       14 UNK        -0.1800 
     82 C           0.6085  -26.2533  -48.9799 C.2       14 UNK         0.5000 
     83 O           1.1522  -27.1314  -49.6500 O.2       14 UNK        -0.5000 
     84 N          -0.1193  -25.2602  -49.5038 N.am      15 UNK        -0.5000 
     85 CA         -0.4385  -25.0743  -50.9187 C.3       15 UNK         0.1400 
     86 CB         -0.6611  -23.5730  -51.1679 C.3       15 UNK        -0.1800 
     87 C          -1.6383  -25.9205  -51.4061 C.2       15 UNK         0.5000 
     88 O          -2.0997  -25.7024  -52.5267 O.2       15 UNK        -0.5000 
     89 N          -2.1183  -26.8641  -50.5794 N.am      16 UNK        -0.5000 
     90 CA         -3.2076  -27.8127  -50.8386 C.3       16 UNK         0.1400 
     91 CB         -2.8433  -28.7746  -51.9895 C.3       16 UNK        -0.1800 
     92 C          -4.5656  -27.1099  -51.0345 C.2       16 UNK         0.5000 
     93 O          -5.2196  -27.2814  -52.0647 O.2       16 UNK        -0.5000 
     94 N          -4.9440  -26.3174  -50.0227 N.am      17 UNK        -0.5000 
     95 CA         -6.1271  -25.4529  -49.9464 C.3       17 UNK         0.1400 
     96 CB         -7.4367  -26.2600  -50.0712 C.3       17 UNK        -0.1800 
     97 C          -6.0428  -24.2591  -50.9190 C.2       17 UNK         0.5000 
     98 O          -7.0594  -23.8370  -51.4715 O.2       17 UNK        -0.5000 
     99 N          -4.8178  -23.7473  -51.1083 N.am      18 UNK        -0.5000 
    100 CA        -4.3846  -22.5951  -51.9119 C.3       18 UNK         0.1400 
    101 CB        -4.9516  -21.2861  -51.3324 C.3       18 UNK        -0.1800 
    102 C         -4.6268  -22.6758  -53.4352 C.2       18 UNK         0.5000 
    103 O         -3.8613  -22.0671  -54.1849 O.2       18 UNK        -0.5000 
    104 N         -5.6721  -23.3917  -53.8710 N.am      19 UNK        -0.5000 
    105 CA        -6.1997  -23.5481  -55.2334 C.3       19 UNK         0.1400 
    106 CB        -5.1540  -24.1446  -56.1952 C.3       19 UNK        -0.1800 
    107 C         -6.8218  -22.2507  -55.7862 C.2       19 UNK         0.5000 
    108 O         -7.9938  -22.2491  -56.1661 O.2       19 UNK        -0.5000 
    109 N         -6.0429  -21.1648  -55.7776 N.am      20 UNK        -0.5000 
    110 CA        -6.5077  -19.7899  -55.9380 C.3       20 UNK         0.1400 
    111 CB        -5.3227  -18.9330  -56.4125 C.3       20 UNK        -0.1800 
    112 C         -7.0582  -19.2579  -54.6004 C.2       20 UNK         0.5000 
    113 O         -6.8503  -19.8755  -53.5529 O.2       20 UNK        -0.5000 
    114 N         -7.7131  -18.0919  -54.6355 N.am      21 UNK        -0.5000 
    115 CA        -8.2261  -17.3809  -53.4590 C.3       21 UNK         0.1400 
    116 CB        -9.3407  -16.4203  -53.9130 C.3       21 UNK        -0.1800 
    117 C         -7.0998  -16.6653  -52.6756 C.2       21 UNK         0.5000 
    118 O         -7.1403  -15.4438  -52.5132 O.2       21 UNK        -0.5000 
    119 N         -6.1082  -17.4461  -52.2248 N.am      22 UNK        -0.5000 
    120 CA        -4.8497  -17.0201  -51.5876 C.3       22 UNK         0.1400 
    121 C         -3.9020  -16.2128  -52.5287 C.2       22 UNK         0.5000 
    122 N         -2.6968  -15.8951  -52.0760 N.am      22 UNK        -0.7600 
    123 O         -4.2128  -15.9069  -53.6779 O.2       22 UNK        -0.5000 
    124 C124       -5.0823  -16.3384  -50.2032 C.3       23 UNK        -0.0398 
    125 S125       -5.0887  -17.5663  -48.8508 S.3       23 UNK        -0.2404 
    126 C126       -3.8041  -16.9253  -47.7252 C.3       23 UNK        -0.0205 
    127 H127        2.1372   -8.5413  -49.3667 H         1 UNK         0.0600 
    128 H128        0.8761   -9.7632  -49.5534 H         1 UNK         0.0600 
    129 H129        1.6385   -9.0577  -50.9811 H         1 UNK         0.0600 
    130 H130        1.6028  -11.8251  -49.1649 H         1 UNK         0.3000 
    131 H131        4.0834  -12.8165  -50.2945 H         1 UNK         0.0600 
    132 H132        2.1431  -14.4028  -48.5570 H         1 UNK         0.0800 
    133 H133        3.3514  -15.0107  -49.6553 H         1 UNK         0.0800 
    134 H134       -0.0771  -13.5868  -49.1078 H         1 UNK         0.0800 
    135 H135       -0.8971  -13.8968  -50.6102 H         1 UNK         0.0800 
    136 H136       -2.4231  -14.7709  -48.6598 H         1 UNK         0.1150 
    137 H137       -2.1359  -19.0160  -48.2142 H         1 UNK         0.1150 
    138 H138        1.0626  -16.8518  -50.0595 H         1 UNK         0.1150 
    139 H139       -0.3880  -20.2058  -49.4081 H         1 UNK         0.0800 
    140 H140        0.7895  -19.3378  -50.3438 H         1 UNK         0.0800 
    141 H141       -0.2588  -19.2750  -46.5946 H         1 UNK         0.0800 
    142 H142        1.2546  -19.4428  -45.7762 H         1 UNK         0.0800 
    143 H143        1.2698  -21.9154  -46.2535 H         1 UNK         0.0600 
    144 H144       -0.5791  -20.6665  -44.4060 H         1 UNK         0.3000 
    145 H145       -1.3881  -23.6149  -42.6188 H         1 UNK         0.0600 
    146 H146       -0.4677  -22.4225  -40.6800 H         1 UNK         0.0600 
    147 H147        0.8522  -23.0319  -41.6667 H         1 UNK         0.0600 
    148 H148        0.4307  -21.3249  -41.7203 H         1 UNK         0.0600 
    149 H149       -1.8959  -20.7777  -42.2654 H         1 UNK         0.3000 
    150 H150       -4.8344  -20.7106  -44.2849 H         1 UNK         0.0600 
    151 H151       -5.9505  -20.0390  -42.1806 H         1 UNK         0.0600 
    152 H152       -5.6745  -21.7734  -42.1822 H         1 UNK         0.0600 
    153 H153       -4.6338  -20.7239  -41.2267 H         1 UNK         0.0600 
    154 H154       -3.7814  -18.7788  -42.5165 H         1 UNK         0.3000 
    155 H155       -2.1178  -16.9487  -44.9649 H         1 UNK         0.0600 
    156 H156       -3.0681  -16.9727  -42.0429 H         1 UNK         0.0600 
    157 H157       -4.0714  -16.5272  -43.4239 H         1 UNK         0.0600 
    158 H158       -2.6657  -15.5672  -43.0114 H         1 UNK         0.0600 
    159 H159       -0.1232  -16.9824  -44.0256 H         1 UNK         0.3000 
    160 H160        1.1843  -18.1415  -40.9219 H         1 UNK         0.0600 
    161 H161        2.1048  -18.5118  -43.8168 H         1 UNK         0.0600 
    162 H162        1.8620  -19.8176  -42.6701 H         1 UNK         0.0600 
    163 H163        3.1144  -18.6228  -42.3808 H         1 UNK         0.0600 
    164 H164        2.1942  -16.2672  -42.8062 H         1 UNK         0.3000 
    165 H165        0.5764  -13.3485  -41.4867 H         1 UNK         0.0600 
    166 H166        2.9623  -12.6271  -41.4550 H         1 UNK         0.0600 
    167 H167        2.6038  -13.6906  -40.1022 H         1 UNK         0.0600 
    168 H168        3.4879  -14.3085  -41.4898 H         1 UNK         0.0600 
    169 H169        2.3792  -13.7735  -43.6819 H         1 UNK         0.3000 
    170 H170       -0.0961  -14.4287  -46.1526 H         1 UNK         0.0600 
    171 H171       -0.0950  -11.9599  -46.0600 H         1 UNK         0.0600 
    172 H172        1.6275  -11.9292  -45.7222 H         1 UNK         0.0600 
    173 H173        1.0399  -12.5178  -47.2741 H         1 UNK         0.0600 
    174 H174        2.8091  -14.1357  -46.0118 H         1 UNK         0.3000 
    175 H175        3.4386  -17.5781  -45.5088 H         1 UNK         0.0600 
    176 H176        4.3289  -16.2507  -48.0373 H         1 UNK         0.0600 
    177 H177        4.2350  -17.9448  -47.6160 H         1 UNK         0.0600 
    178 H178        2.7886  -17.0858  -48.1182 H         1 UNK         0.0600 
    179 H179        5.0607  -15.2863  -46.2467 H         1 UNK         0.3000 
    180 H180        5.6091  -14.1532  -42.9246 H         1 UNK         0.0600 
    181 H181        7.5360  -15.6644  -44.7702 H         1 UNK         0.0600 
    182 H182        7.1955  -16.0801  -43.0945 H         1 UNK         0.0600 
    183 H183        7.9908  -14.5603  -43.4715 H         1 UNK         0.0600 
    184 H184        6.8032  -13.3512  -45.3596 H         1 UNK         0.3000 
    185 H185        4.8303  -10.5808  -45.7620 H         1 UNK         0.0600 
    186 H186        7.2712  -11.0976  -45.6990 H         1 UNK         0.0600 
    187 H187        7.0915  -12.2128  -47.0521 H         1 UNK         0.0600 
    188 H188        6.7807  -10.4974  -47.2713 H         1 UNK         0.0600 
    189 H189        3.7170  -11.0227  -47.6284 H         1 UNK         0.3000 
    190 H190       -2.2069  -21.0051  -46.2955 H         1 UNK         0.3000 
    191 H191       -2.8488  -22.0036  -48.8404 H         1 UNK         0.0600 
    192 H192       -4.3385  -20.5217  -47.5065 H         1 UNK         0.0600 
    193 H193       -5.1920  -21.9700  -48.0219 H         1 UNK         0.0600 
    194 H194       -4.6379  -21.8285  -46.3615 H         1 UNK         0.0600 
    195 H195       -2.9456  -23.7099  -45.6657 H         1 UNK         0.3000 
    196 H196       -3.8249  -26.2168  -46.5932 H         1 UNK         0.0600 
    197 H197       -2.8381  -27.0675  -44.4538 H         1 UNK         0.0600 
    198 H198       -3.7802  -25.6063  -44.2032 H         1 UNK         0.0600 
    199 H199       -2.0198  -25.5279  -44.2153 H         1 UNK         0.0600 
    200 H200       -0.4499  -24.9977  -46.2160 H         1 UNK         0.3000 
    201 H201        0.8683  -27.3340  -47.1497 H         1 UNK         0.0600 
    202 H202        2.0098  -25.5490  -45.8638 H         1 UNK         0.0600 
    203 H203        1.7717  -24.4047  -47.1822 H         1 UNK         0.0600 
    204 H204        2.8227  -25.7985  -47.4017 H         1 UNK         0.0600 
    205 H205       -0.4698  -24.5444  -48.8739 H         1 UNK         0.3000 
    206 H206        0.4224  -25.3848  -51.5139 H         1 UNK         0.0600 
    207 H207        0.2330  -22.9995  -50.9224 H         1 UNK         0.0600 
    208 H208       -0.8987  -23.3681  -52.2124 H         1 UNK         0.0600 
    209 H209       -1.4754  -23.1877  -50.5557 H         1 UNK         0.0600 
    210 H210       -1.7029  -26.9333  -49.6585 H         1 UNK         0.3000 
    211 H211       -3.3044  -28.4158  -49.9346 H         1 UNK         0.0600 
    212 H212       -2.7612  -28.2575  -52.9458 H         1 UNK         0.0600 
    213 H213       -3.6033  -29.5485  -52.1032 H         1 UNK         0.0600 
    214 H214       -1.8952  -29.2768  -51.7972 H         1 UNK         0.0600 
    215 H215       -4.2701  -26.1650  -49.2808 H         1 UNK         0.3000 
    216 H216       -6.1120  -25.0187  -48.9457 H         1 UNK         0.0600 
    217 H217       -8.3008  -25.6351  -49.8428 H         1 UNK         0.0600 
    218 H218       -7.4512  -27.0989  -49.3756 H         1 UNK         0.0600 
    219 H219       -7.5802  -26.6539  -51.0775 H         1 UNK         0.0600 
    220 H220       -4.0757  -24.1939  -50.5805 H         1 UNK         0.3000 
    221 H221       -3.3029  -22.5512  -51.7951 H         1 UNK         0.0600 
    222 H222       -6.0415  -21.2735  -51.3511 H         1 UNK         0.0600 
    223 H223       -4.6331  -21.1343  -50.3025 H         1 UNK         0.0600 
    224 H224       -4.6061  -20.4246  -51.9048 H         1 UNK         0.0600 
    225 H225       -6.2721  -23.7633  -53.1387 H         1 UNK         0.3000 
    226 H226       -7.0102  -24.2736  -55.1479 H         1 UNK         0.0600 
    227 H227       -4.7522  -25.0805  -55.8066 H         1 UNK         0.0600 
    228 H228       -5.6018  -24.3603  -57.1659 H         1 UNK         0.0600 
    229 H229       -4.3174  -23.4678  -56.3688 H         1 UNK         0.0600 
    230 H230       -5.1206  -21.2790  -55.3664 H         1 UNK         0.3000 
    231 H231       -7.3014  -19.7535  -56.6869 H         1 UNK         0.0600 
    232 H232       -4.5186  -18.9161  -55.6751 H         1 UNK         0.0600 
    233 H233       -5.6256  -17.9004  -56.5899 H         1 UNK         0.0600 
    234 H234       -4.9111  -19.3136  -57.3475 H         1 UNK         0.0600 
    235 H235       -7.8143  -17.6157  -55.5202 H         1 UNK         0.3000 
    236 H236       -8.6773  -18.1067  -52.7788 H         1 UNK         0.0600 
    237 H237      -10.1473  -16.9594  -54.4101 H         1 UNK         0.0600 
    238 H238       -9.7789  -15.8986  -53.0612 H         1 UNK         0.0600 
    239 H239       -8.9653  -15.6651  -54.6047 H         1 UNK         0.0600 
    240 H240       -6.1737  -18.4334  -52.4533 H         1 UNK         0.3000 
    241 H241       -4.3025  -17.9497  -51.4258 H         1 UNK         0.0600 
    242 H242       -2.3816  -16.1716  -51.1585 H         1 UNK         0.3800 
    243 H243       -2.0698  -15.3951  -52.6863 H         1 UNK         0.3800 
    244 H244       -4.3340  -15.5772  -49.9897 H         1 UNK         0.0800 
    245 H245       -6.0291  -15.7998  -50.1747 H         1 UNK         0.0800 
    246 H246       -3.7761  -17.5603  -46.8399 H         1 UNK         0.0800 
    247 H247       -4.0912  -15.9315  -47.3781 H         1 UNK         0.0800 
@<TRIPOS>BOND
     1    1    2 1    
     2    1  127 1    
     3    1  128 1    
     4    1  129 1    
     5    2    3 2    
     6    2    4 am   BACKBONE|DICT|INTERRES
     7    4    5 1    
     8    4  130 1    
     9    5    6 1    
    10    5   65 1    
    11    5  131 1    
    12    6    7 1    
    13    6  132 1    
    14    6  133 1    
    15    7    8 1    
    16    8    9 1    
    17    8  134 1    
    18    8  135 1    
    19    9   10 ar   
    20    9   14 ar   
    21   10   11 ar   
    22   10  136 1    
    23   11   12 ar   
    24   11  126 1    
    25   12   13 ar   
    26   12  137 1    
    27   13   14 ar   
    28   13   15 1    
    29   14  138 1    
    30   15   16 1    
    31   15  139 1    
    32   15  140 1    
    33   16   17 1    
    34   17   18 1    
    35   17  141 1    
    36   17  142 1    
    37   18   19 1    
    38   18   67 1    
    39   18  143 1    
    40   19   20 am   BACKBONE|DICT|INTERRES
    41   19  144 1    
    42   20   21 2    
    43   20   22 1    
    44   22   23 1    
    45   22   24 1    
    46   22  145 1    
    47   23  146 1    
    48   23  147 1    
    49   23  148 1    
    50   24   25 am   BACKBONE|DICT|INTERRES
    51   24  149 1    
    52   25   26 2    
    53   25   27 1    
    54   27   28 1    
    55   27   29 1    
    56   27  150 1    
    57   28  151 1    
    58   28  152 1    
    59   28  153 1    
    60   29   30 am   BACKBONE|DICT|INTERRES
    61   29  154 1    
    62   30   31 2    
    63   30   32 1    
    64   32   33 1    
    65   32   34 1    
    66   32  155 1    
    67   33  156 1    
    68   33  157 1    
    69   33  158 1    
    70   34   35 am   BACKBONE|DICT|INTERRES
    71   34  159 1    
    72   35   36 2    
    73   35   37 1    
    74   37   38 1    
    75   37   39 1    
    76   37  160 1    
    77   38  161 1    
    78   38  162 1    
    79   38  163 1    
    80   39   40 am   BACKBONE|DICT|INTERRES
    81   39  164 1    
    82   40   41 2    
    83   40   42 1    
    84   42   43 1    
    85   42   44 1    
    86   42  165 1    
    87   43  166 1    
    88   43  167 1    
    89   43  168 1    
    90   44   45 am   BACKBONE|DICT|INTERRES
    91   44  169 1    
    92   45   46 2    
    93   45   47 1    
    94   47   48 1    
    95   47   49 1    
    96   47  170 1    
    97   48  171 1    
    98   48  172 1    
    99   48  173 1    
   100   49   50 am   BACKBONE|DICT|INTERRES
   101   49  174 1    
   102   50   51 2    
   103   50   52 1    
   104   52   53 1    
   105   52   54 1    
   106   52  175 1    
   107   53  176 1    
   108   53  177 1    
   109   53  178 1    
   110   54   55 am   BACKBONE|DICT|INTERRES
   111   54  179 1    
   112   55   56 2    
   113   55   57 1    
   114   57   58 1    
   115   57   59 1    
   116   57  180 1    
   117   58  181 1    
   118   58  182 1    
   119   58  183 1    
   120   59   60 am   BACKBONE|DICT|INTERRES
   121   59  184 1    
   122   60   61 2    
   123   60   62 1    
   124   62   63 1    
   125   62   64 1    
   126   62  185 1    
   127   63  186 1    
   128   63  187 1    
   129   63  188 1    
   130   64   65 am   BACKBONE|DICT|INTERRES
   131   64  189 1    
   132   65   66 2    
   133   67   68 2    
   134   67   69 am   BACKBONE|DICT|INTERRES
   135   69   70 1    
   136   69  190 1    
   137   70   71 1    
   138   70   72 1    
   139   70  191 1    
   140   71  192 1    
   141   71  193 1    
   142   71  194 1    
   143   72   73 2    
   144   72   74 am   BACKBONE|DICT|INTERRES
   145   74   75 1    
   146   74  195 1    
   147   75   76 1    
   148   75   77 1    
   149   75  196 1    
   150   76  197 1    
   151   76  198 1    
   152   76  199 1    
   153   77   78 2    
   154   77   79 am   BACKBONE|DICT|INTERRES
   155   79   80 1    
   156   79  200 1    
   157   80   81 1    
   158   80   82 1    
   159   80  201 1    
   160   81  202 1    
   161   81  203 1    
   162   81  204 1    
   163   82   83 2    
   164   82   84 am   BACKBONE|DICT|INTERRES
   165   84   85 1    
   166   84  205 1    
   167   85   86 1    
   168   85   87 1    
   169   85  206 1    
   170   86  207 1    
   171   86  208 1    
   172   86  209 1    
   173   87   88 2    
   174   87   89 am   BACKBONE|DICT|INTERRES
   175   89   90 1    
   176   89  210 1    
   177   90   91 1    
   178   90   92 1    
   179   90  211 1    
   180   91  212 1    
   181   91  213 1    
   182   91  214 1    
   183   92   93 2    
   184   92   94 am   BACKBONE|DICT|INTERRES
   185   94   95 1    
   186   94  215 1    
   187   95   96 1    
   188   95   97 1    
   189   95  216 1    
   190   96  217 1    
   191   96  218 1    
   192   96  219 1    
   193   97   98 2    
   194   97   99 am   BACKBONE|DICT|INTERRES
   195   99  100 1    
   196   99  220 1    
   197  100  101 1    
   198  100  102 1    
   199  100  221 1    
   200  101  222 1    
   201  101  223 1    
   202  101  224 1    
   203  102  103 2    
   204  102  104 am   BACKBONE|DICT|INTERRES
   205  104  105 1    
   206  104  225 1    
   207  105  106 1    
   208  105  107 1    
   209  105  226 1    
   210  106  227 1    
   211  106  228 1    
   212  106  229 1    
   213  107  108 2    
   214  107  109 am   BACKBONE|DICT|INTERRES
   215  109  110 1    
   216  109  230 1    
   217  110  111 1    
   218  110  112 1    
   219  110  231 1    
   220  111  232 1    
   221  111  233 1    
   222  111  234 1    
   223  112  113 2    
   224  112  114 am   BACKBONE|DICT|INTERRES
   225  114  115 1    
   226  114  235 1    
   227  115  116 1    
   228  115  117 1    
   229  115  236 1    
   230  116  237 1    
   231  116  238 1    
   232  116  239 1    
   233  117  118 2    
   234  117  119 am   BACKBONE|DICT|INTERRES
   235  119  120 1    
   236  119  240 1    
   237  120  121 1    
   238  120  124 1    
   239  120  241 1    
   240  121  122 am   BACKBONE|DICT|INTERRES
   241  121  123 2    
   242  122  242 1    
   243  122  243 1    
   244  124  125 1    
   245  124  244 1    
   246  124  245 1    
   247  125  126 1    
   248  126  246 1    
   249  126  247 1    
@<TRIPOS>SUBSTRUCTURE
     1 UNK         1 GROUP             0       ****    0 ROOT    
