@<TRIPOS>MOLECULE
3R540
247   249    1
SMALL
USER_CHARGES


@<TRIPOS>ATOM
      1 CA          2.2963   -9.4428  -48.4114 C.3       0 UNK        -0.1800 
      2 C           1.5068  -10.7235  -48.6403 C.2       0 UNK         0.5000 
      3 O           0.2815  -10.6734  -48.7546 O.2       0 UNK        -0.5000 
      4 N           2.2018  -11.8681  -48.7000 N.am      1 UNK        -0.5000 
      5 CA          1.6412  -13.2143  -48.8760 C.3       1 UNK         0.1400 
      6 C6          1.0666  -13.4534  -50.3011 C.3       23 UNK        -0.0398 
      7 S7          2.3821  -13.5377  -51.5634 S.3       23 UNK        -0.2404 
      8 C8          2.9975  -15.2463  -51.3630 C.3       23 UNK        -0.0205 
      9 C9          1.9129  -16.2874  -51.5993 C.ar      23 UNK        -0.0193 
     10 C10         1.5232  -16.6087  -52.9026 C.ar      23 UNK        -0.1150 
     11 C11         0.5036  -17.5369  -53.1284 C.ar      23 UNK        -0.0193 
     12 C12        -0.1198  -18.1514  -52.0383 C.ar      23 UNK        -0.1150 
     13 C13         0.2565  -17.8347  -50.7305 C.ar      23 UNK        -0.0193 
     14 C14         1.2834  -16.9119  -50.5163 C.ar      23 UNK        -0.1150 
     15 C15        -0.4713  -18.4677  -49.5559 C.3       23 UNK        -0.0205 
     16 S16         0.3733  -19.9688  -48.9832 S.3       23 UNK        -0.2404 
     17 C17        -0.9778  -20.7587  -48.0496 C.3       23 UNK        -0.0398 
     18 CA         -0.5229  -22.0919  -47.4167 C.3       11 UNK         0.1400 
     19 N           0.3496  -21.8790  -46.2592 N.am      11 UNK        -0.5000 
     20 C           1.0396  -22.8416  -45.6344 C.2       10 UNK         0.5000 
     21 O           1.0448  -24.0189  -45.9907 O.2       10 UNK        -0.5000 
     22 CA          1.8098  -22.4312  -44.3666 C.3       10 UNK         0.1400 
     23 CB          3.1208  -21.7152  -44.7239 C.3       10 UNK        -0.1800 
     24 N           1.0087  -21.5917  -43.4740 N.am      10 UNK        -0.5000 
     25 C          -0.1165  -21.9978  -42.8680 C.2       9 UNK         0.5000 
     26 O          -0.5682  -23.1391  -42.9624 O.2       9 UNK        -0.5000 
     27 CA         -0.8921  -20.9481  -42.0525 C.3       9 UNK         0.1400 
     28 CB         -0.2718  -20.7758  -40.6582 C.3       9 UNK        -0.1800 
     29 N          -0.9732  -19.6499  -42.7229 N.am      9 UNK        -0.5000 
     30 C          -1.5897  -19.4321  -43.8939 C.2       8 UNK         0.5000 
     31 O          -2.1875  -20.3019  -44.5255 O.2       8 UNK        -0.5000 
     32 CA         -1.4685  -18.0192  -44.4931 C.3       8 UNK         0.1400 
     33 CB         -2.4279  -17.0446  -43.7971 C.3       8 UNK        -0.1800 
     34 N          -0.1018  -17.5014  -44.4313 N.am      8 UNK        -0.5000 
     35 C           0.9534  -18.0863  -45.0176 C.2       7 UNK         0.5000 
     36 O           0.8755  -19.0945  -45.7171 O.2       7 UNK        -0.5000 
     37 CA          2.3338  -17.4801  -44.7251 C.3       7 UNK         0.1400 
     38 CB          2.5882  -16.2516  -45.6056 C.3       7 UNK        -0.1800 
     39 N           2.4754  -17.1160  -43.3163 N.am      7 UNK        -0.5000 
     40 C           2.5666  -18.0040  -42.3166 C.2       6 UNK         0.5000 
     41 O           2.5791  -19.2237  -42.4826 O.2       6 UNK        -0.5000 
     42 CA          2.6089  -17.4285  -40.8898 C.3       6 UNK         0.1400 
     43 CB          4.0295  -16.9681  -40.5305 C.3       6 UNK        -0.1800 
     44 N           1.6748  -16.3161  -40.7055 N.am      6 UNK        -0.5000 
     45 C           0.3406  -16.4377  -40.7472 C.2       5 UNK         0.5000 
     46 O          -0.2422  -17.5052  -40.9310 O.2       5 UNK        -0.5000 
     47 CA         -0.4817  -15.1459  -40.5927 C.3       5 UNK         0.1400 
     48 CB         -0.7378  -14.8448  -39.1086 C.3       5 UNK        -0.1800 
     49 N           0.1321  -13.9763  -41.2270 N.am      5 UNK        -0.5000 
     50 C           0.3629  -13.8564  -42.5404 C.2       4 UNK         0.5000 
     51 O           0.1547  -14.7560  -43.3590 O.2       4 UNK        -0.5000 
     52 CA          0.9465  -12.5161  -43.0129 C.3       4 UNK         0.1400 
     53 CB          2.4097  -12.6828  -43.4510 C.3       4 UNK        -0.1800 
     54 N           0.1566  -12.0172  -44.1334 N.am      4 UNK        -0.5000 
     55 C          -0.9530  -11.2733  -44.0078 C.2       3 UNK         0.5000 
     56 O          -1.3469  -10.8154  -42.9343 O.2       3 UNK        -0.5000 
     57 CA         -1.7768  -11.0057  -45.2864 C.3       3 UNK         0.1400 
     58 CB         -1.3610   -9.6712  -45.9227 C.3       3 UNK        -0.1800 
     59 N          -1.6404  -12.0756  -46.2753 N.am      3 UNK        -0.5000 
     60 C          -2.0892  -13.3270  -46.0982 C.2       2 UNK         0.5000 
     61 O          -2.8615  -13.6382  -45.1915 O.2       2 UNK        -0.5000 
     62 CA         -1.5794  -14.4242  -47.0614 C.3       2 UNK         0.1400 
     63 CB         -2.7400  -15.0745  -47.8322 C.3       2 UNK        -0.1800 
     64 N          -0.5576  -13.9954  -48.0243 N.am      2 UNK        -0.5000 
     65 C           0.6723  -13.5547  -47.7208 C.2       1 UNK         0.5000 
     66 O           1.0575  -13.3880  -46.5635 O.2       1 UNK        -0.5000 
     67 C          -1.7304  -22.9907  -47.0793 C.2       11 UNK         0.5000 
     68 O          -2.0773  -23.8550  -47.8851 O.2       11 UNK        -0.5000 
     69 N          -2.3279  -22.8051  -45.8926 N.am      12 UNK        -0.5000 
     70 CA         -3.4014  -23.6484  -45.3653 C.3       12 UNK         0.1400 
     71 CB         -3.9579  -23.0523  -44.0638 C.3       12 UNK        -0.1800 
     72 C          -2.9509  -25.1057  -45.1636 C.2       12 UNK         0.5000 
     73 O          -3.6306  -26.0195  -45.6348 O.2       12 UNK        -0.5000 
     74 N          -1.7899  -25.2852  -44.5159 N.am      13 UNK        -0.5000 
     75 CA         -1.1453  -26.5796  -44.2852 C.3       13 UNK         0.1400 
     76 CB          0.0820  -26.3887  -43.3817 C.3       13 UNK        -0.1800 
     77 C          -0.7569  -27.3057  -45.5865 C.2       13 UNK         0.5000 
     78 O          -0.8955  -28.5270  -45.6630 O.2       13 UNK        -0.5000 
     79 N          -0.3387  -26.5458  -46.6072 N.am      14 UNK        -0.5000 
     80 CA         -0.0264  -27.0088  -47.9621 C.3       14 UNK         0.1400 
     81 CB          0.8970  -25.9776  -48.6360 C.3       14 UNK        -0.1800 
     82 C          -1.2849  -27.3151  -48.8091 C.2       14 UNK         0.5000 
     83 O          -1.3421  -26.9419  -49.9810 O.2       14 UNK        -0.5000 
     84 N          -2.2639  -28.0038  -48.2056 N.am      15 UNK        -0.5000 
     85 CA         -3.5308  -28.4604  -48.7849 C.3       15 UNK         0.1400 
     86 CB         -3.2764  -29.5709  -49.8260 C.3       15 UNK        -0.1800 
     87 C          -4.4104  -27.3125  -49.3259 C.2       15 UNK         0.5000 
     88 O          -4.9868  -27.4364  -50.4085 O.2       15 UNK        -0.5000 
     89 N          -4.5074  -26.2247  -48.5462 N.am      16 UNK        -0.5000 
     90 CA         -5.3048  -25.0220  -48.8132 C.3       16 UNK         0.1400 
     91 CB         -6.8128  -25.3376  -48.7293 C.3       16 UNK        -0.1800 
     92 C          -4.9072  -24.2979  -50.1166 C.2       16 UNK         0.5000 
     93 O          -5.7700  -23.9090  -50.9067 O.2       16 UNK        -0.5000 
     94 N          -3.5987  -24.0920  -50.3032 N.am      17 UNK        -0.5000 
     95 CA         -2.9910  -23.3771  -51.4276 C.3       17 UNK         0.1400 
     96 CB         -1.5405  -23.8663  -51.5891 C.3       17 UNK        -0.1800 
     97 C          -3.0801  -21.8453  -51.2519 C.2       17 UNK         0.5000 
     98 O          -2.0684  -21.1518  -51.3527 O.2       17 UNK        -0.5000 
     99 N          -4.2872  -21.3464  -50.9527 N.am      18 UNK        -0.5000 
    100 CA        -4.5994  -19.9430  -50.6793 C.3       18 UNK         0.1400 
    101 CB        -6.0875  -19.8324  -50.3169 C.3       18 UNK        -0.1800 
    102 C         -4.2680  -19.0149  -51.8606 C.2       18 UNK         0.5000 
    103 O         -4.3618  -19.4368  -53.0150 O.2       18 UNK        -0.5000 
    104 N         -3.9247  -17.7570  -51.5520 N.am      19 UNK        -0.5000 
    105 CA        -3.4161  -16.7461  -52.4894 C.3       19 UNK         0.1400 
    106 CB        -3.0398  -15.4809  -51.7027 C.3       19 UNK        -0.1800 
    107 C         -4.3274  -16.4065  -53.6870 C.2       19 UNK         0.5000 
    108 O         -3.8372  -15.8756  -54.6839 O.2       19 UNK        -0.5000 
    109 N         -5.6198  -16.7407  -53.5874 N.am      20 UNK        -0.5000 
    110 CA        -6.5994  -16.6303  -54.6673 C.3       20 UNK         0.1400 
    111 CB        -8.0064  -16.7889  -54.0701 C.3       20 UNK        -0.1800 
    112 C         -6.3864  -17.6450  -55.8125 C.2       20 UNK         0.5000 
    113 O         -6.8748  -17.3977  -56.9163 O.2       20 UNK        -0.5000 
    114 N         -5.6921  -18.7606  -55.5420 N.am      21 UNK        -0.5000 
    115 CA        -5.4683  -19.8506  -56.4971 C.3       21 UNK         0.1400 
    116 CB        -6.3987  -21.0227  -56.1442 C.3       21 UNK        -0.1800 
    117 C         -4.0046  -20.3227  -56.5392 C.2       21 UNK         0.5000 
    118 O         -3.5349  -20.7252  -57.6038 O.2       21 UNK        -0.5000 
    119 N         -3.3114  -20.2774  -55.3947 N.am      22 UNK        -0.5000 
    120 CA        -1.9350  -20.7560  -55.1831 C.3       22 UNK         0.1400 
    121 C         -1.7650  -22.3071  -55.2184 C.2       22 UNK         0.5000 
    122 N         -2.8347  -23.0914  -55.1519 N.am      22 UNK        -0.7600 
    123 O         -0.6496  -22.8156  -55.2846 O.2       22 UNK        -0.5000 
    124 C124       -0.8894  -19.9979  -56.0565 C.3       23 UNK        -0.0398 
    125 S125        0.5727  -19.4952  -55.0873 S.3       23 UNK        -0.2404 
    126 C126        0.0394  -17.8435  -54.5432 C.3       23 UNK        -0.0205 
    127 H127        3.3668   -9.6343  -48.3340 H         1 UNK         0.0600 
    128 H128        1.9692   -8.9610  -47.4900 H         1 UNK         0.0600 
    129 H129        2.1333   -8.7496  -49.2366 H         1 UNK         0.0600 
    130 H130        3.2034  -11.8365  -48.5739 H         1 UNK         0.3000 
    131 H131        2.4741  -13.9036  -48.7337 H         1 UNK         0.0600 
    132 H132        0.4832  -14.3697  -50.3640 H         1 UNK         0.0800 
    133 H133        0.3786  -12.6542  -50.5798 H         1 UNK         0.0800 
    134 H134        3.4339  -15.3658  -50.3706 H         1 UNK         0.0800 
    135 H135        3.8127  -15.4095  -52.0695 H         1 UNK         0.0800 
    136 H136        2.0021  -16.1191  -53.7391 H         1 UNK         0.1150 
    137 H137       -0.9101  -18.8695  -52.2083 H         1 UNK         0.1150 
    138 H138        1.5765  -16.6658  -49.5053 H         1 UNK         0.1150 
    139 H139       -0.5469  -17.7599  -48.7290 H         1 UNK         0.0800 
    140 H140       -1.4926  -18.7128  -49.8502 H         1 UNK         0.0800 
    141 H141       -1.8057  -20.9184  -48.7404 H         1 UNK         0.0800 
    142 H142       -1.3440  -20.0704  -47.2859 H         1 UNK         0.0800 
    143 H143        0.0589  -22.6372  -48.1630 H         1 UNK         0.0600 
    144 H144        0.4415  -20.9187  -45.9354 H         1 UNK         0.3000 
    145 H145        2.0628  -23.3443  -43.8238 H         1 UNK         0.0600 
    146 H146        3.7016  -21.4880  -43.8299 H         1 UNK         0.0600 
    147 H147        3.7427  -22.3392  -45.3667 H         1 UNK         0.0600 
    148 H148        2.9402  -20.7788  -45.2516 H         1 UNK         0.0600 
    149 H149        1.3415  -20.6469  -43.3140 H         1 UNK         0.3000 
    150 H150       -1.9115  -21.3171  -41.9241 H         1 UNK         0.0600 
    151 H151       -0.2070  -21.7321  -40.1377 H         1 UNK         0.0600 
    152 H152       -0.8735  -20.1095  -40.0399 H         1 UNK         0.0600 
    153 H153        0.7353  -20.3616  -40.7134 H         1 UNK         0.0600 
    154 H154       -0.5432  -18.8651  -42.2407 H         1 UNK         0.3000 
    155 H155       -1.7496  -18.0770  -45.5466 H         1 UNK         0.0600 
    156 H156       -2.2179  -16.9611  -42.7313 H         1 UNK         0.0600 
    157 H157       -3.4623  -17.3735  -43.9031 H         1 UNK         0.0600 
    158 H158       -2.3568  -16.0474  -44.2283 H         1 UNK         0.0600 
    159 H159        0.0420  -16.6463  -43.9017 H         1 UNK         0.3000 
    160 H160        3.0890  -18.2317  -44.9647 H         1 UNK         0.0600 
    161 H161        3.5927  -15.8557  -45.4566 H         1 UNK         0.0600 
    162 H162        1.8775  -15.4596  -45.3787 H         1 UNK         0.0600 
    163 H163        2.4840  -16.4961  -46.6635 H         1 UNK         0.0600 
    164 H164        2.4167  -16.1342  -43.0912 H         1 UNK         0.3000 
    165 H165        2.3250  -18.2273  -40.2013 H         1 UNK         0.0600 
    166 H166        4.0850  -16.6340  -39.4943 H         1 UNK         0.0600 
    167 H167        4.7444  -17.7839  -40.6464 H         1 UNK         0.0600 
    168 H168        4.3622  -16.1470  -41.1667 H         1 UNK         0.0600 
    169 H169        2.0720  -15.4014  -40.5501 H         1 UNK         0.3000 
    170 H170       -1.4468  -15.3128  -41.0751 H         1 UNK         0.0600 
    171 H171       -1.2144  -15.6930  -38.6149 H         1 UNK         0.0600 
    172 H172        0.1888  -14.6321  -38.5740 H         1 UNK         0.0600 
    173 H173       -1.4002  -13.9874  -38.9884 H         1 UNK         0.0600 
    174 H174        0.3353  -13.1941  -40.6213 H         1 UNK         0.3000 
    175 H175        0.9188  -11.7953  -42.1929 H         1 UNK         0.0600 
    176 H176        2.5109  -13.3982  -44.2671 H         1 UNK         0.0600 
    177 H177        2.8290  -11.7345  -43.7874 H         1 UNK         0.0600 
    178 H178        3.0269  -13.0376  -42.6249 H         1 UNK         0.0600 
    179 H179        0.3847  -12.4178  -45.0397 H         1 UNK         0.3000 
    180 H180       -2.8284  -10.9368  -45.0003 H         1 UNK         0.0600 
    181 H181       -0.3062   -9.6698  -46.1991 H         1 UNK         0.0600 
    182 H182       -1.5189   -8.8436  -45.2301 H         1 UNK         0.0600 
    183 H183       -1.9434   -9.4610  -46.8200 H         1 UNK         0.0600 
    184 H184       -1.0208  -11.8928  -47.0536 H         1 UNK         0.3000 
    185 H185       -1.1248  -15.1922  -46.4315 H         1 UNK         0.0600 
    186 H186       -3.2198  -14.3655  -48.5079 H         1 UNK         0.0600 
    187 H187       -2.3954  -15.9239  -48.4218 H         1 UNK         0.0600 
    188 H188       -3.5051  -15.4479  -47.1502 H         1 UNK         0.0600 
    189 H189       -0.8255  -14.0505  -48.9950 H         1 UNK         0.3000 
    190 H190       -2.0349  -22.0268  -45.3076 H         1 UNK         0.3000 
    191 H191       -4.2110  -23.6450  -46.0937 H         1 UNK         0.0600 
    192 H192       -3.1986  -22.9930  -43.2852 H         1 UNK         0.0600 
    193 H193       -4.7767  -23.6598  -43.6764 H         1 UNK         0.0600 
    194 H194       -4.3486  -22.0478  -44.2266 H         1 UNK         0.0600 
    195 H195       -1.3108  -24.4710  -44.1394 H         1 UNK         0.3000 
    196 H196       -1.8606  -27.2130  -43.7568 H         1 UNK         0.0600 
    197 H197        0.5690  -27.3426  -43.1757 H         1 UNK         0.0600 
    198 H198       -0.1990  -25.9529  -42.4228 H         1 UNK         0.0600 
    199 H199        0.8222  -25.7334  -43.8416 H         1 UNK         0.0600 
    200 H200       -0.2139  -25.5526  -46.4402 H         1 UNK         0.3000 
    201 H201        0.5309  -27.9440  -47.8819 H         1 UNK         0.0600 
    202 H202        1.7953  -25.8047  -48.0432 H         1 UNK         0.0600 
    203 H203        0.3940  -25.0197  -48.7695 H         1 UNK         0.0600 
    204 H204        1.2211  -26.3199  -49.6195 H         1 UNK         0.0600 
    205 H205       -2.1008  -28.2683  -47.2398 H         1 UNK         0.3000 
    206 H206       -4.0940  -28.9064  -47.9640 H         1 UNK         0.0600 
    207 H207       -2.6802  -30.3792  -49.4026 H         1 UNK         0.0600 
    208 H208       -4.2147  -30.0080  -50.1697 H         1 UNK         0.0600 
    209 H209       -2.7518  -29.1910  -50.7032 H         1 UNK         0.0600 
    210 H210       -3.9930  -26.2207  -47.6711 H         1 UNK         0.3000 
    211 H211       -5.0802  -24.3217  -48.0115 H         1 UNK         0.0600 
    212 H212       -7.1341  -26.0037  -49.5305 H         1 UNK         0.0600 
    213 H213       -7.4074  -24.4264  -48.8045 H         1 UNK         0.0600 
    214 H214       -7.0637  -25.8096  -47.7794 H         1 UNK         0.0600 
    215 H215       -2.9643  -24.3612  -49.5562 H         1 UNK         0.3000 
    216 H216       -3.5323  -23.6282  -52.3415 H         1 UNK         0.0600 
    217 H217       -1.0421  -23.3645  -52.4190 H         1 UNK         0.0600 
    218 H218       -1.5087  -24.9357  -51.7962 H         1 UNK         0.0600 
    219 H219       -0.9520  -23.6808  -50.6896 H         1 UNK         0.0600 
    220 H220       -5.0632  -21.9983  -50.9312 H         1 UNK         0.3000 
    221 H221       -4.0025  -19.6354  -49.8186 H         1 UNK         0.0600 
    222 H222       -6.7257  -20.1514  -51.1422 H         1 UNK         0.0600 
    223 H223       -6.3292  -20.4479  -49.4500 H         1 UNK         0.0600 
    224 H224       -6.3585  -18.8052  -50.0695 H         1 UNK         0.0600 
    225 H225       -3.9329  -17.4823  -50.5809 H         1 UNK         0.3000 
    226 H226       -2.5031  -17.1498  -52.9216 H         1 UNK         0.0600 
    227 H227       -2.2654  -15.6934  -50.9655 H         1 UNK         0.0600 
    228 H228       -2.6466  -14.7082  -52.3647 H         1 UNK         0.0600 
    229 H229       -3.9004  -15.0610  -51.1807 H         1 UNK         0.0600 
    230 H230       -5.9332  -17.1762  -52.7329 H         1 UNK         0.3000 
    231 H231       -6.5218  -15.6296  -55.0976 H         1 UNK         0.0600 
    232 H232       -8.2012  -16.0311  -53.3109 H         1 UNK         0.0600 
    233 H233       -8.1396  -17.7690  -53.6101 H         1 UNK         0.0600 
    234 H234       -8.7726  -16.6805  -54.8389 H         1 UNK         0.0600 
    235 H235       -5.3081  -18.8831  -54.6103 H         1 UNK         0.3000 
    236 H236       -5.7102  -19.5203  -57.5093 H         1 UNK         0.0600 
    237 H237       -6.2511  -21.8614  -56.8259 H         1 UNK         0.0600 
    238 H238       -6.2223  -21.3845  -55.1304 H         1 UNK         0.0600 
    239 H239       -7.4456  -20.7273  -56.2156 H         1 UNK         0.0600 
    240 H240       -3.7764  -19.9602  -54.5454 H         1 UNK         0.3000 
    241 H241       -1.7489  -20.5018  -54.1388 H         1 UNK         0.0600 
    242 H242       -3.7596  -22.6966  -55.1138 H         1 UNK         0.3800 
    243 H243       -2.7145  -24.0914  -55.1836 H         1 UNK         0.3800 
    244 H244       -0.5640  -20.6029  -56.9044 H         1 UNK         0.0800 
    245 H245       -1.3245  -19.1026  -56.5027 H         1 UNK         0.0800 
    246 H246       -1.0477  -17.7708  -54.5783 H         1 UNK         0.0800 
    247 H247        0.4148  -17.0993  -55.2472 H         1 UNK         0.0800 
@<TRIPOS>BOND
     1    1    2 1    
     2    1  127 1    
     3    1  128 1    
     4    1  129 1    
     5    2    3 2    
     6    2    4 am   BACKBONE|DICT|INTERRES
     7    4    5 1    
     8    4  130 1    
     9    5    6 1    
    10    5   65 1    
    11    5  131 1    
    12    6    7 1    
    13    6  132 1    
    14    6  133 1    
    15    7    8 1    
    16    8    9 1    
    17    8  134 1    
    18    8  135 1    
    19    9   10 ar   
    20    9   14 ar   
    21   10   11 ar   
    22   10  136 1    
    23   11   12 ar   
    24   11  126 1    
    25   12   13 ar   
    26   12  137 1    
    27   13   14 ar   
    28   13   15 1    
    29   14  138 1    
    30   15   16 1    
    31   15  139 1    
    32   15  140 1    
    33   16   17 1    
    34   17   18 1    
    35   17  141 1    
    36   17  142 1    
    37   18   19 1    
    38   18   67 1    
    39   18  143 1    
    40   19   20 am   BACKBONE|DICT|INTERRES
    41   19  144 1    
    42   20   21 2    
    43   20   22 1    
    44   22   23 1    
    45   22   24 1    
    46   22  145 1    
    47   23  146 1    
    48   23  147 1    
    49   23  148 1    
    50   24   25 am   BACKBONE|DICT|INTERRES
    51   24  149 1    
    52   25   26 2    
    53   25   27 1    
    54   27   28 1    
    55   27   29 1    
    56   27  150 1    
    57   28  151 1    
    58   28  152 1    
    59   28  153 1    
    60   29   30 am   BACKBONE|DICT|INTERRES
    61   29  154 1    
    62   30   31 2    
    63   30   32 1    
    64   32   33 1    
    65   32   34 1    
    66   32  155 1    
    67   33  156 1    
    68   33  157 1    
    69   33  158 1    
    70   34   35 am   BACKBONE|DICT|INTERRES
    71   34  159 1    
    72   35   36 2    
    73   35   37 1    
    74   37   38 1    
    75   37   39 1    
    76   37  160 1    
    77   38  161 1    
    78   38  162 1    
    79   38  163 1    
    80   39   40 am   BACKBONE|DICT|INTERRES
    81   39  164 1    
    82   40   41 2    
    83   40   42 1    
    84   42   43 1    
    85   42   44 1    
    86   42  165 1    
    87   43  166 1    
    88   43  167 1    
    89   43  168 1    
    90   44   45 am   BACKBONE|DICT|INTERRES
    91   44  169 1    
    92   45   46 2    
    93   45   47 1    
    94   47   48 1    
    95   47   49 1    
    96   47  170 1    
    97   48  171 1    
    98   48  172 1    
    99   48  173 1    
   100   49   50 am   BACKBONE|DICT|INTERRES
   101   49  174 1    
   102   50   51 2    
   103   50   52 1    
   104   52   53 1    
   105   52   54 1    
   106   52  175 1    
   107   53  176 1    
   108   53  177 1    
   109   53  178 1    
   110   54   55 am   BACKBONE|DICT|INTERRES
   111   54  179 1    
   112   55   56 2    
   113   55   57 1    
   114   57   58 1    
   115   57   59 1    
   116   57  180 1    
   117   58  181 1    
   118   58  182 1    
   119   58  183 1    
   120   59   60 am   BACKBONE|DICT|INTERRES
   121   59  184 1    
   122   60   61 2    
   123   60   62 1    
   124   62   63 1    
   125   62   64 1    
   126   62  185 1    
   127   63  186 1    
   128   63  187 1    
   129   63  188 1    
   130   64   65 am   BACKBONE|DICT|INTERRES
   131   64  189 1    
   132   65   66 2    
   133   67   68 2    
   134   67   69 am   BACKBONE|DICT|INTERRES
   135   69   70 1    
   136   69  190 1    
   137   70   71 1    
   138   70   72 1    
   139   70  191 1    
   140   71  192 1    
   141   71  193 1    
   142   71  194 1    
   143   72   73 2    
   144   72   74 am   BACKBONE|DICT|INTERRES
   145   74   75 1    
   146   74  195 1    
   147   75   76 1    
   148   75   77 1    
   149   75  196 1    
   150   76  197 1    
   151   76  198 1    
   152   76  199 1    
   153   77   78 2    
   154   77   79 am   BACKBONE|DICT|INTERRES
   155   79   80 1    
   156   79  200 1    
   157   80   81 1    
   158   80   82 1    
   159   80  201 1    
   160   81  202 1    
   161   81  203 1    
   162   81  204 1    
   163   82   83 2    
   164   82   84 am   BACKBONE|DICT|INTERRES
   165   84   85 1    
   166   84  205 1    
   167   85   86 1    
   168   85   87 1    
   169   85  206 1    
   170   86  207 1    
   171   86  208 1    
   172   86  209 1    
   173   87   88 2    
   174   87   89 am   BACKBONE|DICT|INTERRES
   175   89   90 1    
   176   89  210 1    
   177   90   91 1    
   178   90   92 1    
   179   90  211 1    
   180   91  212 1    
   181   91  213 1    
   182   91  214 1    
   183   92   93 2    
   184   92   94 am   BACKBONE|DICT|INTERRES
   185   94   95 1    
   186   94  215 1    
   187   95   96 1    
   188   95   97 1    
   189   95  216 1    
   190   96  217 1    
   191   96  218 1    
   192   96  219 1    
   193   97   98 2    
   194   97   99 am   BACKBONE|DICT|INTERRES
   195   99  100 1    
   196   99  220 1    
   197  100  101 1    
   198  100  102 1    
   199  100  221 1    
   200  101  222 1    
   201  101  223 1    
   202  101  224 1    
   203  102  103 2    
   204  102  104 am   BACKBONE|DICT|INTERRES
   205  104  105 1    
   206  104  225 1    
   207  105  106 1    
   208  105  107 1    
   209  105  226 1    
   210  106  227 1    
   211  106  228 1    
   212  106  229 1    
   213  107  108 2    
   214  107  109 am   BACKBONE|DICT|INTERRES
   215  109  110 1    
   216  109  230 1    
   217  110  111 1    
   218  110  112 1    
   219  110  231 1    
   220  111  232 1    
   221  111  233 1    
   222  111  234 1    
   223  112  113 2    
   224  112  114 am   BACKBONE|DICT|INTERRES
   225  114  115 1    
   226  114  235 1    
   227  115  116 1    
   228  115  117 1    
   229  115  236 1    
   230  116  237 1    
   231  116  238 1    
   232  116  239 1    
   233  117  118 2    
   234  117  119 am   BACKBONE|DICT|INTERRES
   235  119  120 1    
   236  119  240 1    
   237  120  121 1    
   238  120  124 1    
   239  120  241 1    
   240  121  122 am   BACKBONE|DICT|INTERRES
   241  121  123 2    
   242  122  242 1    
   243  122  243 1    
   244  124  125 1    
   245  124  244 1    
   246  124  245 1    
   247  125  126 1    
   248  126  246 1    
   249  126  247 1    
@<TRIPOS>SUBSTRUCTURE
     1 UNK         1 GROUP             0       ****    0 ROOT    
