@<TRIPOS>MOLECULE
3R540
247   249    1
SMALL
USER_CHARGES


@<TRIPOS>ATOM
      1 CA         -0.9248  -14.7769  -44.3276 C.3       0 UNK        -0.1800 
      2 C          -0.0421  -13.7555  -45.0281 C.2       0 UNK         0.5000 
      3 O          -0.0335  -12.5893  -44.6323 O.2       0 UNK        -0.5000 
      4 N           0.6849  -14.1835  -46.0662 N.am      1 UNK        -0.5000 
      5 CA          1.5748  -13.3480  -46.8773 C.3       1 UNK         0.1400 
      6 C6          0.9760  -12.9933  -48.2685 C.3       23 UNK        -0.0398 
      7 S7         -0.6709  -12.2017  -48.1876 S.3       23 UNK        -0.2404 
      8 C8         -1.4985  -12.8324  -49.6921 C.3       23 UNK        -0.0205 
      9 C9         -1.4560  -14.3504  -49.8546 C.ar      23 UNK        -0.0193 
     10 C10        -1.2226  -14.9011  -51.1179 C.ar      23 UNK        -0.1150 
     11 C11        -1.1453  -16.2862  -51.2918 C.ar      23 UNK        -0.0193 
     12 C12        -1.2885  -17.1273  -50.1844 C.ar      23 UNK        -0.1150 
     13 C13        -1.5228  -16.5888  -48.9158 C.ar      23 UNK        -0.0193 
     14 C14        -1.6272  -15.2048  -48.7609 C.ar      23 UNK        -0.1150 
     15 C15        -1.6364  -17.4906  -47.7015 C.3       23 UNK        -0.0205 
     16 S16        -0.0062  -17.7165  -46.9247 S.3       23 UNK        -0.2404 
     17 C17        -0.4770  -18.4877  -45.3399 C.3       23 UNK        -0.0398 
     18 CA         -0.3575  -20.0293  -45.3015 C.3       11 UNK         0.1400 
     19 N          -0.5307  -20.5284  -43.9400 N.am      11 UNK        -0.5000 
     20 C          -0.3957  -21.7966  -43.5353 C.2       10 UNK         0.5000 
     21 O          -0.0418  -22.7198  -44.2657 O.2       10 UNK        -0.5000 
     22 CA         -0.7792  -22.0846  -42.0750 C.3       10 UNK         0.1400 
     23 CB          0.3674  -21.7170  -41.1214 C.3       10 UNK        -0.1800 
     24 N          -1.9914  -21.3661  -41.6810 N.am      10 UNK        -0.5000 
     25 C          -3.2183  -21.6338  -42.1485 C.2       9 UNK         0.5000 
     26 O          -3.4657  -22.5410  -42.9440 O.2       9 UNK        -0.5000 
     27 CA         -4.3505  -20.7064  -41.6686 C.3       9 UNK         0.1400 
     28 CB         -4.8235  -21.1076  -40.2632 C.3       9 UNK        -0.1800 
     29 N          -3.9664  -19.2922  -41.6682 N.am      9 UNK        -0.5000 
     30 C          -3.7265  -18.5826  -42.7790 C.2       8 UNK         0.5000 
     31 O          -3.7940  -19.0496  -43.9152 O.2       8 UNK        -0.5000 
     32 CA         -3.2944  -17.1149  -42.5971 C.3       8 UNK         0.1400 
     33 CB         -4.5155  -16.2181  -42.3464 C.3       8 UNK        -0.1800 
     34 N          -2.2904  -16.8738  -41.5530 N.am      8 UNK        -0.5000 
     35 C          -1.1274  -17.5256  -41.4219 C.2       7 UNK         0.5000 
     36 O          -0.8325  -18.5331  -42.0648 O.2       7 UNK        -0.5000 
     37 CA         -0.1310  -16.9729  -40.3849 C.3       7 UNK         0.1400 
     38 CB         -0.4856  -17.4900  -38.9824 C.3       7 UNK        -0.1800 
     39 N           1.2509  -17.3567  -40.6913 N.am      7 UNK        -0.5000 
     40 C           1.9203  -17.0077  -41.7984 C.2       6 UNK         0.5000 
     41 O           1.4879  -16.2216  -42.6459 O.2       6 UNK        -0.5000 
     42 CA          3.2942  -17.6667  -41.9970 C.3       6 UNK         0.1400 
     43 CB          3.1574  -19.1840  -42.2252 C.3       6 UNK        -0.1800 
     44 N           3.9426  -17.0745  -43.1608 N.am      6 UNK        -0.5000 
     45 C           5.2535  -16.8616  -43.3122 C.2       5 UNK         0.5000 
     46 O           6.0968  -17.1208  -42.4513 O.2       5 UNK        -0.5000 
     47 CA          5.6721  -16.2862  -44.6811 C.3       5 UNK         0.1400 
     48 CB          7.1996  -16.1791  -44.8711 C.3       5 UNK        -0.1800 
     49 N           5.0480  -17.0230  -45.7863 N.am      5 UNK        -0.5000 
     50 C           5.2114  -18.3232  -46.0878 C.2       4 UNK         0.5000 
     51 O           6.0025  -19.0695  -45.5108 O.2       4 UNK        -0.5000 
     52 CA          4.3398  -18.9041  -47.2145 C.3       4 UNK         0.1400 
     53 CB          3.0838  -19.5523  -46.6185 C.3       4 UNK        -0.1800 
     54 N           3.9480  -17.8768  -48.1815 N.am      4 UNK        -0.5000 
     55 C           4.2343  -17.9164  -49.4906 C.2       3 UNK         0.5000 
     56 O           4.7392  -18.8857  -50.0587 O.2       3 UNK        -0.5000 
     57 CA          3.9452  -16.6362  -50.3022 C.3       3 UNK         0.1400 
     58 CB          2.4959  -16.6451  -50.8156 C.3       3 UNK        -0.1800 
     59 N           4.1676  -15.4085  -49.5354 N.am      3 UNK        -0.5000 
     60 C           5.3116  -15.0456  -48.9355 C.2       2 UNK         0.5000 
     61 O           6.3813  -15.6328  -49.0984 O.2       2 UNK        -0.5000 
     62 CA          5.2516  -13.8489  -47.9582 C.3       2 UNK         0.1400 
     63 CB          6.0682  -12.6665  -48.5029 C.3       2 UNK        -0.1800 
     64 N           3.9015  -13.3718  -47.6272 N.am      2 UNK        -0.5000 
     65 C           2.9202  -14.0782  -47.0471 C.2       1 UNK         0.5000 
     66 O           3.0388  -15.2648  -46.7200 O.2       1 UNK        -0.5000 
     67 C          -1.3304  -20.7145  -46.2778 C.2       11 UNK         0.5000 
     68 O          -0.8897  -21.2267  -47.3057 O.2       11 UNK        -0.5000 
     69 N          -2.6241  -20.7510  -45.9239 N.am      12 UNK        -0.5000 
     70 CA         -3.6706  -21.4065  -46.7066 C.3       12 UNK         0.1400 
     71 CB         -5.0460  -21.1377  -46.0814 C.3       12 UNK        -0.1800 
     72 C          -3.4356  -22.9156  -46.8818 C.2       12 UNK         0.5000 
     73 O          -3.6562  -23.4303  -47.9784 O.2       12 UNK        -0.5000 
     74 N          -2.9614  -23.5832  -45.8210 N.am      13 UNK        -0.5000 
     75 CA         -2.5640  -24.9894  -45.8442 C.3       13 UNK         0.1400 
     76 CB         -2.3305  -25.4874  -44.4097 C.3       13 UNK        -0.1800 
     77 C          -1.3271  -25.2336  -46.7284 C.2       13 UNK         0.5000 
     78 O          -1.3609  -26.1252  -47.5766 O.2       13 UNK        -0.5000 
     79 N          -0.2771  -24.4197  -46.5440 N.am      14 UNK        -0.5000 
     80 CA          0.9820  -24.4816  -47.2930 C.3       14 UNK         0.1400 
     81 CB          1.9906  -23.4943  -46.6845 C.3       14 UNK        -0.1800 
     82 C           0.8105  -24.2147  -48.7993 C.2       14 UNK         0.5000 
     83 O           1.4348  -24.8949  -49.6141 O.2       14 UNK        -0.5000 
     84 N          -0.0552  -23.2523  -49.1395 N.am      15 UNK        -0.5000 
     85 CA         -0.4218  -22.8990  -50.5108 C.3       15 UNK         0.1400 
     86 CB         -0.9680  -21.4627  -50.5169 C.3       15 UNK        -0.1800 
     87 C          -1.4263  -23.8768  -51.1575 C.2       15 UNK         0.5000 
     88 O          -1.6985  -23.7313  -52.3476 O.2       15 UNK        -0.5000 
     89 N          -1.9500  -24.8404  -50.3826 N.am      16 UNK        -0.5000 
     90 CA         -2.9359  -25.8621  -50.7481 C.3       16 UNK         0.1400 
     91 CB         -2.4118  -26.7785  -51.8732 C.3       16 UNK        -0.1800 
     92 C          -4.3037  -25.2355  -51.0750 C.2       16 UNK         0.5000 
     93 O          -4.6082  -24.9693  -52.2388 O.2       16 UNK        -0.5000 
     94 N          -5.0827  -24.9741  -50.0158 N.am      17 UNK        -0.5000 
     95 CA         -6.3905  -24.3057  -50.0134 C.3       17 UNK         0.1400 
     96 CB         -7.4459  -25.1397  -50.7700 C.3       17 UNK        -0.1800 
     97 C          -6.2916  -22.8518  -50.5157 C.2       17 UNK         0.5000 
     98 O          -7.1242  -22.4038  -51.3065 O.2       17 UNK        -0.5000 
     99 N          -5.2273  -22.1597  -50.0789 N.am      18 UNK        -0.5000 
    100 CA        -4.8378  -20.8003  -50.4768 C.3       18 UNK         0.1400 
    101 CB        -5.8455  -19.7654  -49.9353 C.3       18 UNK        -0.1800 
    102 C         -4.5950  -20.6602  -51.9953 C.2       18 UNK         0.5000 
    103 O         -4.8203  -19.5850  -52.5461 O.2       18 UNK        -0.5000 
    104 N         -4.1820  -21.7655  -52.6363 N.am      19 UNK        -0.5000 
    105 CA        -3.9816  -21.9828  -54.0745 C.3       19 UNK         0.1400 
    106 CB        -2.9650  -20.9823  -54.6582 C.3       19 UNK        -0.1800 
    107 C         -5.2838  -22.0303  -54.9033 C.2       19 UNK         0.5000 
    108 O         -5.2025  -22.1267  -56.1285 O.2       19 UNK        -0.5000 
    109 N         -6.4459  -21.9757  -54.2336 N.am      20 UNK        -0.5000 
    110 CA        -7.8111  -21.9390  -54.7695 C.3       20 UNK         0.1400 
    111 CB        -8.2581  -23.3790  -55.0916 C.3       20 UNK        -0.1800 
    112 C         -8.0179  -20.9658  -55.9631 C.2       20 UNK         0.5000 
    113 O         -8.3788  -21.4162  -57.0510 O.2       20 UNK        -0.5000 
    114 N         -7.7944  -19.6519  -55.8170 N.am      21 UNK        -0.5000 
    115 CA        -7.3683  -18.9101  -54.6340 C.3       21 UNK         0.1400 
    116 CB        -8.6014  -18.4219  -53.8569 C.3       21 UNK        -0.1800 
    117 C         -6.4952  -17.7297  -55.0865 C.2       21 UNK         0.5000 
    118 O         -6.7244  -17.1942  -56.1748 O.2       21 UNK        -0.5000 
    119 N         -5.5360  -17.3282  -54.2424 N.am      22 UNK        -0.5000 
    120 CA        -4.6618  -16.1564  -54.4524 C.3       22 UNK         0.1400 
    121 C         -5.3988  -14.7827  -54.4945 C.2       22 UNK         0.5000 
    122 N         -6.6144  -14.6600  -53.9746 N.am      22 UNK        -0.7600 
    123 O         -4.8546  -13.8101  -55.0103 O.2       22 UNK        -0.5000 
    124 C124       -3.5091  -16.0866  -53.4159 C.3       23 UNK        -0.0398 
    125 S125       -2.4008  -17.5348  -53.4390 S.3       23 UNK        -0.2404 
    126 C126       -0.8882  -16.8670  -52.6752 C.3       23 UNK        -0.0205 
    127 H127       -0.8273  -14.6828  -43.2461 H         1 UNK         0.0600 
    128 H128       -1.9693  -14.6173  -44.5944 H         1 UNK         0.0600 
    129 H129       -0.6505  -15.7936  -44.5996 H         1 UNK         0.0600 
    130 H130        0.7038  -15.1676  -46.3014 H         1 UNK         0.3000 
    131 H131        1.7926  -12.4186  -46.3474 H         1 UNK         0.0600 
    132 H132        1.6307  -12.3041  -48.8039 H         1 UNK         0.0800 
    133 H133        0.9236  -13.8901  -48.8860 H         1 UNK         0.0800 
    134 H134       -2.5413  -12.5135  -49.6777 H         1 UNK         0.0800 
    135 H135       -1.0401  -12.3478  -50.5555 H         1 UNK         0.0800 
    136 H136       -1.0953  -14.2490  -51.9706 H         1 UNK         0.1150 
    137 H137       -1.2099  -18.1982  -50.3099 H         1 UNK         0.1150 
    138 H138       -1.8057  -14.7917  -47.7783 H         1 UNK         0.1150 
    139 H139       -2.3349  -17.0567  -46.9843 H         1 UNK         0.0800 
    140 H140       -2.0470  -18.4585  -47.9918 H         1 UNK         0.0800 
    141 H141       -1.4806  -18.1694  -45.0583 H         1 UNK         0.0800 
    142 H142        0.1868  -18.0649  -44.5842 H         1 UNK         0.0800 
    143 H143        0.6514  -20.3061  -45.6057 H         1 UNK         0.0600 
    144 H144       -0.7824  -19.8322  -43.2389 H         1 UNK         0.3000 
    145 H145       -0.9691  -23.1562  -41.9847 H         1 UNK         0.0600 
    146 H146        0.5643  -20.6450  -41.1221 H         1 UNK         0.0600 
    147 H147        0.1373  -22.0130  -40.0979 H         1 UNK         0.0600 
    148 H148        1.2912  -22.2220  -41.4068 H         1 UNK         0.0600 
    149 H149       -1.8655  -20.5557  -41.0923 H         1 UNK         0.3000 
    150 H150       -5.1904  -20.8289  -42.3560 H         1 UNK         0.0600 
    151 H151       -5.1288  -22.1545  -40.2387 H         1 UNK         0.0600 
    152 H152       -5.6824  -20.5126  -39.9521 H         1 UNK         0.0600 
    153 H153       -4.0372  -20.9772  -39.5188 H         1 UNK         0.0600 
    154 H154       -3.8715  -18.8383  -40.7717 H         1 UNK         0.3000 
    155 H155       -2.8461  -16.8033  -43.5413 H         1 UNK         0.0600 
    156 H156       -5.2745  -16.3654  -43.1161 H         1 UNK         0.0600 
    157 H157       -4.2403  -15.1633  -42.3632 H         1 UNK         0.0600 
    158 H158       -4.9796  -16.4296  -41.3823 H         1 UNK         0.0600 
    159 H159       -2.4626  -16.0779  -40.9560 H         1 UNK         0.3000 
    160 H160       -0.1907  -15.8828  -40.3916 H         1 UNK         0.0600 
    161 H161        0.1899  -17.0835  -38.2294 H         1 UNK         0.0600 
    162 H162       -0.4313  -18.5784  -38.9297 H         1 UNK         0.0600 
    163 H163       -1.4975  -17.1980  -38.6986 H         1 UNK         0.0600 
    164 H164        1.6732  -18.0224  -40.0616 H         1 UNK         0.3000 
    165 H165        3.8913  -17.4795  -41.1022 H         1 UNK         0.0600 
    166 H166        4.1216  -19.6383  -42.4543 H         1 UNK         0.0600 
    167 H167        2.7721  -19.6829  -41.3362 H         1 UNK         0.0600 
    168 H168        2.4794  -19.4073  -43.0507 H         1 UNK         0.0600 
    169 H169        3.3016  -16.7575  -43.8768 H         1 UNK         0.3000 
    170 H170        5.2672  -15.2739  -44.7216 H         1 UNK         0.0600 
    171 H171        7.6382  -15.5190  -44.1220 H         1 UNK         0.0600 
    172 H172        7.6922  -17.1472  -44.7792 H         1 UNK         0.0600 
    173 H173        7.4470  -15.7695  -45.8505 H         1 UNK         0.0600 
    174 H174        4.3272  -16.4991  -46.2736 H         1 UNK         0.3000 
    175 H175        4.9259  -19.6853  -47.7027 H         1 UNK         0.0600 
    176 H176        2.4181  -19.9230  -47.3986 H         1 UNK         0.0600 
    177 H177        3.3457  -20.3980  -45.9814 H         1 UNK         0.0600 
    178 H178        2.5295  -18.8426  -46.0048 H         1 UNK         0.0600 
    179 H179        3.5151  -17.0402  -47.8105 H         1 UNK         0.3000 
    180 H180        4.6204  -16.6223  -51.1600 H         1 UNK         0.0600 
    181 H181        1.7773  -16.6308  -49.9944 H         1 UNK         0.0600 
    182 H182        2.2964  -17.5388  -51.4080 H         1 UNK         0.0600 
    183 H183        2.2938  -15.7833  -51.4518 H         1 UNK         0.0600 
    184 H184        3.3502  -14.8498  -49.3491 H         1 UNK         0.3000 
    185 H185        5.7165  -14.1807  -47.0283 H         1 UNK         0.0600 
    186 H186        6.1171  -11.8528  -47.7790 H         1 UNK         0.0600 
    187 H187        7.0948  -12.9641  -48.7209 H         1 UNK         0.0600 
    188 H188        5.6380  -12.2727  -49.4246 H         1 UNK         0.0600 
    189 H189        3.7206  -12.4072  -47.8657 H         1 UNK         0.3000 
    190 H190       -2.9260  -20.2772  -45.0762 H         1 UNK         0.3000 
    191 H191       -3.6588  -20.9554  -47.6990 H         1 UNK         0.0600 
    192 H192       -5.1033  -21.5124  -45.0589 H         1 UNK         0.0600 
    193 H193       -5.8384  -21.6195  -46.6558 H         1 UNK         0.0600 
    194 H194       -5.2654  -20.0702  -46.0594 H         1 UNK         0.0600 
    195 H195       -2.8455  -23.0892  -44.9436 H         1 UNK         0.3000 
    196 H196       -3.3917  -25.5633  -46.2663 H         1 UNK         0.0600 
    197 H197       -1.5306  -24.9381  -43.9135 H         1 UNK         0.0600 
    198 H198       -2.0573  -26.5432  -44.4029 H         1 UNK         0.0600 
    199 H199       -3.2315  -25.3800  -43.8053 H         1 UNK         0.0600 
    200 H200       -0.3217  -23.7228  -45.8035 H         1 UNK         0.3000 
    201 H201        1.3835  -25.4907  -47.1804 H         1 UNK         0.0600 
    202 H202        1.6207  -22.4690  -46.7218 H         1 UNK         0.0600 
    203 H203        2.9400  -23.5213  -47.2207 H         1 UNK         0.0600 
    204 H204        2.1991  -23.7360  -45.6423 H         1 UNK         0.0600 
    205 H205       -0.4770  -22.6916  -48.4018 H         1 UNK         0.3000 
    206 H206        0.4790  -22.9162  -51.1277 H         1 UNK         0.0600 
    207 H207       -0.2091  -20.7528  -50.1870 H         1 UNK         0.0600 
    208 H208       -1.2885  -21.1569  -51.5137 H         1 UNK         0.0600 
    209 H209       -1.8198  -21.3687  -49.8465 H         1 UNK         0.0600 
    210 H210       -1.6590  -24.8628  -49.4133 H         1 UNK         0.3000 
    211 H211       -3.0667  -26.4880  -49.8640 H         1 UNK         0.0600 
    212 H212       -2.2713  -26.2442  -52.8129 H         1 UNK         0.0600 
    213 H213       -3.1136  -27.5905  -52.0663 H         1 UNK         0.0600 
    214 H214       -1.4583  -27.2301  -51.5993 H         1 UNK         0.0600 
    215 H215       -4.6882  -25.1340  -49.0975 H         1 UNK         0.3000 
    216 H216       -6.7033  -24.2459  -48.9700 H         1 UNK         0.0600 
    217 H217       -7.4885  -26.1604  -50.3901 H         1 UNK         0.0600 
    218 H218       -8.4403  -24.7078  -50.6518 H         1 UNK         0.0600 
    219 H219       -7.2387  -25.1875  -51.8394 H         1 UNK         0.0600 
    220 H220       -4.5972  -22.6368  -49.4386 H         1 UNK         0.3000 
    221 H221       -3.8820  -20.5917  -50.0018 H         1 UNK         0.0600 
    222 H222       -6.8165  -19.8506  -50.4241 H         1 UNK         0.0600 
    223 H223       -5.9973  -19.8858  -48.8628 H         1 UNK         0.0600 
    224 H224       -5.4866  -18.7483  -50.0979 H         1 UNK         0.0600 
    225 H225       -4.0573  -22.6042  -52.0848 H         1 UNK         0.3000 
    226 H226       -3.5446  -22.9785  -54.1583 H         1 UNK         0.0600 
    227 H227       -2.0753  -20.9077  -54.0329 H         1 UNK         0.0600 
    228 H228       -2.6391  -21.2932  -55.6511 H         1 UNK         0.0600 
    229 H229       -3.3956  -19.9862  -54.7582 H         1 UNK         0.0600 
    230 H230       -6.3956  -21.9417  -53.2214 H         1 UNK         0.3000 
    231 H231       -8.4482  -21.5771  -53.9618 H         1 UNK         0.0600 
    232 H232       -8.1879  -24.0173  -54.2104 H         1 UNK         0.0600 
    233 H233       -7.6454  -23.8243  -55.8762 H         1 UNK         0.0600 
    234 H234       -9.2956  -23.4036  -55.4271 H         1 UNK         0.0600 
    235 H235       -7.8684  -19.0606  -56.6345 H         1 UNK         0.3000 
    236 H236       -6.7776  -19.5331  -53.9764 H         1 UNK         0.0600 
    237 H237       -9.2191  -19.2558  -53.5241 H         1 UNK         0.0600 
    238 H238       -8.3051  -17.8653  -52.9670 H         1 UNK         0.0600 
    239 H239       -9.2252  -17.7653  -54.4647 H         1 UNK         0.0600 
    240 H240       -5.3376  -17.8940  -53.4214 H         1 UNK         0.3000 
    241 H241       -4.2077  -16.2803  -55.4373 H         1 UNK         0.0600 
    242 H242       -7.0820  -13.7677  -54.0116 H         1 UNK         0.3800 
    243 H243       -7.0714  -15.4480  -53.5459 H         1 UNK         0.3800 
    244 H244       -3.9121  -15.9805  -52.4071 H         1 UNK         0.0800 
    245 H245       -2.8967  -15.2013  -53.5964 H         1 UNK         0.0800 
    246 H246       -0.1492  -17.6660  -52.6008 H         1 UNK         0.0800 
    247 H247       -0.4552  -16.1135  -53.3348 H         1 UNK         0.0800 
@<TRIPOS>BOND
     1    1    2 1    
     2    1  127 1    
     3    1  128 1    
     4    1  129 1    
     5    2    3 2    
     6    2    4 am   BACKBONE|DICT|INTERRES
     7    4    5 1    
     8    4  130 1    
     9    5    6 1    
    10    5   65 1    
    11    5  131 1    
    12    6    7 1    
    13    6  132 1    
    14    6  133 1    
    15    7    8 1    
    16    8    9 1    
    17    8  134 1    
    18    8  135 1    
    19    9   10 ar   
    20    9   14 ar   
    21   10   11 ar   
    22   10  136 1    
    23   11   12 ar   
    24   11  126 1    
    25   12   13 ar   
    26   12  137 1    
    27   13   14 ar   
    28   13   15 1    
    29   14  138 1    
    30   15   16 1    
    31   15  139 1    
    32   15  140 1    
    33   16   17 1    
    34   17   18 1    
    35   17  141 1    
    36   17  142 1    
    37   18   19 1    
    38   18   67 1    
    39   18  143 1    
    40   19   20 am   BACKBONE|DICT|INTERRES
    41   19  144 1    
    42   20   21 2    
    43   20   22 1    
    44   22   23 1    
    45   22   24 1    
    46   22  145 1    
    47   23  146 1    
    48   23  147 1    
    49   23  148 1    
    50   24   25 am   BACKBONE|DICT|INTERRES
    51   24  149 1    
    52   25   26 2    
    53   25   27 1    
    54   27   28 1    
    55   27   29 1    
    56   27  150 1    
    57   28  151 1    
    58   28  152 1    
    59   28  153 1    
    60   29   30 am   BACKBONE|DICT|INTERRES
    61   29  154 1    
    62   30   31 2    
    63   30   32 1    
    64   32   33 1    
    65   32   34 1    
    66   32  155 1    
    67   33  156 1    
    68   33  157 1    
    69   33  158 1    
    70   34   35 am   BACKBONE|DICT|INTERRES
    71   34  159 1    
    72   35   36 2    
    73   35   37 1    
    74   37   38 1    
    75   37   39 1    
    76   37  160 1    
    77   38  161 1    
    78   38  162 1    
    79   38  163 1    
    80   39   40 am   BACKBONE|DICT|INTERRES
    81   39  164 1    
    82   40   41 2    
    83   40   42 1    
    84   42   43 1    
    85   42   44 1    
    86   42  165 1    
    87   43  166 1    
    88   43  167 1    
    89   43  168 1    
    90   44   45 am   BACKBONE|DICT|INTERRES
    91   44  169 1    
    92   45   46 2    
    93   45   47 1    
    94   47   48 1    
    95   47   49 1    
    96   47  170 1    
    97   48  171 1    
    98   48  172 1    
    99   48  173 1    
   100   49   50 am   BACKBONE|DICT|INTERRES
   101   49  174 1    
   102   50   51 2    
   103   50   52 1    
   104   52   53 1    
   105   52   54 1    
   106   52  175 1    
   107   53  176 1    
   108   53  177 1    
   109   53  178 1    
   110   54   55 am   BACKBONE|DICT|INTERRES
   111   54  179 1    
   112   55   56 2    
   113   55   57 1    
   114   57   58 1    
   115   57   59 1    
   116   57  180 1    
   117   58  181 1    
   118   58  182 1    
   119   58  183 1    
   120   59   60 am   BACKBONE|DICT|INTERRES
   121   59  184 1    
   122   60   61 2    
   123   60   62 1    
   124   62   63 1    
   125   62   64 1    
   126   62  185 1    
   127   63  186 1    
   128   63  187 1    
   129   63  188 1    
   130   64   65 am   BACKBONE|DICT|INTERRES
   131   64  189 1    
   132   65   66 2    
   133   67   68 2    
   134   67   69 am   BACKBONE|DICT|INTERRES
   135   69   70 1    
   136   69  190 1    
   137   70   71 1    
   138   70   72 1    
   139   70  191 1    
   140   71  192 1    
   141   71  193 1    
   142   71  194 1    
   143   72   73 2    
   144   72   74 am   BACKBONE|DICT|INTERRES
   145   74   75 1    
   146   74  195 1    
   147   75   76 1    
   148   75   77 1    
   149   75  196 1    
   150   76  197 1    
   151   76  198 1    
   152   76  199 1    
   153   77   78 2    
   154   77   79 am   BACKBONE|DICT|INTERRES
   155   79   80 1    
   156   79  200 1    
   157   80   81 1    
   158   80   82 1    
   159   80  201 1    
   160   81  202 1    
   161   81  203 1    
   162   81  204 1    
   163   82   83 2    
   164   82   84 am   BACKBONE|DICT|INTERRES
   165   84   85 1    
   166   84  205 1    
   167   85   86 1    
   168   85   87 1    
   169   85  206 1    
   170   86  207 1    
   171   86  208 1    
   172   86  209 1    
   173   87   88 2    
   174   87   89 am   BACKBONE|DICT|INTERRES
   175   89   90 1    
   176   89  210 1    
   177   90   91 1    
   178   90   92 1    
   179   90  211 1    
   180   91  212 1    
   181   91  213 1    
   182   91  214 1    
   183   92   93 2    
   184   92   94 am   BACKBONE|DICT|INTERRES
   185   94   95 1    
   186   94  215 1    
   187   95   96 1    
   188   95   97 1    
   189   95  216 1    
   190   96  217 1    
   191   96  218 1    
   192   96  219 1    
   193   97   98 2    
   194   97   99 am   BACKBONE|DICT|INTERRES
   195   99  100 1    
   196   99  220 1    
   197  100  101 1    
   198  100  102 1    
   199  100  221 1    
   200  101  222 1    
   201  101  223 1    
   202  101  224 1    
   203  102  103 2    
   204  102  104 am   BACKBONE|DICT|INTERRES
   205  104  105 1    
   206  104  225 1    
   207  105  106 1    
   208  105  107 1    
   209  105  226 1    
   210  106  227 1    
   211  106  228 1    
   212  106  229 1    
   213  107  108 2    
   214  107  109 am   BACKBONE|DICT|INTERRES
   215  109  110 1    
   216  109  230 1    
   217  110  111 1    
   218  110  112 1    
   219  110  231 1    
   220  111  232 1    
   221  111  233 1    
   222  111  234 1    
   223  112  113 2    
   224  112  114 am   BACKBONE|DICT|INTERRES
   225  114  115 1    
   226  114  235 1    
   227  115  116 1    
   228  115  117 1    
   229  115  236 1    
   230  116  237 1    
   231  116  238 1    
   232  116  239 1    
   233  117  118 2    
   234  117  119 am   BACKBONE|DICT|INTERRES
   235  119  120 1    
   236  119  240 1    
   237  120  121 1    
   238  120  124 1    
   239  120  241 1    
   240  121  122 am   BACKBONE|DICT|INTERRES
   241  121  123 2    
   242  122  242 1    
   243  122  243 1    
   244  124  125 1    
   245  124  244 1    
   246  124  245 1    
   247  125  126 1    
   248  126  246 1    
   249  126  247 1    
@<TRIPOS>SUBSTRUCTURE
     1 UNK         1 GROUP             0       ****    0 ROOT    
