@<TRIPOS>MOLECULE
3R540
247   249    1
SMALL
USER_CHARGES


@<TRIPOS>ATOM
      1 CA         -0.9029   -8.3718  -50.4473 C.3       0 UNK        -0.1800 
      2 C          -0.7962   -9.4577  -49.3860 C.2       0 UNK         0.5000 
      3 O          -1.8066   -9.8403  -48.7960 O.2       0 UNK        -0.5000 
      4 N           0.4201   -9.9527  -49.1404 N.am      1 UNK        -0.5000 
      5 CA          0.7203  -11.0143  -48.1851 C.3       1 UNK         0.1400 
      6 C6          0.7654  -10.4754  -46.7277 C.3       23 UNK        -0.0398 
      7 S7          1.4019  -11.6071  -45.4414 S.3       23 UNK        -0.2404 
      8 C8         -0.0676  -12.6007  -45.0264 C.3       23 UNK        -0.0205 
      9 C9         -0.2238  -13.7603  -45.9945 C.ar      23 UNK        -0.0193 
     10 C10        -1.1922  -13.7252  -47.0007 C.ar      23 UNK        -0.1150 
     11 C11        -1.2634  -14.7535  -47.9421 C.ar      23 UNK        -0.0193 
     12 C12        -0.3850  -15.8339  -47.8487 C.ar      23 UNK        -0.1150 
     13 C13         0.5584  -15.9110  -46.8160 C.ar      23 UNK        -0.0193 
     14 C14         0.6308  -14.8617  -45.8978 C.ar      23 UNK        -0.1150 
     15 C15         1.5309  -17.0818  -46.6517 C.3       23 UNK        -0.0205 
     16 S16         1.2537  -18.5250  -47.7353 S.3       23 UNK        -0.2404 
     17 C17        -0.4369  -19.0305  -47.2796 C.3       23 UNK        -0.0398 
     18 CA         -0.5279  -20.5118  -46.8407 C.3       11 UNK         0.1400 
     19 N          -0.4370  -20.6838  -45.3881 N.am      11 UNK        -0.5000 
     20 C          -0.3944  -21.8705  -44.7633 C.2       10 UNK         0.5000 
     21 O          -0.3201  -22.9527  -45.3465 O.2       10 UNK        -0.5000 
     22 CA         -0.5366  -21.8454  -43.2317 C.3       10 UNK         0.1400 
     23 CB          0.8079  -21.5709  -42.5414 C.3       10 UNK        -0.1800 
     24 N          -1.5268  -20.8580  -42.8008 N.am      10 UNK        -0.5000 
     25 C          -2.8484  -20.9911  -42.9838 C.2       9 UNK         0.5000 
     26 O          -3.3691  -21.9823  -43.4956 O.2       9 UNK        -0.5000 
     27 CA         -3.7317  -19.8040  -42.5556 C.3       9 UNK         0.1400 
     28 CB         -4.0666  -19.8932  -41.0595 C.3       9 UNK        -0.1800 
     29 N          -3.1153  -18.5060  -42.8362 N.am      9 UNK        -0.5000 
     30 C          -2.8841  -18.0235  -44.0656 C.2       8 UNK         0.5000 
     31 O          -3.1990  -18.6098  -45.0993 O.2       8 UNK        -0.5000 
     32 CA         -2.1201  -16.6897  -44.1566 C.3       8 UNK         0.1400 
     33 CB         -3.0913  -15.5019  -44.1007 C.3       8 UNK        -0.1800 
     34 N          -1.0980  -16.5346  -43.1179 N.am      8 UNK        -0.5000 
     35 C          -0.0549  -17.3558  -42.9423 C.2       7 UNK         0.5000 
     36 O           0.1586  -18.3578  -43.6314 O.2       7 UNK        -0.5000 
     37 CA          0.8637  -17.0343  -41.7600 C.3       7 UNK         0.1400 
     38 CB          0.2432  -17.5346  -40.4428 C.3       7 UNK        -0.1800 
     39 N           2.1571  -17.6750  -41.9659 N.am      7 UNK        -0.5000 
     40 C           3.3132  -17.2598  -41.4370 C.2       6 UNK         0.5000 
     41 O           3.4094  -16.2712  -40.7081 O.2       6 UNK        -0.5000 
     42 CA          4.5792  -18.0844  -41.7468 C.3       6 UNK         0.1400 
     43 CB          4.9665  -18.9397  -40.5297 C.3       6 UNK        -0.1800 
     44 N           4.4710  -18.9611  -42.9161 N.am      6 UNK        -0.5000 
     45 C           4.4282  -18.5413  -44.1857 C.2       5 UNK         0.5000 
     46 O           4.3956  -17.3533  -44.5183 O.2       5 UNK        -0.5000 
     47 CA          4.4272  -19.6408  -45.2572 C.3       5 UNK         0.1400 
     48 CB          3.1053  -20.4282  -45.2606 C.3       5 UNK        -0.1800 
     49 N           4.6550  -19.0197  -46.5557 N.am      5 UNK        -0.5000 
     50 C           5.2220  -19.6069  -47.6137 C.2       4 UNK         0.5000 
     51 O           5.5407  -20.7966  -47.6418 O.2       4 UNK        -0.5000 
     52 CA          5.5034  -18.7251  -48.8482 C.3       4 UNK         0.1400 
     53 CB          4.4823  -19.0021  -49.9627 C.3       4 UNK        -0.1800 
     54 N           5.5271  -17.2837  -48.5814 N.am      4 UNK        -0.5000 
     55 C           6.4528  -16.6358  -47.8580 C.2       3 UNK         0.5000 
     56 O           7.3734  -17.2069  -47.2722 O.2       3 UNK        -0.5000 
     57 CA          6.3576  -15.0953  -47.8008 C.3       3 UNK         0.1400 
     58 CB          7.6867  -14.4472  -48.2255 C.3       3 UNK        -0.1800 
     59 N           5.2928  -14.5716  -48.6628 N.am      3 UNK        -0.5000 
     60 C           4.0708  -14.2224  -48.2460 C.2       2 UNK         0.5000 
     61 O           3.7112  -14.2607  -47.0688 O.2       2 UNK        -0.5000 
     62 CA          3.0819  -13.8175  -49.3528 C.3       2 UNK         0.1400 
     63 CB          2.5053  -15.0661  -50.0421 C.3       2 UNK        -0.1800 
     64 N           1.9779  -13.0177  -48.8268 N.am      2 UNK        -0.5000 
     65 C           2.0123  -11.6885  -48.6763 C.2       1 UNK         0.5000 
     66 O           2.9868  -10.9875  -48.9632 O.2       1 UNK        -0.5000 
     67 C          -1.8114  -21.1542  -47.3998 C.2       11 UNK         0.5000 
     68 O          -1.7241  -21.9080  -48.3649 O.2       11 UNK        -0.5000 
     69 N          -2.9674  -20.8753  -46.7784 N.am      12 UNK        -0.5000 
     70 CA         -4.2668  -21.4346  -47.1560 C.3       12 UNK         0.1400 
     71 CB         -5.3805  -20.8179  -46.2984 C.3       12 UNK        -0.1800 
     72 C          -4.3056  -22.9695  -47.0776 C.2       12 UNK         0.5000 
     73 O          -4.8361  -23.6012  -47.9910 O.2       12 UNK        -0.5000 
     74 N          -3.7088  -23.5405  -46.0221 N.am      13 UNK        -0.5000 
     75 CA         -3.5394  -24.9829  -45.8484 C.3       13 UNK         0.1400 
     76 CB         -2.9716  -25.2751  -44.4514 C.3       13 UNK        -0.1800 
     77 C          -2.6620  -25.6089  -46.9486 C.2       13 UNK         0.5000 
     78 O          -3.0678  -26.6038  -47.5512 O.2       13 UNK        -0.5000 
     79 N          -1.5062  -24.9878  -47.2290 N.am      14 UNK        -0.5000 
     80 CA         -0.5839  -25.3848  -48.2987 C.3       14 UNK         0.1400 
     81 CB          0.7058  -24.5568  -48.1923 C.3       14 UNK        -0.1800 
     82 C          -1.1996  -25.2610  -49.7077 C.2       14 UNK         0.5000 
     83 O          -0.9346  -26.1002  -50.5684 O.2       14 UNK        -0.5000 
     84 N          -2.0461  -24.2423  -49.8972 N.am      15 UNK        -0.5000 
     85 CA         -2.8244  -23.9654  -51.1038 C.3       15 UNK         0.1400 
     86 CB         -3.1767  -22.4678  -51.1217 C.3       15 UNK        -0.1800 
     87 C          -4.0911  -24.8352  -51.2521 C.2       15 UNK         0.5000 
     88 O          -4.8855  -24.5631  -52.1532 O.2       15 UNK        -0.5000 
     89 N          -4.2649  -25.8454  -50.3852 N.am      16 UNK        -0.5000 
     90 CA         -5.3535  -26.8269  -50.3607 C.3       16 UNK         0.1400 
     91 CB         -5.3416  -27.6955  -51.6366 C.3       16 UNK        -0.1800 
     92 C          -6.7185  -26.1696  -50.0854 C.2       16 UNK         0.5000 
     93 O          -7.6242  -26.2362  -50.9168 O.2       16 UNK        -0.5000 
     94 N          -6.8150  -25.5165  -48.9194 N.am      17 UNK        -0.5000 
     95 CA         -7.9479  -24.7158  -48.4397 C.3       17 UNK         0.1400 
     96 CB         -9.2174  -25.5752  -48.2615 C.3       17 UNK        -0.1800 
     97 C          -8.1663  -23.4622  -49.3103 C.2       17 UNK         0.5000 
     98 O          -9.3004  -23.1256  -49.6544 O.2       17 UNK        -0.5000 
     99 N          -7.0466  -22.8090  -49.6537 N.am      18 UNK        -0.5000 
    100 CA        -6.9239  -21.6009  -50.4750 C.3       18 UNK         0.1400 
    101 CB        -7.5858  -20.3936  -49.7797 C.3       18 UNK        -0.1800 
    102 C         -7.3863  -21.7701  -51.9385 C.2       18 UNK         0.5000 
    103 O         -7.6280  -20.7677  -52.6115 O.2       18 UNK        -0.5000 
    104 N         -7.4602  -23.0142  -52.4330 N.am      19 UNK        -0.5000 
    105 CA        -7.8284  -23.3466  -53.8119 C.3       19 UNK         0.1400 
    106 CB        -8.0179  -24.8648  -53.9407 C.3       19 UNK        -0.1800 
    107 C         -6.8062  -22.8363  -54.8446 C.2       19 UNK         0.5000 
    108 O         -7.2023  -22.3761  -55.9158 O.2       19 UNK        -0.5000 
    109 N         -5.5158  -22.8867  -54.4863 N.am      20 UNK        -0.5000 
    110 CA        -4.4108  -22.3348  -55.2768 C.3       20 UNK         0.1400 
    111 CB        -3.1255  -23.1148  -54.9553 C.3       20 UNK        -0.1800 
    112 C         -4.2072  -20.8156  -55.0711 C.2       20 UNK         0.5000 
    113 O         -3.3362  -20.2402  -55.7252 O.2       20 UNK        -0.5000 
    114 N         -5.0061  -20.1985  -54.1851 N.am      21 UNK        -0.5000 
    115 CA        -4.9949  -18.7868  -53.7836 C.3       21 UNK         0.1400 
    116 CB        -5.3275  -17.8763  -54.9868 C.3       21 UNK        -0.1800 
    117 C         -3.7040  -18.3653  -53.0441 C.2       21 UNK         0.5000 
    118 O         -2.9242  -19.2181  -52.6138 O.2       21 UNK        -0.5000 
    119 N         -3.5306  -17.0501  -52.8603 N.am      22 UNK        -0.5000 
    120 CA        -2.3424  -16.4306  -52.2565 C.3       22 UNK         0.1400 
    121 C         -1.1027  -16.5353  -53.1903 C.2       22 UNK         0.5000 
    122 N          0.0465  -16.9494  -52.6738 N.am      22 UNK        -0.7600 
    123 O         -1.1714  -16.2115  -54.3741 O.2       22 UNK        -0.5000 
    124 C124       -2.6411  -14.9613  -51.8537 C.3       23 UNK        -0.0398 
    125 S125       -1.4425  -14.2970  -50.6479 S.3       23 UNK        -0.2404 
    126 C126       -2.2686  -14.7052  -49.0792 C.3       23 UNK        -0.0205 
    127 H127       -1.3155   -7.4614  -50.0125 H         1 UNK         0.0600 
    128 H128       -1.5633   -8.6968  -51.2513 H         1 UNK         0.0600 
    129 H129        0.0682   -8.1316  -50.8810 H         1 UNK         0.0600 
    130 H130        1.2245   -9.6234  -49.6596 H         1 UNK         0.3000 
    131 H131       -0.0783  -11.7495  -48.2622 H         1 UNK         0.0600 
    132 H132       -0.2279  -10.1369  -46.4310 H         1 UNK         0.0800 
    133 H133        1.3963   -9.5857  -46.6953 H         1 UNK         0.0800 
    134 H134       -0.9598  -11.9730  -45.0124 H         1 UNK         0.0800 
    135 H135        0.0462  -12.9934  -44.0149 H         1 UNK         0.0800 
    136 H136       -1.8621  -12.8797  -47.0759 H         1 UNK         0.1150 
    137 H137       -0.4434  -16.6029  -48.6029 H         1 UNK         0.1150 
    138 H138        1.3782  -14.8886  -45.1167 H         1 UNK         0.1150 
    139 H139        2.5412  -16.7151  -46.8328 H         1 UNK         0.0800 
    140 H140        1.5162  -17.4196  -45.6165 H         1 UNK         0.0800 
    141 H141       -1.0490  -18.8323  -48.1620 H         1 UNK         0.0800 
    142 H142       -0.8306  -18.3780  -46.5016 H         1 UNK         0.0800 
    143 H143        0.3064  -21.0624  -47.2813 H         1 UNK         0.0600 
    144 H144       -0.4460  -19.8406  -44.8235 H         1 UNK         0.3000 
    145 H145       -0.8792  -22.8329  -42.9148 H         1 UNK         0.0600 
    146 H146        0.7065  -21.6029  -41.4566 H         1 UNK         0.0600 
    147 H147        1.2137  -20.5964  -42.8089 H         1 UNK         0.0600 
    148 H148        1.5465  -22.3235  -42.8198 H         1 UNK         0.0600 
    149 H149       -1.1704  -19.9880  -42.4343 H         1 UNK         0.3000 
    150 H150       -4.6658  -19.8639  -43.1179 H         1 UNK         0.0600 
    151 H151       -4.5443  -20.8450  -40.8230 H         1 UNK         0.0600 
    152 H152       -4.7557  -19.1026  -40.7619 H         1 UNK         0.0600 
    153 H153       -3.1728  -19.8113  -40.4396 H         1 UNK         0.0600 
    154 H154       -2.8235  -17.9568  -42.0417 H         1 UNK         0.3000 
    155 H155       -1.6172  -16.6649  -45.1234 H         1 UNK         0.0600 
    156 H156       -3.8410  -15.5753  -44.8897 H         1 UNK         0.0600 
    157 H157       -2.5672  -14.5567  -44.2420 H         1 UNK         0.0600 
    158 H158       -3.6188  -15.4553  -43.1473 H         1 UNK         0.0600 
    159 H159       -1.2079  -15.7443  -42.4992 H         1 UNK         0.3000 
    160 H160        0.9960  -15.9510  -41.7188 H         1 UNK         0.0600 
    161 H161        0.1040  -18.6166  -40.4507 H         1 UNK         0.0600 
    162 H162       -0.7309  -17.0777  -40.2646 H         1 UNK         0.0600 
    163 H163        0.8744  -17.2869  -39.5893 H         1 UNK         0.0600 
    164 H164        2.1479  -18.4562  -42.6076 H         1 UNK         0.3000 
    165 H165        5.3874  -17.3737  -41.9328 H         1 UNK         0.0600 
    166 H166        5.9086  -19.4621  -40.6970 H         1 UNK         0.0600 
    167 H167        5.0947  -18.3212  -39.6403 H         1 UNK         0.0600 
    168 H168        4.2029  -19.6849  -40.3033 H         1 UNK         0.0600 
    169 H169        4.4880  -19.9533  -42.7294 H         1 UNK         0.3000 
    170 H170        5.2542  -20.3209  -45.0425 H         1 UNK         0.0600 
    171 H171        2.2417  -19.7644  -45.2415 H         1 UNK         0.0600 
    172 H172        3.0159  -21.0680  -46.1387 H         1 UNK         0.0600 
    173 H173        3.0409  -21.0749  -44.3867 H         1 UNK         0.0600 
    174 H174        4.4781  -18.0237  -46.5759 H         1 UNK         0.3000 
    175 H175        6.4905  -19.0086  -49.2194 H         1 UNK         0.0600 
    176 H176        3.4804  -18.6792  -49.6809 H         1 UNK         0.0600 
    177 H177        4.7535  -18.4850  -50.8832 H         1 UNK         0.0600 
    178 H178        4.4309  -20.0670  -50.1935 H         1 UNK         0.0600 
    179 H179        4.8025  -16.7362  -49.0186 H         1 UNK         0.3000 
    180 H180        6.1681  -14.8248  -46.7599 H         1 UNK         0.0600 
    181 H181        7.9570  -14.7146  -49.2477 H         1 UNK         0.0600 
    182 H182        8.5044  -14.7623  -47.5760 H         1 UNK         0.0600 
    183 H183        7.6305  -13.3600  -48.1665 H         1 UNK         0.0600 
    184 H184        5.5113  -14.5119  -49.6477 H         1 UNK         0.3000 
    185 H185        3.6196  -13.2330  -50.1027 H         1 UNK         0.0600 
    186 H186        2.0285  -15.7392  -49.3308 H         1 UNK         0.0600 
    187 H187        1.7634  -14.7958  -50.7941 H         1 UNK         0.0600 
    188 H188        3.2864  -15.6316  -50.5510 H         1 UNK         0.0600 
    189 H189        1.1680  -13.5328  -48.5097 H         1 UNK         0.3000 
    190 H190       -2.9722  -20.1903  -46.0261 H         1 UNK         0.3000 
    191 H191       -4.4532  -21.1529  -48.1937 H         1 UNK         0.0600 
    192 H192       -5.4225  -19.7361  -46.4255 H         1 UNK         0.0600 
    193 H193       -5.2357  -21.0257  -45.2387 H         1 UNK         0.0600 
    194 H194       -6.3561  -21.2167  -46.5794 H         1 UNK         0.0600 
    195 H195       -3.3425  -22.9447  -45.2867 H         1 UNK         0.3000 
    196 H196       -4.5282  -25.4418  -45.9121 H         1 UNK         0.0600 
    197 H197       -3.6327  -24.8965  -43.6716 H         1 UNK         0.0600 
    198 H198       -1.9925  -24.8183  -44.3077 H         1 UNK         0.0600 
    199 H199       -2.8604  -26.3482  -44.2918 H         1 UNK         0.0600 
    200 H200       -1.2376  -24.1788  -46.6767 H         1 UNK         0.3000 
    201 H201       -0.3275  -26.4345  -48.1426 H         1 UNK         0.0600 
    202 H202        1.1847  -24.6960  -47.2229 H         1 UNK         0.0600 
    203 H203        0.5122  -23.4911  -48.3177 H         1 UNK         0.0600 
    204 H204        1.4250  -24.8526  -48.9570 H         1 UNK         0.0600 
    205 H205       -2.1313  -23.5541  -49.1528 H         1 UNK         0.3000 
    206 H206       -2.1982  -24.1772  -51.9720 H         1 UNK         0.0600 
    207 H207       -2.2768  -21.8544  -51.1719 H         1 UNK         0.0600 
    208 H208       -3.7196  -22.1823  -50.2229 H         1 UNK         0.0600 
    209 H209       -3.7953  -22.1968  -51.9770 H         1 UNK         0.0600 
    210 H210       -3.5789  -25.9494  -49.6481 H         1 UNK         0.3000 
    211 H211       -5.1515  -27.4877  -49.5164 H         1 UNK         0.0600 
    212 H212       -5.5594  -27.1134  -52.5322 H         1 UNK         0.0600 
    213 H213       -6.0896  -28.4866  -51.5740 H         1 UNK         0.0600 
    214 H214       -4.3727  -28.1746  -51.7766 H         1 UNK         0.0600 
    215 H215       -5.9732  -25.4323  -48.3625 H         1 UNK         0.3000 
    216 H216       -7.6624  -24.3502  -47.4522 H         1 UNK         0.0600 
    217 H217      -10.0053  -25.0049  -47.7683 H         1 UNK         0.0600 
    218 H218       -9.0170  -26.4513  -47.6448 H         1 UNK         0.0600 
    219 H219       -9.6164  -25.9198  -49.2157 H         1 UNK         0.0600 
    220 H220       -6.1753  -23.1809  -49.2843 H         1 UNK         0.3000 
    221 H221       -5.8580  -21.3860  -50.5326 H         1 UNK         0.0600 
    222 H222       -8.6709  -20.4924  -49.7423 H         1 UNK         0.0600 
    223 H223       -7.2237  -20.2781  -48.7586 H         1 UNK         0.0600 
    224 H224       -7.3615  -19.4652  -50.3062 H         1 UNK         0.0600 
    225 H225       -7.2000  -23.7907  -51.8390 H         1 UNK         0.3000 
    226 H226       -8.7847  -22.8655  -54.0271 H         1 UNK         0.0600 
    227 H227       -8.8036  -25.2208  -53.2741 H         1 UNK         0.0600 
    228 H228       -8.3037  -25.1398  -54.9567 H         1 UNK         0.0600 
    229 H229       -7.1029  -25.4061  -53.6974 H         1 UNK         0.0600 
    230 H230       -5.2779  -23.3404  -53.6077 H         1 UNK         0.3000 
    231 H231       -4.6305  -22.4873  -56.3355 H         1 UNK         0.0600 
    232 H232       -2.3237  -22.8405  -55.6419 H         1 UNK         0.0600 
    233 H233       -3.2781  -24.1902  -55.0479 H         1 UNK         0.0600 
    234 H234       -2.7695  -22.9096  -53.9477 H         1 UNK         0.0600 
    235 H235       -5.7067  -20.7614  -53.7221 H         1 UNK         0.3000 
    236 H236       -5.8036  -18.6826  -53.0591 H         1 UNK         0.0600 
    237 H237       -4.4952  -17.8107  -55.6886 H         1 UNK         0.0600 
    238 H238       -6.1949  -18.2483  -55.5324 H         1 UNK         0.0600 
    239 H239       -5.5676  -16.8622  -54.6668 H         1 UNK         0.0600 
    240 H240       -4.2035  -16.4149  -53.2627 H         1 UNK         0.3000 
    241 H241       -2.1301  -16.9899  -51.3427 H         1 UNK         0.0600 
    242 H242        0.8563  -17.0091  -53.2704 H         1 UNK         0.3800 
    243 H243        0.1245  -17.2103  -51.7041 H         1 UNK         0.3800 
    244 H244       -3.6373  -14.8837  -51.4156 H         1 UNK         0.0800 
    245 H245       -2.6537  -14.3118  -52.7308 H         1 UNK         0.0800 
    246 H246       -3.0515  -13.9720  -48.8795 H         1 UNK         0.0800 
    247 H247       -2.7616  -15.6755  -49.1576 H         1 UNK         0.0800 
@<TRIPOS>BOND
     1    1    2 1    
     2    1  127 1    
     3    1  128 1    
     4    1  129 1    
     5    2    3 2    
     6    2    4 am   BACKBONE|DICT|INTERRES
     7    4    5 1    
     8    4  130 1    
     9    5    6 1    
    10    5   65 1    
    11    5  131 1    
    12    6    7 1    
    13    6  132 1    
    14    6  133 1    
    15    7    8 1    
    16    8    9 1    
    17    8  134 1    
    18    8  135 1    
    19    9   10 ar   
    20    9   14 ar   
    21   10   11 ar   
    22   10  136 1    
    23   11   12 ar   
    24   11  126 1    
    25   12   13 ar   
    26   12  137 1    
    27   13   14 ar   
    28   13   15 1    
    29   14  138 1    
    30   15   16 1    
    31   15  139 1    
    32   15  140 1    
    33   16   17 1    
    34   17   18 1    
    35   17  141 1    
    36   17  142 1    
    37   18   19 1    
    38   18   67 1    
    39   18  143 1    
    40   19   20 am   BACKBONE|DICT|INTERRES
    41   19  144 1    
    42   20   21 2    
    43   20   22 1    
    44   22   23 1    
    45   22   24 1    
    46   22  145 1    
    47   23  146 1    
    48   23  147 1    
    49   23  148 1    
    50   24   25 am   BACKBONE|DICT|INTERRES
    51   24  149 1    
    52   25   26 2    
    53   25   27 1    
    54   27   28 1    
    55   27   29 1    
    56   27  150 1    
    57   28  151 1    
    58   28  152 1    
    59   28  153 1    
    60   29   30 am   BACKBONE|DICT|INTERRES
    61   29  154 1    
    62   30   31 2    
    63   30   32 1    
    64   32   33 1    
    65   32   34 1    
    66   32  155 1    
    67   33  156 1    
    68   33  157 1    
    69   33  158 1    
    70   34   35 am   BACKBONE|DICT|INTERRES
    71   34  159 1    
    72   35   36 2    
    73   35   37 1    
    74   37   38 1    
    75   37   39 1    
    76   37  160 1    
    77   38  161 1    
    78   38  162 1    
    79   38  163 1    
    80   39   40 am   BACKBONE|DICT|INTERRES
    81   39  164 1    
    82   40   41 2    
    83   40   42 1    
    84   42   43 1    
    85   42   44 1    
    86   42  165 1    
    87   43  166 1    
    88   43  167 1    
    89   43  168 1    
    90   44   45 am   BACKBONE|DICT|INTERRES
    91   44  169 1    
    92   45   46 2    
    93   45   47 1    
    94   47   48 1    
    95   47   49 1    
    96   47  170 1    
    97   48  171 1    
    98   48  172 1    
    99   48  173 1    
   100   49   50 am   BACKBONE|DICT|INTERRES
   101   49  174 1    
   102   50   51 2    
   103   50   52 1    
   104   52   53 1    
   105   52   54 1    
   106   52  175 1    
   107   53  176 1    
   108   53  177 1    
   109   53  178 1    
   110   54   55 am   BACKBONE|DICT|INTERRES
   111   54  179 1    
   112   55   56 2    
   113   55   57 1    
   114   57   58 1    
   115   57   59 1    
   116   57  180 1    
   117   58  181 1    
   118   58  182 1    
   119   58  183 1    
   120   59   60 am   BACKBONE|DICT|INTERRES
   121   59  184 1    
   122   60   61 2    
   123   60   62 1    
   124   62   63 1    
   125   62   64 1    
   126   62  185 1    
   127   63  186 1    
   128   63  187 1    
   129   63  188 1    
   130   64   65 am   BACKBONE|DICT|INTERRES
   131   64  189 1    
   132   65   66 2    
   133   67   68 2    
   134   67   69 am   BACKBONE|DICT|INTERRES
   135   69   70 1    
   136   69  190 1    
   137   70   71 1    
   138   70   72 1    
   139   70  191 1    
   140   71  192 1    
   141   71  193 1    
   142   71  194 1    
   143   72   73 2    
   144   72   74 am   BACKBONE|DICT|INTERRES
   145   74   75 1    
   146   74  195 1    
   147   75   76 1    
   148   75   77 1    
   149   75  196 1    
   150   76  197 1    
   151   76  198 1    
   152   76  199 1    
   153   77   78 2    
   154   77   79 am   BACKBONE|DICT|INTERRES
   155   79   80 1    
   156   79  200 1    
   157   80   81 1    
   158   80   82 1    
   159   80  201 1    
   160   81  202 1    
   161   81  203 1    
   162   81  204 1    
   163   82   83 2    
   164   82   84 am   BACKBONE|DICT|INTERRES
   165   84   85 1    
   166   84  205 1    
   167   85   86 1    
   168   85   87 1    
   169   85  206 1    
   170   86  207 1    
   171   86  208 1    
   172   86  209 1    
   173   87   88 2    
   174   87   89 am   BACKBONE|DICT|INTERRES
   175   89   90 1    
   176   89  210 1    
   177   90   91 1    
   178   90   92 1    
   179   90  211 1    
   180   91  212 1    
   181   91  213 1    
   182   91  214 1    
   183   92   93 2    
   184   92   94 am   BACKBONE|DICT|INTERRES
   185   94   95 1    
   186   94  215 1    
   187   95   96 1    
   188   95   97 1    
   189   95  216 1    
   190   96  217 1    
   191   96  218 1    
   192   96  219 1    
   193   97   98 2    
   194   97   99 am   BACKBONE|DICT|INTERRES
   195   99  100 1    
   196   99  220 1    
   197  100  101 1    
   198  100  102 1    
   199  100  221 1    
   200  101  222 1    
   201  101  223 1    
   202  101  224 1    
   203  102  103 2    
   204  102  104 am   BACKBONE|DICT|INTERRES
   205  104  105 1    
   206  104  225 1    
   207  105  106 1    
   208  105  107 1    
   209  105  226 1    
   210  106  227 1    
   211  106  228 1    
   212  106  229 1    
   213  107  108 2    
   214  107  109 am   BACKBONE|DICT|INTERRES
   215  109  110 1    
   216  109  230 1    
   217  110  111 1    
   218  110  112 1    
   219  110  231 1    
   220  111  232 1    
   221  111  233 1    
   222  111  234 1    
   223  112  113 2    
   224  112  114 am   BACKBONE|DICT|INTERRES
   225  114  115 1    
   226  114  235 1    
   227  115  116 1    
   228  115  117 1    
   229  115  236 1    
   230  116  237 1    
   231  116  238 1    
   232  116  239 1    
   233  117  118 2    
   234  117  119 am   BACKBONE|DICT|INTERRES
   235  119  120 1    
   236  119  240 1    
   237  120  121 1    
   238  120  124 1    
   239  120  241 1    
   240  121  122 am   BACKBONE|DICT|INTERRES
   241  121  123 2    
   242  122  242 1    
   243  122  243 1    
   244  124  125 1    
   245  124  244 1    
   246  124  245 1    
   247  125  126 1    
   248  126  246 1    
   249  126  247 1    
@<TRIPOS>SUBSTRUCTURE
     1 UNK         1 GROUP             0       ****    0 ROOT    
