@<TRIPOS>MOLECULE
3R540
247   249    1
SMALL
USER_CHARGES


@<TRIPOS>ATOM
      1 CA          5.0093  -16.1178  -52.8008 C.3       0 UNK        -0.1800 
      2 C           4.4941  -15.6026  -51.4639 C.2       0 UNK         0.5000 
      3 O           4.8696  -14.5067  -51.0466 O.2       0 UNK        -0.5000 
      4 N           3.6284  -16.3867  -50.8078 N.am      1 UNK        -0.5000 
      5 CA          3.0254  -16.1304  -49.4932 C.3       1 UNK         0.1400 
      6 C6          2.2895  -14.7593  -49.4170 C.3       23 UNK        -0.0398 
      7 S7          0.7624  -14.8196  -48.4204 S.3       23 UNK        -0.2404 
      8 C8         -0.5354  -15.0455  -49.6828 C.3       23 UNK        -0.0205 
      9 C9         -0.4896  -16.4148  -50.3535 C.ar      23 UNK        -0.0193 
     10 C10         0.2210  -16.5879  -51.5446 C.ar      23 UNK        -0.1150 
     11 C11         0.2389  -17.8275  -52.1892 C.ar      23 UNK        -0.0193 
     12 C12        -0.4659  -18.9000  -51.6376 C.ar      23 UNK        -0.1150 
     13 C13        -1.1922  -18.7435  -50.4541 C.ar      23 UNK        -0.0193 
     14 C14        -1.1967  -17.4966  -49.8160 C.ar      23 UNK        -0.1150 
     15 C15        -2.0526  -19.8869  -49.9254 C.3       23 UNK        -0.0205 
     16 S16        -1.1733  -21.4727  -49.7417 S.3       23 UNK        -0.2404 
     17 C17        -0.2977  -21.1921  -48.1767 C.3       23 UNK        -0.0398 
     18 CA          0.1532  -22.4842  -47.4657 C.3       11 UNK         0.1400 
     19 N           1.2562  -22.2188  -46.5372 N.am      11 UNK        -0.5000 
     20 C           1.9847  -23.1474  -45.9033 C.2       10 UNK         0.5000 
     21 O           1.7901  -24.3582  -46.0095 O.2       10 UNK        -0.5000 
     22 CA          3.0897  -22.6242  -44.9678 C.3       10 UNK         0.1400 
     23 CB          4.3433  -22.2453  -45.7708 C.3       10 UNK        -0.1800 
     24 N           2.6448  -21.4662  -44.1901 N.am      10 UNK        -0.5000 
     25 C           1.7831  -21.5358  -43.1656 C.2       9 UNK         0.5000 
     26 O           1.3351  -22.5927  -42.7212 O.2       9 UNK        -0.5000 
     27 CA          1.3162  -20.1968  -42.5612 C.3       9 UNK         0.1400 
     28 CB          2.2959  -19.7138  -41.4819 C.3       9 UNK        -0.1800 
     29 N           1.1365  -19.1331  -43.5530 N.am      9 UNK        -0.5000 
     30 C           0.2643  -19.1734  -44.5685 C.2       8 UNK         0.5000 
     31 O          -0.4349  -20.1526  -44.8297 O.2       8 UNK        -0.5000 
     32 CA          0.2115  -17.9206  -45.4560 C.3       8 UNK         0.1400 
     33 CB          0.5997  -18.2078  -46.9113 C.3       8 UNK        -0.1800 
     34 N          -1.0435  -17.1896  -45.3277 N.am      8 UNK        -0.5000 
     35 C          -2.2835  -17.5549  -45.6877 C.2       7 UNK         0.5000 
     36 O          -2.5536  -18.5281  -46.3922 O.2       7 UNK        -0.5000 
     37 CA         -3.4122  -16.6450  -45.1534 C.3       7 UNK         0.1400 
     38 CB         -4.7973  -17.3216  -45.1478 C.3       7 UNK        -0.1800 
     39 N          -3.0929  -16.0771  -43.8358 N.am      7 UNK        -0.5000 
     40 C          -2.8542  -16.7452  -42.6931 C.2       6 UNK         0.5000 
     41 O          -3.0210  -17.9580  -42.5640 O.2       6 UNK        -0.5000 
     42 CA         -2.2867  -15.9410  -41.5039 C.3       6 UNK         0.1400 
     43 CB         -0.9778  -16.5749  -40.9973 C.3       6 UNK        -0.1800 
     44 N          -2.0124  -14.5490  -41.8637 N.am      6 UNK        -0.5000 
     45 C          -2.8330  -13.5139  -41.6365 C.2       5 UNK         0.5000 
     46 O          -3.8942  -13.6057  -41.0190 O.2       5 UNK        -0.5000 
     47 CA         -2.4143  -12.1480  -42.2221 C.3       5 UNK         0.1400 
     48 CB         -1.6954  -11.3063  -41.1570 C.3       5 UNK        -0.1800 
     49 N          -1.5530  -12.2545  -43.4037 N.am      5 UNK        -0.5000 
     50 C          -1.9100  -12.8047  -44.5732 C.2       4 UNK         0.5000 
     51 O          -3.0398  -13.2330  -44.8055 O.2       4 UNK        -0.5000 
     52 CA         -0.8080  -12.9719  -45.6372 C.3       4 UNK         0.1400 
     53 CB         -0.8518  -11.8134  -46.6443 C.3       4 UNK        -0.1800 
     54 N           0.5476  -13.0812  -45.0853 N.am      4 UNK        -0.5000 
     55 C           0.9689  -14.0405  -44.2502 C.2       3 UNK         0.5000 
     56 O           0.2438  -14.9497  -43.8397 O.2       3 UNK        -0.5000 
     57 CA          2.4405  -13.9499  -43.8123 C.3       3 UNK         0.1400 
     58 CB          2.6294  -14.2541  -42.3107 C.3       3 UNK        -0.1800 
     59 N           3.2913  -14.7695  -44.6830 N.am      3 UNK        -0.5000 
     60 C           3.4668  -16.0985  -44.6675 C.2       2 UNK         0.5000 
     61 O           3.0064  -16.8593  -43.8136 O.2       2 UNK        -0.5000 
     62 CA          4.2382  -16.6736  -45.8660 C.3       2 UNK         0.1400 
     63 CB          4.4547  -18.1996  -45.7592 C.3       2 UNK        -0.1800 
     64 N           3.5101  -16.3475  -47.0941 N.am      2 UNK        -0.5000 
     65 C           4.0229  -16.3683  -48.3302 C.2       1 UNK         0.5000 
     66 O           5.2115  -16.6081  -48.5586 O.2       1 UNK        -0.5000 
     67 C          -1.0330  -23.1876  -46.7786 C.2       11 UNK         0.5000 
     68 O          -1.6789  -24.0280  -47.4030 O.2       11 UNK        -0.5000 
     69 N          -1.2764  -22.8692  -45.4999 N.am      12 UNK        -0.5000 
     70 CA         -2.2732  -23.5156  -44.6444 C.3       12 UNK         0.1400 
     71 CB         -2.3010  -22.8134  -43.2796 C.3       12 UNK        -0.1800 
     72 C          -2.0600  -25.0324  -44.4822 C.2       12 UNK         0.5000 
     73 O          -3.0412  -25.7682  -44.3749 O.2       12 UNK        -0.5000 
     74 N          -0.7957  -25.4726  -44.5040 N.am      13 UNK        -0.5000 
     75 CA         -0.4207  -26.8831  -44.5060 C.3       13 UNK         0.1400 
     76 CB          0.9209  -27.0519  -43.7750 C.3       13 UNK        -0.1800 
     77 C          -0.3362  -27.4393  -45.9380 C.2       13 UNK         0.5000 
     78 O          -0.8547  -28.5254  -46.1980 O.2       13 UNK        -0.5000 
     79 N           0.3355  -26.7011  -46.8325 N.am      14 UNK        -0.5000 
     80 CA          0.7005  -27.1622  -48.1723 C.3       14 UNK         0.1400 
     81 CB          1.8227  -26.2687  -48.7227 C.3       14 UNK        -0.1800 
     82 C          -0.4648  -27.2297  -49.1758 C.2       14 UNK         0.5000 
     83 O          -0.4638  -28.1223  -50.0251 O.2       14 UNK        -0.5000 
     84 N          -1.4122  -26.2868  -49.0959 N.am      15 UNK        -0.5000 
     85 CA         -2.4711  -26.1036  -50.0929 C.3       15 UNK         0.1400 
     86 CB         -1.9581  -25.1891  -51.2225 C.3       15 UNK        -0.1800 
     87 C          -3.7819  -25.5903  -49.4711 C.2       15 UNK         0.5000 
     88 O          -4.5776  -24.9588  -50.1674 O.2       15 UNK        -0.5000 
     89 N          -3.9855  -25.8560  -48.1716 N.am      16 UNK        -0.5000 
     90 CA         -5.1720  -25.5145  -47.3741 C.3       16 UNK         0.1400 
     91 CB         -6.3685  -26.3870  -47.8074 C.3       16 UNK        -0.1800 
     92 C          -5.5178  -24.0063  -47.3526 C.2       16 UNK         0.5000 
     93 O          -6.6882  -23.6494  -47.2083 O.2       16 UNK        -0.5000 
     94 N          -4.4918  -23.1533  -47.4944 N.am      17 UNK        -0.5000 
     95 CA         -4.5523  -21.6877  -47.5329 C.3       17 UNK         0.1400 
     96 CB         -4.9948  -21.1110  -46.1715 C.3       17 UNK        -0.1800 
     97 C          -5.3797  -21.1301  -48.7133 C.2       17 UNK         0.5000 
     98 O          -6.0236  -20.0875  -48.5759 O.2       17 UNK        -0.5000 
     99 N          -5.3447  -21.8163  -49.8655 N.am      18 UNK        -0.5000 
    100 CA        -6.0423  -21.4475  -51.1028 C.3       18 UNK         0.1400 
    101 CB        -6.1313  -22.6889  -52.0073 C.3       18 UNK        -0.1800 
    102 C         -5.3950  -20.2415  -51.8226 C.2       18 UNK         0.5000 
    103 O         -4.9439  -20.3619  -52.9628 O.2       18 UNK        -0.5000 
    104 N         -5.3499  -19.0906  -51.1373 N.am      19 UNK        -0.5000 
    105 CA        -4.6907  -17.8498  -51.5636 C.3       19 UNK         0.1400 
    106 CB        -4.7507  -16.8317  -50.4157 C.3       19 UNK        -0.1800 
    107 C         -5.2426  -17.2429  -52.8665 C.2       19 UNK         0.5000 
    108 O         -4.5228  -16.5082  -53.5439 O.2       19 UNK        -0.5000 
    109 N         -6.4801  -17.6049  -53.2313 N.am      20 UNK        -0.5000 
    110 CA        -7.1298  -17.2691  -54.5003 C.3       20 UNK         0.1400 
    111 CB        -8.5729  -17.7953  -54.4703 C.3       20 UNK        -0.1800 
    112 C         -6.3888  -17.7973  -55.7483 C.2       20 UNK         0.5000 
    113 O         -6.5822  -17.2496  -56.8341 O.2       20 UNK        -0.5000 
    114 N         -5.5448  -18.8276  -55.5799 N.am      21 UNK        -0.5000 
    115 CA        -4.6602  -19.3487  -56.6229 C.3       21 UNK         0.1400 
    116 CB        -4.1150  -20.7160  -56.1829 C.3       21 UNK        -0.1800 
    117 C         -3.4976  -18.3934  -56.9634 C.2       21 UNK         0.5000 
    118 O         -3.0118  -18.4239  -58.0952 O.2       21 UNK        -0.5000 
    119 N         -3.0761  -17.5732  -55.9920 N.am      22 UNK        -0.5000 
    120 CA        -2.0030  -16.5762  -56.1348 C.3       22 UNK         0.1400 
    121 C         -2.5560  -15.1324  -56.2712 C.2       22 UNK         0.5000 
    122 N         -3.6436  -14.7769  -55.5986 N.am      22 UNK        -0.7600 
    123 O         -1.9948  -14.3241  -57.0057 O.2       22 UNK        -0.5000 
    124 C124       -0.9893  -16.6531  -54.9664 C.3       23 UNK        -0.0398 
    125 S125       -0.1201  -18.2567  -54.9083 S.3       23 UNK        -0.2404 
    126 C126        1.0000  -18.0057  -53.4943 C.3       23 UNK        -0.0205 
    127 H127        4.5752  -17.0842  -53.0587 H         1 UNK         0.0600 
    128 H128        6.0930  -16.2299  -52.7669 H         1 UNK         0.0600 
    129 H129        4.7627  -15.4128  -53.5947 H         1 UNK         0.0600 
    130 H130        3.3969  -17.2850  -51.2065 H         1 UNK         0.3000 
    131 H131        2.2797  -16.9212  -49.4006 H         1 UNK         0.0600 
    132 H132        2.9435  -13.9826  -49.0169 H         1 UNK         0.0800 
    133 H133        2.0169  -14.4125  -50.4140 H         1 UNK         0.0800 
    134 H134       -1.5070  -14.9096  -49.2056 H         1 UNK         0.0800 
    135 H135       -0.4577  -14.2544  -50.4301 H         1 UNK         0.0800 
    136 H136        0.7533  -15.7527  -51.9769 H         1 UNK         0.1150 
    137 H137       -0.4739  -19.8520  -52.1497 H         1 UNK         0.1150 
    138 H138       -1.7707  -17.3591  -48.9104 H         1 UNK         0.1150 
    139 H139       -2.5322  -19.6105  -48.9857 H         1 UNK         0.0800 
    140 H140       -2.8520  -20.0554  -50.6412 H         1 UNK         0.0800 
    141 H141        0.5707  -20.5835  -48.4279 H         1 UNK         0.0800 
    142 H142       -0.9312  -20.6041  -47.5116 H         1 UNK         0.0800 
    143 H143        0.5414  -23.1687  -48.2219 H         1 UNK         0.0600 
    144 H144        1.4458  -21.2502  -46.3352 H         1 UNK         0.3000 
    145 H145        3.3555  -23.4290  -44.2789 H         1 UNK         0.0600 
    146 H146        5.1532  -21.9324  -45.1115 H         1 UNK         0.0600 
    147 H147        4.7068  -23.0957  -46.3493 H         1 UNK         0.0600 
    148 H148        4.1481  -21.4317  -46.4705 H         1 UNK         0.0600 
    149 H149        2.9849  -20.5595  -44.4714 H         1 UNK         0.3000 
    150 H150        0.3472  -20.3722  -42.0890 H         1 UNK         0.0600 
    151 H151        2.4429  -20.4765  -40.7160 H         1 UNK         0.0600 
    152 H152        1.9211  -18.8198  -40.9828 H         1 UNK         0.0600 
    153 H153        3.2734  -19.4759  -41.9036 H         1 UNK         0.0600 
    154 H154        1.7160  -18.3051  -43.4385 H         1 UNK         0.3000 
    155 H155        0.9522  -17.2262  -45.0794 H         1 UNK         0.0600 
    156 H156        0.9476  -17.3082  -47.4002 H         1 UNK         0.0600 
    157 H157       -0.2386  -18.5694  -47.4940 H         1 UNK         0.0600 
    158 H158        1.4085  -18.9348  -46.9778 H         1 UNK         0.0600 
    159 H159       -0.9610  -16.3638  -44.7452 H         1 UNK         0.3000 
    160 H160       -3.4659  -15.8015  -45.8429 H         1 UNK         0.0600 
    161 H161       -4.8051  -18.2247  -44.5373 H         1 UNK         0.0600 
    162 H162       -5.0954  -17.6043  -46.1581 H         1 UNK         0.0600 
    163 H163       -5.5628  -16.6487  -44.7618 H         1 UNK         0.0600 
    164 H164       -2.9689  -15.0715  -43.8303 H         1 UNK         0.3000 
    165 H165       -3.0214  -15.9851  -40.6975 H         1 UNK         0.0600 
    166 H166       -0.2216  -16.6248  -41.7817 H         1 UNK         0.0600 
    167 H167       -0.5601  -16.0074  -40.1657 H         1 UNK         0.0600 
    168 H168       -1.1448  -17.5925  -40.6420 H         1 UNK         0.0600 
    169 H169       -1.1695  -14.3988  -42.4066 H         1 UNK         0.3000 
    170 H170       -3.3257  -11.6241  -42.5175 H         1 UNK         0.0600 
    171 H171       -2.3188  -11.1822  -40.2705 H         1 UNK         0.0600 
    172 H172       -0.7616  -11.7720  -40.8390 H         1 UNK         0.0600 
    173 H173       -1.4640  -10.3089  -41.5314 H         1 UNK         0.0600 
    174 H174       -0.6038  -11.9272  -43.3016 H         1 UNK         0.3000 
    175 H175       -1.0212  -13.8991  -46.1728 H         1 UNK         0.0600 
    176 H176       -0.6250  -10.8581  -46.1693 H         1 UNK         0.0600 
    177 H177       -0.1367  -11.9651  -47.4530 H         1 UNK         0.0600 
    178 H178       -1.8395  -11.7285  -47.0994 H         1 UNK         0.0600 
    179 H179        1.2033  -12.3743  -45.3853 H         1 UNK         0.3000 
    180 H180        2.7692  -12.9203  -43.9627 H         1 UNK         0.0600 
    181 H181        2.2236  -15.2251  -42.0259 H         1 UNK         0.0600 
    182 H182        2.1183  -13.5076  -41.7020 H         1 UNK         0.0600 
    183 H183        3.6830  -14.2350  -42.0327 H         1 UNK         0.0600 
    184 H184        3.7142  -14.2641  -45.4494 H         1 UNK         0.3000 
    185 H185        5.2144  -16.1846  -45.8853 H         1 UNK         0.0600 
    186 H186        5.0655  -18.5754  -46.5798 H         1 UNK         0.0600 
    187 H187        4.9702  -18.4578  -44.8332 H         1 UNK         0.0600 
    188 H188        3.5098  -18.7416  -45.7725 H         1 UNK         0.0600 
    189 H189        2.5371  -16.0991  -46.9749 H         1 UNK         0.3000 
    190 H190       -0.7629  -22.0931  -45.0921 H         1 UNK         0.3000 
    191 H191       -3.2484  -23.3859  -45.1100 H         1 UNK         0.0600 
    192 H192       -2.5132  -21.7492  -43.3876 H         1 UNK         0.0600 
    193 H193       -3.0747  -23.2368  -42.6380 H         1 UNK         0.0600 
    194 H194       -1.3496  -22.9132  -42.7571 H         1 UNK         0.0600 
    195 H195       -0.0488  -24.8018  -44.6253 H         1 UNK         0.3000 
    196 H196       -1.1688  -27.4643  -43.9623 H         1 UNK         0.0600 
    197 H197        1.2235  -28.0996  -43.7526 H         1 UNK         0.0600 
    198 H198        0.8499  -26.7119  -42.7417 H         1 UNK         0.0600 
    199 H199        1.7215  -26.4892  -44.2563 H         1 UNK         0.0600 
    200 H200        0.7603  -25.8290  -46.5277 H         1 UNK         0.3000 
    201 H201        1.1026  -28.1732  -48.0764 H         1 UNK         0.0600 
    202 H202        2.6902  -26.2719  -48.0624 H         1 UNK         0.0600 
    203 H203        1.4943  -25.2361  -48.8385 H         1 UNK         0.0600 
    204 H204        2.1573  -26.6177  -49.7004 H         1 UNK         0.0600 
    205 H205       -1.3553  -25.5694  -48.3757 H         1 UNK         0.3000 
    206 H206       -2.7257  -27.0706  -50.5311 H         1 UNK         0.0600 
    207 H207       -1.0633  -25.5999  -51.6901 H         1 UNK         0.0600 
    208 H208       -2.7044  -25.0700  -52.0089 H         1 UNK         0.0600 
    209 H209       -1.7131  -24.1961  -50.8469 H         1 UNK         0.0600 
    210 H210       -3.2585  -26.3562  -47.6799 H         1 UNK         0.3000 
    211 H211       -4.9312  -25.7786  -46.3440 H         1 UNK         0.0600 
    212 H212       -6.7062  -26.1366  -48.8136 H         1 UNK         0.0600 
    213 H213       -7.2167  -26.2550  -47.1347 H         1 UNK         0.0600 
    214 H214       -6.1098  -27.4457  -47.7941 H         1 UNK         0.0600 
    215 H215       -3.5666  -23.5565  -47.6130 H         1 UNK         0.3000 
    216 H216       -3.5294  -21.3522  -47.7005 H         1 UNK         0.0600 
    217 H217       -4.3318  -21.4219  -45.3667 H         1 UNK         0.0600 
    218 H218       -6.0106  -21.4070  -45.9101 H         1 UNK         0.0600 
    219 H219       -4.9688  -20.0226  -46.1885 H         1 UNK         0.0600 
    220 H220       -4.8230  -22.6839  -49.8948 H         1 UNK         0.3000 
    221 H221       -7.0626  -21.1555  -50.8465 H         1 UNK         0.0600 
    222 H222       -5.1418  -23.0534  -52.2873 H         1 UNK         0.0600 
    223 H223       -6.6570  -23.5029  -51.5078 H         1 UNK         0.0600 
    224 H224       -6.6746  -22.4686  -52.9271 H         1 UNK         0.0600 
    225 H225       -5.7212  -19.1072  -50.1910 H         1 UNK         0.3000 
    226 H226       -3.6428  -18.0830  -51.7564 H         1 UNK         0.0600 
    227 H227       -4.2157  -15.9173  -50.6761 H         1 UNK         0.0600 
    228 H228       -5.7786  -16.5575  -50.1759 H         1 UNK         0.0600 
    229 H229       -4.2900  -17.2295  -49.5111 H         1 UNK         0.0600 
    230 H230       -6.9906  -18.2167  -52.6121 H         1 UNK         0.3000 
    231 H231       -7.1609  -16.1805  -54.5781 H         1 UNK         0.0600 
    232 H232       -9.1026  -17.5378  -55.3885 H         1 UNK         0.0600 
    233 H233       -9.1342  -17.3630  -53.6417 H         1 UNK         0.0600 
    234 H234       -8.6022  -18.8808  -54.3676 H         1 UNK         0.0600 
    235 H235       -5.4441  -19.2401  -54.6583 H         1 UNK         0.3000 
    236 H236       -5.2495  -19.4937  -57.5308 H         1 UNK         0.0600 
    237 H237       -4.9237  -21.4128  -55.9618 H         1 UNK         0.0600 
    238 H238       -3.5038  -21.1633  -56.9677 H         1 UNK         0.0600 
    239 H239       -3.4922  -20.6314  -55.2913 H         1 UNK         0.0600 
    240 H240       -3.5635  -17.5727  -55.1057 H         1 UNK         0.3000 
    241 H241       -1.4447  -16.7740  -57.0519 H         1 UNK         0.0600 
    242 H242       -4.0023  -13.8409  -55.6970 H         1 UNK         0.3800 
    243 H243       -4.0633  -15.4076  -54.9193 H         1 UNK         0.3800 
    244 H244       -1.4978  -16.4891  -54.0145 H         1 UNK         0.0800 
    245 H245       -0.2368  -15.8676  -55.0572 H         1 UNK         0.0800 
    246 H246        1.6583  -18.8712  -53.4077 H         1 UNK         0.0800 
    247 H247        1.6452  -17.1482  -53.6919 H         1 UNK         0.0800 
@<TRIPOS>BOND
     1    1    2 1    
     2    1  127 1    
     3    1  128 1    
     4    1  129 1    
     5    2    3 2    
     6    2    4 am   BACKBONE|DICT|INTERRES
     7    4    5 1    
     8    4  130 1    
     9    5    6 1    
    10    5   65 1    
    11    5  131 1    
    12    6    7 1    
    13    6  132 1    
    14    6  133 1    
    15    7    8 1    
    16    8    9 1    
    17    8  134 1    
    18    8  135 1    
    19    9   10 ar   
    20    9   14 ar   
    21   10   11 ar   
    22   10  136 1    
    23   11   12 ar   
    24   11  126 1    
    25   12   13 ar   
    26   12  137 1    
    27   13   14 ar   
    28   13   15 1    
    29   14  138 1    
    30   15   16 1    
    31   15  139 1    
    32   15  140 1    
    33   16   17 1    
    34   17   18 1    
    35   17  141 1    
    36   17  142 1    
    37   18   19 1    
    38   18   67 1    
    39   18  143 1    
    40   19   20 am   BACKBONE|DICT|INTERRES
    41   19  144 1    
    42   20   21 2    
    43   20   22 1    
    44   22   23 1    
    45   22   24 1    
    46   22  145 1    
    47   23  146 1    
    48   23  147 1    
    49   23  148 1    
    50   24   25 am   BACKBONE|DICT|INTERRES
    51   24  149 1    
    52   25   26 2    
    53   25   27 1    
    54   27   28 1    
    55   27   29 1    
    56   27  150 1    
    57   28  151 1    
    58   28  152 1    
    59   28  153 1    
    60   29   30 am   BACKBONE|DICT|INTERRES
    61   29  154 1    
    62   30   31 2    
    63   30   32 1    
    64   32   33 1    
    65   32   34 1    
    66   32  155 1    
    67   33  156 1    
    68   33  157 1    
    69   33  158 1    
    70   34   35 am   BACKBONE|DICT|INTERRES
    71   34  159 1    
    72   35   36 2    
    73   35   37 1    
    74   37   38 1    
    75   37   39 1    
    76   37  160 1    
    77   38  161 1    
    78   38  162 1    
    79   38  163 1    
    80   39   40 am   BACKBONE|DICT|INTERRES
    81   39  164 1    
    82   40   41 2    
    83   40   42 1    
    84   42   43 1    
    85   42   44 1    
    86   42  165 1    
    87   43  166 1    
    88   43  167 1    
    89   43  168 1    
    90   44   45 am   BACKBONE|DICT|INTERRES
    91   44  169 1    
    92   45   46 2    
    93   45   47 1    
    94   47   48 1    
    95   47   49 1    
    96   47  170 1    
    97   48  171 1    
    98   48  172 1    
    99   48  173 1    
   100   49   50 am   BACKBONE|DICT|INTERRES
   101   49  174 1    
   102   50   51 2    
   103   50   52 1    
   104   52   53 1    
   105   52   54 1    
   106   52  175 1    
   107   53  176 1    
   108   53  177 1    
   109   53  178 1    
   110   54   55 am   BACKBONE|DICT|INTERRES
   111   54  179 1    
   112   55   56 2    
   113   55   57 1    
   114   57   58 1    
   115   57   59 1    
   116   57  180 1    
   117   58  181 1    
   118   58  182 1    
   119   58  183 1    
   120   59   60 am   BACKBONE|DICT|INTERRES
   121   59  184 1    
   122   60   61 2    
   123   60   62 1    
   124   62   63 1    
   125   62   64 1    
   126   62  185 1    
   127   63  186 1    
   128   63  187 1    
   129   63  188 1    
   130   64   65 am   BACKBONE|DICT|INTERRES
   131   64  189 1    
   132   65   66 2    
   133   67   68 2    
   134   67   69 am   BACKBONE|DICT|INTERRES
   135   69   70 1    
   136   69  190 1    
   137   70   71 1    
   138   70   72 1    
   139   70  191 1    
   140   71  192 1    
   141   71  193 1    
   142   71  194 1    
   143   72   73 2    
   144   72   74 am   BACKBONE|DICT|INTERRES
   145   74   75 1    
   146   74  195 1    
   147   75   76 1    
   148   75   77 1    
   149   75  196 1    
   150   76  197 1    
   151   76  198 1    
   152   76  199 1    
   153   77   78 2    
   154   77   79 am   BACKBONE|DICT|INTERRES
   155   79   80 1    
   156   79  200 1    
   157   80   81 1    
   158   80   82 1    
   159   80  201 1    
   160   81  202 1    
   161   81  203 1    
   162   81  204 1    
   163   82   83 2    
   164   82   84 am   BACKBONE|DICT|INTERRES
   165   84   85 1    
   166   84  205 1    
   167   85   86 1    
   168   85   87 1    
   169   85  206 1    
   170   86  207 1    
   171   86  208 1    
   172   86  209 1    
   173   87   88 2    
   174   87   89 am   BACKBONE|DICT|INTERRES
   175   89   90 1    
   176   89  210 1    
   177   90   91 1    
   178   90   92 1    
   179   90  211 1    
   180   91  212 1    
   181   91  213 1    
   182   91  214 1    
   183   92   93 2    
   184   92   94 am   BACKBONE|DICT|INTERRES
   185   94   95 1    
   186   94  215 1    
   187   95   96 1    
   188   95   97 1    
   189   95  216 1    
   190   96  217 1    
   191   96  218 1    
   192   96  219 1    
   193   97   98 2    
   194   97   99 am   BACKBONE|DICT|INTERRES
   195   99  100 1    
   196   99  220 1    
   197  100  101 1    
   198  100  102 1    
   199  100  221 1    
   200  101  222 1    
   201  101  223 1    
   202  101  224 1    
   203  102  103 2    
   204  102  104 am   BACKBONE|DICT|INTERRES
   205  104  105 1    
   206  104  225 1    
   207  105  106 1    
   208  105  107 1    
   209  105  226 1    
   210  106  227 1    
   211  106  228 1    
   212  106  229 1    
   213  107  108 2    
   214  107  109 am   BACKBONE|DICT|INTERRES
   215  109  110 1    
   216  109  230 1    
   217  110  111 1    
   218  110  112 1    
   219  110  231 1    
   220  111  232 1    
   221  111  233 1    
   222  111  234 1    
   223  112  113 2    
   224  112  114 am   BACKBONE|DICT|INTERRES
   225  114  115 1    
   226  114  235 1    
   227  115  116 1    
   228  115  117 1    
   229  115  236 1    
   230  116  237 1    
   231  116  238 1    
   232  116  239 1    
   233  117  118 2    
   234  117  119 am   BACKBONE|DICT|INTERRES
   235  119  120 1    
   236  119  240 1    
   237  120  121 1    
   238  120  124 1    
   239  120  241 1    
   240  121  122 am   BACKBONE|DICT|INTERRES
   241  121  123 2    
   242  122  242 1    
   243  122  243 1    
   244  124  125 1    
   245  124  244 1    
   246  124  245 1    
   247  125  126 1    
   248  126  246 1    
   249  126  247 1    
@<TRIPOS>SUBSTRUCTURE
     1 UNK         1 GROUP             0       ****    0 ROOT    
