@<TRIPOS>MOLECULE
3R540
247   249    1
SMALL
USER_CHARGES


@<TRIPOS>ATOM
      1 CA          2.3365  -14.7157  -42.9924 C.3       0 UNK        -0.1800 
      2 C           2.4840  -14.5369  -44.4957 C.2       0 UNK         0.5000 
      3 O           1.5800  -14.0141  -45.1484 O.2       0 UNK        -0.5000 
      4 N           3.6242  -14.9712  -45.0484 N.am      1 UNK        -0.5000 
      5 CA          3.9490  -14.9064  -46.4800 C.3       1 UNK         0.1400 
      6 C6          5.2311  -15.7039  -46.8232 C.3       23 UNK        -0.0398 
      7 S7          5.0681  -17.4809  -46.4206 S.3       23 UNK        -0.2404 
      8 C8          5.1002  -18.2749  -48.0618 C.3       23 UNK        -0.0205 
      9 C9          3.9649  -19.2749  -48.2135 C.ar      23 UNK        -0.0193 
     10 C10         2.7201  -18.8442  -48.6805 C.ar      23 UNK        -0.1150 
     11 C11         1.6610  -19.7451  -48.8165 C.ar      23 UNK        -0.0193 
     12 C12         1.8667  -21.0922  -48.5143 C.ar      23 UNK        -0.1150 
     13 C13         3.1031  -21.5386  -48.0323 C.ar      23 UNK        -0.0193 
     14 C14         4.1511  -20.6235  -47.8878 C.ar      23 UNK        -0.1150 
     15 C15         3.2994  -23.0129  -47.6836 C.3       23 UNK        -0.0205 
     16 S16         3.1973  -23.3787  -45.8964 S.3       23 UNK        -0.2404 
     17 C17         1.6106  -22.6181  -45.4139 C.3       23 UNK        -0.0398 
     18 CA          0.4485  -23.5870  -45.0874 C.3       11 UNK         0.1400 
     19 N          -0.6323  -22.8331  -44.4451 N.am      11 UNK        -0.5000 
     20 C          -1.5764  -23.3193  -43.6280 C.2       10 UNK         0.5000 
     21 O          -1.5991  -24.4920  -43.2512 O.2       10 UNK        -0.5000 
     22 CA         -2.6875  -22.3515  -43.1611 C.3       10 UNK         0.1400 
     23 CB         -2.4319  -21.9025  -41.7145 C.3       10 UNK        -0.1800 
     24 N          -2.8332  -21.1603  -44.0030 N.am      10 UNK        -0.5000 
     25 C          -3.2904  -21.1576  -45.2639 C.2       9 UNK         0.5000 
     26 O          -3.7273  -22.1607  -45.8231 O.2       9 UNK        -0.5000 
     27 CA         -3.2152  -19.8267  -46.0475 C.3       9 UNK         0.1400 
     28 CB         -4.5904  -19.1482  -46.0856 C.3       9 UNK        -0.1800 
     29 N          -2.2196  -18.8667  -45.5500 N.am      9 UNK        -0.5000 
     30 C          -0.9076  -19.1178  -45.4266 C.2       8 UNK         0.5000 
     31 O          -0.4180  -20.2086  -45.7064 O.2       8 UNK        -0.5000 
     32 CA          0.0162  -18.0144  -44.8753 C.3       8 UNK         0.1400 
     33 CB          1.2252  -17.7957  -45.7953 C.3       8 UNK        -0.1800 
     34 N          -0.6594  -16.7372  -44.6532 N.am      8 UNK        -0.5000 
     35 C          -1.3644  -16.4138  -43.5608 C.2       7 UNK         0.5000 
     36 O          -1.4961  -17.1598  -42.5906 O.2       7 UNK        -0.5000 
     37 CA         -2.0657  -15.0403  -43.5651 C.3       7 UNK         0.1400 
     38 CB         -1.2969  -14.0210  -42.7140 C.3       7 UNK        -0.1800 
     39 N          -2.2488  -14.5018  -44.9155 N.am      7 UNK        -0.5000 
     40 C          -3.1548  -14.9681  -45.7861 C.2       6 UNK         0.5000 
     41 O          -3.9410  -15.8779  -45.5237 O.2       6 UNK        -0.5000 
     42 CA         -3.1503  -14.3409  -47.1880 C.3       6 UNK         0.1400 
     43 CB         -3.9725  -13.0440  -47.2123 C.3       6 UNK        -0.1800 
     44 N          -1.7965  -14.0670  -47.6679 N.am      6 UNK        -0.5000 
     45 C          -0.9624  -15.0038  -48.1417 C.2       5 UNK         0.5000 
     46 O          -1.2293  -16.2043  -48.1174 O.2       5 UNK        -0.5000 
     47 CA          0.4010  -14.5488  -48.7127 C.3       5 UNK         0.1400 
     48 CB          0.7520  -15.2562  -50.0370 C.3       5 UNK        -0.1800 
     49 N           0.5497  -13.0970  -48.8488 N.am      5 UNK        -0.5000 
     50 C          -0.1528  -12.2565  -49.6244 C.2       4 UNK         0.5000 
     51 O          -0.9842  -12.6230  -50.4555 O.2       4 UNK        -0.5000 
     52 CA          0.0883  -10.7465  -49.3919 C.3       4 UNK         0.1400 
     53 CB         -1.1781   -9.9067  -49.6580 C.3       4 UNK        -0.1800 
     54 N           0.6336  -10.4293  -48.0633 N.am      4 UNK        -0.5000 
     55 C           0.1073  -10.7264  -46.8649 C.2       3 UNK         0.5000 
     56 O          -0.9528  -11.3381  -46.7163 O.2       3 UNK        -0.5000 
     57 CA          0.9572  -10.3295  -45.6416 C.3       3 UNK         0.1400 
     58 CB          0.3208  -10.7640  -44.3101 C.3       3 UNK        -0.1800 
     59 N           2.3038  -10.9004  -45.7303 N.am      3 UNK        -0.5000 
     60 C           3.3298  -10.3643  -46.4067 C.2       2 UNK         0.5000 
     61 O           3.2360   -9.3220  -47.0561 O.2       2 UNK        -0.5000 
     62 CA          4.6747  -11.1166  -46.3803 C.3       2 UNK         0.1400 
     63 CB          5.6086  -10.5027  -45.3263 C.3       2 UNK        -0.1800 
     64 N           4.5378  -12.5493  -46.1141 N.am      2 UNK        -0.5000 
     65 C           4.0569  -13.4503  -46.9831 C.2       1 UNK         0.5000 
     66 O           3.6767  -13.1677  -48.1192 O.2       1 UNK        -0.5000 
     67 C          -0.1366  -24.3251  -46.3156 C.2       11 UNK         0.5000 
     68 O           0.1202  -23.9516  -47.4604 O.2       11 UNK        -0.5000 
     69 N          -0.9913  -25.3181  -46.0298 N.am      12 UNK        -0.5000 
     70 CA         -1.9803  -25.9246  -46.9252 C.3       12 UNK         0.1400 
     71 CB         -2.6847  -27.0701  -46.1840 C.3       12 UNK        -0.1800 
     72 C          -1.4774  -26.4153  -48.2943 C.2       12 UNK         0.5000 
     73 O          -2.2439  -26.3572  -49.2567 O.2       12 UNK        -0.5000 
     74 N          -0.2264  -26.8921  -48.3519 N.am      13 UNK        -0.5000 
     75 CA          0.4165  -27.4518  -49.5413 C.3       13 UNK         0.1400 
     76 CB          1.7864  -28.0361  -49.1557 C.3       13 UNK        -0.1800 
     77 C           0.5292  -26.4362  -50.6929 C.2       13 UNK         0.5000 
     78 O          -0.1730  -26.5722  -51.6964 O.2       13 UNK        -0.5000 
     79 N           1.3801  -25.4140  -50.5194 N.am      14 UNK        -0.5000 
     80 CA          1.5681  -24.3454  -51.5082 C.3       14 UNK         0.1400 
     81 CB          2.9040  -23.6268  -51.2759 C.3       14 UNK        -0.1800 
     82 C           0.3919  -23.3508  -51.5395 C.2       14 UNK         0.5000 
     83 O           0.2262  -22.6501  -52.5376 O.2       14 UNK        -0.5000 
     84 N          -0.4400  -23.3506  -50.4860 N.am      15 UNK        -0.5000 
     85 CA         -1.7252  -22.6547  -50.4449 C.3       15 UNK         0.1400 
     86 CB         -2.1531  -22.4317  -48.9872 C.3       15 UNK        -0.1800 
     87 C          -2.8390  -23.3567  -51.2510 C.2       15 UNK         0.5000 
     88 O          -3.9688  -22.8753  -51.2225 O.2       15 UNK        -0.5000 
     89 N          -2.5243  -24.4640  -51.9428 N.am      16 UNK        -0.5000 
     90 CA         -3.3831  -25.2005  -52.8751 C.3       16 UNK         0.1400 
     91 CB         -3.6894  -24.3390  -54.1187 C.3       16 UNK        -0.1800 
     92 C          -4.6492  -25.7560  -52.1957 C.2       16 UNK         0.5000 
     93 O          -5.7680  -25.4376  -52.6026 O.2       16 UNK        -0.5000 
     94 N          -4.4265  -26.5642  -51.1505 N.am      17 UNK        -0.5000 
     95 CA         -5.4258  -27.1350  -50.2421 C.3       17 UNK         0.1400 
     96 CB         -6.4527  -28.0176  -50.9840 C.3       17 UNK        -0.1800 
     97 C          -6.0622  -26.0544  -49.3460 C.2       17 UNK         0.5000 
     98 O          -7.2708  -26.0707  -49.1071 O.2       17 UNK        -0.5000 
     99 N          -5.2031  -25.1527  -48.8505 N.am      18 UNK        -0.5000 
    100 CA        -5.4890  -24.0791  -47.8961 C.3       18 UNK         0.1400 
    101 CB        -5.8652  -24.6663  -46.5183 C.3       18 UNK        -0.1800 
    102 C         -6.5047  -23.0372  -48.4074 C.2       18 UNK         0.5000 
    103 O         -7.4495  -22.6919  -47.6938 O.2       18 UNK        -0.5000 
    104 N         -6.2930  -22.5379  -49.6324 N.am      19 UNK        -0.5000 
    105 CA        -7.0394  -21.4116  -50.1885 C.3       19 UNK         0.1400 
    106 CB        -6.8275  -21.3518  -51.7090 C.3       19 UNK        -0.1800 
    107 C         -6.5893  -20.0958  -49.5293 C.2       19 UNK         0.5000 
    108 O         -5.3901  -19.8885  -49.3268 O.2       19 UNK        -0.5000 
    109 N         -7.5559  -19.2151  -49.2400 N.am      20 UNK        -0.5000 
    110 CA        -7.3592  -17.9373  -48.5444 C.3       20 UNK         0.1400 
    111 CB        -8.7337  -17.3155  -48.2537 C.3       20 UNK        -0.1800 
    112 C         -6.4629  -16.9283  -49.2905 C.2       20 UNK         0.5000 
    113 O         -5.8983  -16.0384  -48.6567 O.2       20 UNK        -0.5000 
    114 N         -6.3526  -17.0835  -50.6147 N.am      21 UNK        -0.5000 
    115 CA        -5.5208  -16.2631  -51.4939 C.3       21 UNK         0.1400 
    116 CB        -6.3054  -16.0116  -52.7933 C.3       21 UNK        -0.1800 
    117 C         -4.1514  -16.9072  -51.7974 C.2       21 UNK         0.5000 
    118 O         -3.4005  -16.3413  -52.5932 O.2       21 UNK        -0.5000 
    119 N         -3.8516  -18.0702  -51.1965 N.am      22 UNK        -0.5000 
    120 CA        -2.7068  -18.9378  -51.5269 C.3       22 UNK         0.1400 
    121 C         -2.8671  -19.6359  -52.9183 C.2       22 UNK         0.5000 
    122 N         -1.8533  -20.3347  -53.4089 N.am      22 UNK        -0.7600 
    123 O         -3.9172  -19.5834  -53.5557 O.2       22 UNK        -0.5000 
    124 C124       -1.3401  -18.2124  -51.3241 C.3       23 UNK        -0.0398 
    125 S125        0.0987  -19.3080  -51.0521 S.3       23 UNK        -0.2404 
    126 C126        0.2888  -19.2518  -49.2469 C.3       23 UNK        -0.0205 
    127 H127        1.5435  -15.4313  -42.7769 H         1 UNK         0.0600 
    128 H128        2.0819  -13.7652  -42.5238 H         1 UNK         0.0600 
    129 H129        3.2564  -15.0821  -42.5365 H         1 UNK         0.0600 
    130 H130        4.3184  -15.4175  -44.4658 H         1 UNK         0.3000 
    131 H131        3.1232  -15.3709  -47.0202 H         1 UNK         0.0600 
    132 H132        5.4861  -15.5862  -47.8775 H         1 UNK         0.0800 
    133 H133        6.0837  -15.3094  -46.2676 H         1 UNK         0.0800 
    134 H134        5.0305  -17.5340  -48.8588 H         1 UNK         0.0800 
    135 H135        6.0616  -18.7729  -48.1963 H         1 UNK         0.0800 
    136 H136        2.5693  -17.8003  -48.9157 H         1 UNK         0.1150 
    137 H137        1.0495  -21.7902  -48.6226 H         1 UNK         0.1150 
    138 H138        5.1088  -20.9606  -47.5169 H         1 UNK         0.1150 
    139 H139        2.5617  -23.6249  -48.2007 H         1 UNK         0.0800 
    140 H140        4.2714  -23.3429  -48.0525 H         1 UNK         0.0800 
    141 H141        1.2915  -21.9049  -46.1641 H         1 UNK         0.0800 
    142 H142        1.8283  -22.0144  -44.5318 H         1 UNK         0.0800 
    143 H143        0.8206  -24.3376  -44.3871 H         1 UNK         0.0600 
    144 H144       -0.7158  -21.8694  -44.7570 H         1 UNK         0.3000 
    145 H145       -3.6299  -22.9025  -43.1880 H         1 UNK         0.0600 
    146 H146       -3.2488  -21.2835  -41.3430 H         1 UNK         0.0600 
    147 H147       -2.3475  -22.7611  -41.0469 H         1 UNK         0.0600 
    148 H148       -1.5086  -21.3280  -41.6292 H         1 UNK         0.0600 
    149 H149       -2.4952  -20.2900  -43.6191 H         1 UNK         0.3000 
    150 H150       -2.9364  -20.0782  -47.0726 H         1 UNK         0.0600 
    151 H151       -5.3568  -19.8362  -46.4456 H         1 UNK         0.0600 
    152 H152       -4.5818  -18.2919  -46.7605 H         1 UNK         0.0600 
    153 H153       -4.8957  -18.7979  -45.0991 H         1 UNK         0.0600 
    154 H154       -2.5603  -17.9436  -45.3189 H         1 UNK         0.3000 
    155 H155        0.3971  -18.3826  -43.9206 H         1 UNK         0.0600 
    156 H156        1.7251  -18.7382  -46.0211 H         1 UNK         0.0600 
    157 H157        0.9408  -17.3334  -46.7399 H         1 UNK         0.0600 
    158 H158        1.9696  -17.1647  -45.3184 H         1 UNK         0.0600 
    159 H159       -0.6254  -16.0721  -45.4121 H         1 UNK         0.3000 
    160 H160       -3.0496  -15.1787  -43.1115 H         1 UNK         0.0600 
    161 H161       -0.3189  -13.8057  -43.1384 H         1 UNK         0.0600 
    162 H162       -1.1421  -14.3918  -41.7000 H         1 UNK         0.0600 
    163 H163       -1.8421  -13.0802  -42.6373 H         1 UNK         0.0600 
    164 H164       -1.6284  -13.7587  -45.2066 H         1 UNK         0.3000 
    165 H165       -3.6167  -15.0509  -47.8728 H         1 UNK         0.0600 
    166 H166       -4.0049  -12.6181  -48.2154 H         1 UNK         0.0600 
    167 H167       -5.0022  -13.2320  -46.9053 H         1 UNK         0.0600 
    168 H168       -3.5598  -12.2901  -46.5410 H         1 UNK         0.0600 
    169 H169       -1.4920  -13.0996  -47.6440 H         1 UNK         0.3000 
    170 H170        1.1389  -14.8511  -47.9717 H         1 UNK         0.0600 
    171 H171       -0.0109  -15.0940  -50.7990 H         1 UNK         0.0600 
    172 H172        1.7042  -14.9022  -50.4323 H         1 UNK         0.0600 
    173 H173        0.8460  -16.3311  -49.8975 H         1 UNK         0.0600 
    174 H174        1.2243  -12.6815  -48.2210 H         1 UNK         0.3000 
    175 H175        0.8471  -10.4458  -50.1154 H         1 UNK         0.0600 
    176 H176       -0.9890   -8.8456  -49.4955 H         1 UNK         0.0600 
    177 H177       -2.0030  -10.2037  -49.0093 H         1 UNK         0.0600 
    178 H178       -1.5158  -10.0192  -50.6889 H         1 UNK         0.0600 
    179 H179        1.5272   -9.9484  -48.0589 H         1 UNK         0.3000 
    180 H180        1.0255   -9.2397  -45.6342 H         1 UNK         0.0600 
    181 H181        0.2070  -11.8457  -44.2579 H         1 UNK         0.0600 
    182 H182       -0.6690  -10.3231  -44.1856 H         1 UNK         0.0600 
    183 H183        0.9264  -10.4489  -43.4604 H         1 UNK         0.0600 
    184 H184        2.4317  -11.8018  -45.2911 H         1 UNK         0.3000 
    185 H185        5.1391  -10.9928  -47.3610 H         1 UNK         0.0600 
    186 H186        5.2042  -10.6087  -44.3189 H         1 UNK         0.0600 
    187 H187        6.5909  -10.9752  -45.3462 H         1 UNK         0.0600 
    188 H188        5.7586   -9.4378  -45.5095 H         1 UNK         0.0600 
    189 H189        4.8118  -12.8678  -45.1960 H         1 UNK         0.3000 
    190 H190       -1.1440  -25.4962  -45.0435 H         1 UNK         0.3000 
    191 H191       -2.7271  -25.1546  -47.1173 H         1 UNK         0.0600 
    192 H192       -3.1521  -26.7179  -45.2641 H         1 UNK         0.0600 
    193 H193       -3.4718  -27.5102  -46.7982 H         1 UNK         0.0600 
    194 H194       -1.9870  -27.8663  -45.9214 H         1 UNK         0.0600 
    195 H195        0.3241  -26.8693  -47.5063 H         1 UNK         0.3000 
    196 H196       -0.2078  -28.2743  -49.8965 H         1 UNK         0.0600 
    197 H197        2.3055  -28.4279  -50.0315 H         1 UNK         0.0600 
    198 H198        1.6749  -28.8608  -48.4516 H         1 UNK         0.0600 
    199 H199        2.4351  -27.2912  -48.6934 H         1 UNK         0.0600 
    200 H200        1.8991  -25.3451  -49.6568 H         1 UNK         0.3000 
    201 H201        1.6207  -24.8104  -52.4952 H         1 UNK         0.0600 
    202 H202        3.7257  -24.3325  -51.1532 H         1 UNK         0.0600 
    203 H203        2.8709  -22.9834  -50.4018 H         1 UNK         0.0600 
    204 H204        3.1471  -22.9891  -52.1266 H         1 UNK         0.0600 
    205 H205       -0.2129  -23.9213  -49.6805 H         1 UNK         0.3000 
    206 H206       -1.5855  -21.6763  -50.8984 H         1 UNK         0.0600 
    207 H207       -1.3851  -21.9142  -48.4148 H         1 UNK         0.0600 
    208 H208       -3.0602  -21.8285  -48.9280 H         1 UNK         0.0600 
    209 H209       -2.3514  -23.3767  -48.4884 H         1 UNK         0.0600 
    210 H210       -1.5897  -24.8380  -51.8370 H         1 UNK         0.3000 
    211 H211       -2.8056  -26.0640  -53.2088 H         1 UNK         0.0600 
    212 H212       -4.2834  -23.4589  -53.8688 H         1 UNK         0.0600 
    213 H213       -4.2480  -24.9104  -54.8607 H         1 UNK         0.0600 
    214 H214       -2.7709  -23.9969  -54.5954 H         1 UNK         0.0600 
    215 H215       -3.4644  -26.6889  -50.8491 H         1 UNK         0.3000 
    216 H216       -4.8710  -27.7897  -49.5683 H         1 UNK         0.0600 
    217 H217       -7.0729  -28.5671  -50.2751 H         1 UNK         0.0600 
    218 H218       -5.9568  -28.7523  -51.6182 H         1 UNK         0.0600 
    219 H219       -7.1240  -27.4298  -51.6102 H         1 UNK         0.0600 
    220 H220       -4.2399  -25.2348  -49.1486 H         1 UNK         0.3000 
    221 H221       -4.5542  -23.5378  -47.7748 H         1 UNK         0.0600 
    222 H222       -6.8139  -25.2026  -46.5496 H         1 UNK         0.0600 
    223 H223       -5.1021  -25.3548  -46.1588 H         1 UNK         0.0600 
    224 H224       -5.9609  -23.8767  -45.7720 H         1 UNK         0.0600 
    225 H225       -5.4698  -22.8216  -50.1603 H         1 UNK         0.3000 
    226 H226       -8.1026  -21.5703  -49.9965 H         1 UNK         0.0600 
    227 H227       -7.0732  -22.3035  -52.1809 H         1 UNK         0.0600 
    228 H228       -7.4609  -20.5883  -52.1615 H         1 UNK         0.0600 
    229 H229       -5.7950  -21.1103  -51.9645 H         1 UNK         0.0600 
    230 H230       -8.5127  -19.4576  -49.4543 H         1 UNK         0.3000 
    231 H231       -6.8783  -18.1513  -47.5890 H         1 UNK         0.0600 
    232 H232       -9.2814  -17.1029  -49.1727 H         1 UNK         0.0600 
    233 H233       -8.6310  -16.3764  -47.7082 H         1 UNK         0.0600 
    234 H234       -9.3461  -17.9781  -47.6418 H         1 UNK         0.0600 
    235 H235       -6.8538  -17.8442  -51.0492 H         1 UNK         0.3000 
    236 H236       -5.3242  -15.2957  -51.0270 H         1 UNK         0.0600 
    237 H237       -7.2659  -15.5381  -52.5890 H         1 UNK         0.0600 
    238 H238       -5.7564  -15.3489  -53.4636 H         1 UNK         0.0600 
    239 H239       -6.4957  -16.9402  -53.3332 H         1 UNK         0.0600 
    240 H240       -4.5246  -18.4774  -50.5565 H         1 UNK         0.3000 
    241 H241       -2.7744  -19.7367  -50.7895 H         1 UNK         0.0600 
    242 H242       -0.9793  -20.4228  -52.9082 H         1 UNK         0.3800 
    243 H243       -1.9621  -20.7950  -54.2980 H         1 UNK         0.3800 
    244 H244       -1.4116  -17.5306  -50.4764 H         1 UNK         0.0800 
    245 H245       -1.1160  -17.5790  -52.1835 H         1 UNK         0.0800 
    246 H246        0.1457  -18.2363  -48.8850 H         1 UNK         0.0800 
    247 H247       -0.4947  -19.8451  -48.7767 H         1 UNK         0.0800 
@<TRIPOS>BOND
     1    1    2 1    
     2    1  127 1    
     3    1  128 1    
     4    1  129 1    
     5    2    3 2    
     6    2    4 am   BACKBONE|DICT|INTERRES
     7    4    5 1    
     8    4  130 1    
     9    5    6 1    
    10    5   65 1    
    11    5  131 1    
    12    6    7 1    
    13    6  132 1    
    14    6  133 1    
    15    7    8 1    
    16    8    9 1    
    17    8  134 1    
    18    8  135 1    
    19    9   10 ar   
    20    9   14 ar   
    21   10   11 ar   
    22   10  136 1    
    23   11   12 ar   
    24   11  126 1    
    25   12   13 ar   
    26   12  137 1    
    27   13   14 ar   
    28   13   15 1    
    29   14  138 1    
    30   15   16 1    
    31   15  139 1    
    32   15  140 1    
    33   16   17 1    
    34   17   18 1    
    35   17  141 1    
    36   17  142 1    
    37   18   19 1    
    38   18   67 1    
    39   18  143 1    
    40   19   20 am   BACKBONE|DICT|INTERRES
    41   19  144 1    
    42   20   21 2    
    43   20   22 1    
    44   22   23 1    
    45   22   24 1    
    46   22  145 1    
    47   23  146 1    
    48   23  147 1    
    49   23  148 1    
    50   24   25 am   BACKBONE|DICT|INTERRES
    51   24  149 1    
    52   25   26 2    
    53   25   27 1    
    54   27   28 1    
    55   27   29 1    
    56   27  150 1    
    57   28  151 1    
    58   28  152 1    
    59   28  153 1    
    60   29   30 am   BACKBONE|DICT|INTERRES
    61   29  154 1    
    62   30   31 2    
    63   30   32 1    
    64   32   33 1    
    65   32   34 1    
    66   32  155 1    
    67   33  156 1    
    68   33  157 1    
    69   33  158 1    
    70   34   35 am   BACKBONE|DICT|INTERRES
    71   34  159 1    
    72   35   36 2    
    73   35   37 1    
    74   37   38 1    
    75   37   39 1    
    76   37  160 1    
    77   38  161 1    
    78   38  162 1    
    79   38  163 1    
    80   39   40 am   BACKBONE|DICT|INTERRES
    81   39  164 1    
    82   40   41 2    
    83   40   42 1    
    84   42   43 1    
    85   42   44 1    
    86   42  165 1    
    87   43  166 1    
    88   43  167 1    
    89   43  168 1    
    90   44   45 am   BACKBONE|DICT|INTERRES
    91   44  169 1    
    92   45   46 2    
    93   45   47 1    
    94   47   48 1    
    95   47   49 1    
    96   47  170 1    
    97   48  171 1    
    98   48  172 1    
    99   48  173 1    
   100   49   50 am   BACKBONE|DICT|INTERRES
   101   49  174 1    
   102   50   51 2    
   103   50   52 1    
   104   52   53 1    
   105   52   54 1    
   106   52  175 1    
   107   53  176 1    
   108   53  177 1    
   109   53  178 1    
   110   54   55 am   BACKBONE|DICT|INTERRES
   111   54  179 1    
   112   55   56 2    
   113   55   57 1    
   114   57   58 1    
   115   57   59 1    
   116   57  180 1    
   117   58  181 1    
   118   58  182 1    
   119   58  183 1    
   120   59   60 am   BACKBONE|DICT|INTERRES
   121   59  184 1    
   122   60   61 2    
   123   60   62 1    
   124   62   63 1    
   125   62   64 1    
   126   62  185 1    
   127   63  186 1    
   128   63  187 1    
   129   63  188 1    
   130   64   65 am   BACKBONE|DICT|INTERRES
   131   64  189 1    
   132   65   66 2    
   133   67   68 2    
   134   67   69 am   BACKBONE|DICT|INTERRES
   135   69   70 1    
   136   69  190 1    
   137   70   71 1    
   138   70   72 1    
   139   70  191 1    
   140   71  192 1    
   141   71  193 1    
   142   71  194 1    
   143   72   73 2    
   144   72   74 am   BACKBONE|DICT|INTERRES
   145   74   75 1    
   146   74  195 1    
   147   75   76 1    
   148   75   77 1    
   149   75  196 1    
   150   76  197 1    
   151   76  198 1    
   152   76  199 1    
   153   77   78 2    
   154   77   79 am   BACKBONE|DICT|INTERRES
   155   79   80 1    
   156   79  200 1    
   157   80   81 1    
   158   80   82 1    
   159   80  201 1    
   160   81  202 1    
   161   81  203 1    
   162   81  204 1    
   163   82   83 2    
   164   82   84 am   BACKBONE|DICT|INTERRES
   165   84   85 1    
   166   84  205 1    
   167   85   86 1    
   168   85   87 1    
   169   85  206 1    
   170   86  207 1    
   171   86  208 1    
   172   86  209 1    
   173   87   88 2    
   174   87   89 am   BACKBONE|DICT|INTERRES
   175   89   90 1    
   176   89  210 1    
   177   90   91 1    
   178   90   92 1    
   179   90  211 1    
   180   91  212 1    
   181   91  213 1    
   182   91  214 1    
   183   92   93 2    
   184   92   94 am   BACKBONE|DICT|INTERRES
   185   94   95 1    
   186   94  215 1    
   187   95   96 1    
   188   95   97 1    
   189   95  216 1    
   190   96  217 1    
   191   96  218 1    
   192   96  219 1    
   193   97   98 2    
   194   97   99 am   BACKBONE|DICT|INTERRES
   195   99  100 1    
   196   99  220 1    
   197  100  101 1    
   198  100  102 1    
   199  100  221 1    
   200  101  222 1    
   201  101  223 1    
   202  101  224 1    
   203  102  103 2    
   204  102  104 am   BACKBONE|DICT|INTERRES
   205  104  105 1    
   206  104  225 1    
   207  105  106 1    
   208  105  107 1    
   209  105  226 1    
   210  106  227 1    
   211  106  228 1    
   212  106  229 1    
   213  107  108 2    
   214  107  109 am   BACKBONE|DICT|INTERRES
   215  109  110 1    
   216  109  230 1    
   217  110  111 1    
   218  110  112 1    
   219  110  231 1    
   220  111  232 1    
   221  111  233 1    
   222  111  234 1    
   223  112  113 2    
   224  112  114 am   BACKBONE|DICT|INTERRES
   225  114  115 1    
   226  114  235 1    
   227  115  116 1    
   228  115  117 1    
   229  115  236 1    
   230  116  237 1    
   231  116  238 1    
   232  116  239 1    
   233  117  118 2    
   234  117  119 am   BACKBONE|DICT|INTERRES
   235  119  120 1    
   236  119  240 1    
   237  120  121 1    
   238  120  124 1    
   239  120  241 1    
   240  121  122 am   BACKBONE|DICT|INTERRES
   241  121  123 2    
   242  122  242 1    
   243  122  243 1    
   244  124  125 1    
   245  124  244 1    
   246  124  245 1    
   247  125  126 1    
   248  126  246 1    
   249  126  247 1    
@<TRIPOS>SUBSTRUCTURE
     1 UNK         1 GROUP             0       ****    0 ROOT    
