@<TRIPOS>MOLECULE
3R540
247   249    1
SMALL
USER_CHARGES


@<TRIPOS>ATOM
      1 CA          1.0657  -17.5579  -46.5733 C.3       0 UNK        -0.1800 
      2 C           1.1332  -16.3319  -47.4687 C.2       0 UNK         0.5000 
      3 O           0.8587  -15.2242  -47.0090 O.2       0 UNK        -0.5000 
      4 N           1.5200  -16.5224  -48.7382 N.am      1 UNK        -0.5000 
      5 CA          1.6214  -15.4781  -49.7724 C.3       1 UNK         0.1400 
      6 C6          1.9113  -16.0998  -51.1667 C.3       23 UNK        -0.0398 
      7 S7          1.0800  -15.2210  -52.5364 S.3       23 UNK        -0.2404 
      8 C8         -0.2249  -16.4007  -53.0213 C.3       23 UNK        -0.0205 
      9 C9         -1.4891  -16.2395  -52.1878 C.ar      23 UNK        -0.0193 
     10 C10        -2.6276  -15.6425  -52.7396 C.ar      23 UNK        -0.1150 
     11 C11        -3.7965  -15.5035  -51.9842 C.ar      23 UNK        -0.0193 
     12 C12        -3.8124  -15.9411  -50.6563 C.ar      23 UNK        -0.1150 
     13 C13        -2.6797  -16.5337  -50.0926 C.ar      23 UNK        -0.0193 
     14 C14        -1.5302  -16.6983  -50.8688 C.ar      23 UNK        -0.1150 
     15 C15        -2.6837  -16.9733  -48.6393 C.3       23 UNK        -0.0205 
     16 S16        -3.5350  -18.5628  -48.4186 S.3       23 UNK        -0.2404 
     17 C17        -2.9613  -19.0164  -46.7486 C.3       23 UNK        -0.0398 
     18 CA         -1.9869  -20.2197  -46.7704 C.3       11 UNK         0.1400 
     19 N          -1.1292  -20.2705  -45.5846 N.am      11 UNK        -0.5000 
     20 C          -0.1104  -21.1241  -45.4040 C.2       10 UNK         0.5000 
     21 O           0.2462  -21.9499  -46.2436 O.2       10 UNK        -0.5000 
     22 CA          0.5918  -21.0912  -44.0342 C.3       10 UNK         0.1400 
     23 CB          1.5949  -19.9324  -43.9473 C.3       10 UNK        -0.1800 
     24 N          -0.3526  -21.0018  -42.9220 N.am      10 UNK        -0.5000 
     25 C          -1.2719  -21.9315  -42.6275 C.2       9 UNK         0.5000 
     26 O          -1.4025  -22.9886  -43.2442 O.2       9 UNK        -0.5000 
     27 CA         -2.2386  -21.5995  -41.4801 C.3       9 UNK         0.1400 
     28 CB         -1.5830  -21.8640  -40.1164 C.3       9 UNK        -0.1800 
     29 N          -2.7008  -20.2137  -41.5437 N.am      9 UNK        -0.5000 
     30 C          -3.5246  -19.7339  -42.4855 C.2       8 UNK         0.5000 
     31 O          -3.9999  -20.4151  -43.3955 O.2       8 UNK        -0.5000 
     32 CA         -3.8278  -18.2248  -42.4213 C.3       8 UNK         0.1400 
     33 CB         -4.8873  -17.9257  -41.3502 C.3       8 UNK        -0.1800 
     34 N          -2.6344  -17.4114  -42.1700 N.am      8 UNK        -0.5000 
     35 C          -1.5900  -17.3418  -43.0065 C.2       7 UNK         0.5000 
     36 O          -1.5214  -17.9677  -44.0592 O.2       7 UNK        -0.5000 
     37 CA         -0.4003  -16.4625  -42.5922 C.3       7 UNK         0.1400 
     38 CB         -0.6812  -14.9966  -42.9575 C.3       7 UNK        -0.1800 
     39 N          -0.0195  -16.5715  -41.1799 N.am      7 UNK        -0.5000 
     40 C           0.2327  -17.7121  -40.5175 C.2       6 UNK         0.5000 
     41 O           0.1128  -18.8338  -41.0139 O.2       6 UNK        -0.5000 
     42 CA          0.7467  -17.5545  -39.0768 C.3       6 UNK         0.1400 
     43 CB          1.0920  -18.8975  -38.4078 C.3       6 UNK        -0.1800 
     44 N           1.9360  -16.7093  -39.1061 N.am      6 UNK        -0.5000 
     45 C           2.1406  -15.6132  -38.3664 C.2       5 UNK         0.5000 
     46 O           1.3785  -15.2329  -37.4768 O.2       5 UNK        -0.5000 
     47 CA          3.4010  -14.7833  -38.6951 C.3       5 UNK         0.1400 
     48 CB          4.5396  -15.1303  -37.7237 C.3       5 UNK        -0.1800 
     49 N           3.8824  -14.9481  -40.0735 N.am      5 UNK        -0.5000 
     50 C           3.1953  -14.6020  -41.1711 C.2       4 UNK         0.5000 
     51 O           2.0714  -14.0973  -41.1322 O.2       4 UNK        -0.5000 
     52 CA          3.8613  -14.9375  -42.5230 C.3       4 UNK         0.1400 
     53 CB          3.8704  -16.4596  -42.7532 C.3       4 UNK        -0.1800 
     54 N           3.2042  -14.3108  -43.6715 N.am      4 UNK        -0.5000 
     55 C           3.1260  -12.9956  -43.9130 C.2       3 UNK         0.5000 
     56 O           3.6490  -12.1305  -43.2070 O.2       3 UNK        -0.5000 
     57 CA          2.3608  -12.6143  -45.1964 C.3       3 UNK         0.1400 
     58 CB          2.1684  -11.0931  -45.3725 C.3       3 UNK        -0.1800 
     59 N           2.9742  -13.2193  -46.3850 N.am      3 UNK        -0.5000 
     60 C           4.2057  -12.9892  -46.8728 C.2       2 UNK         0.5000 
     61 O           4.9824  -12.1577  -46.4016 O.2       2 UNK        -0.5000 
     62 CA          4.6784  -13.8353  -48.0763 C.3       2 UNK         0.1400 
     63 CB          5.9008  -14.6849  -47.6896 C.3       2 UNK        -0.1800 
     64 N           3.6525  -14.7303  -48.6115 N.am      2 UNK        -0.5000 
     65 C           2.6468  -14.3723  -49.4220 C.2       1 UNK         0.5000 
     66 O           2.4966  -13.2306  -49.8575 O.2       1 UNK        -0.5000 
     67 C          -2.7476  -21.5411  -46.9807 C.2       11 UNK         0.5000 
     68 O          -2.7664  -22.0480  -48.1014 O.2       11 UNK        -0.5000 
     69 N          -3.3231  -22.0901  -45.9011 N.am      12 UNK        -0.5000 
     70 CA         -4.0262  -23.3725  -45.9081 C.3       12 UNK         0.1400 
     71 CB         -4.7306  -23.5819  -44.5592 C.3       12 UNK        -0.1800 
     72 C          -3.0992  -24.5570  -46.2376 C.2       12 UNK         0.5000 
     73 O          -3.4723  -25.4082  -47.0449 O.2       12 UNK        -0.5000 
     74 N          -1.9018  -24.5731  -45.6352 N.am      13 UNK        -0.5000 
     75 CA         -0.8752  -25.5945  -45.8476 C.3       13 UNK         0.1400 
     76 CB          0.2451  -25.4172  -44.8113 C.3       13 UNK        -0.1800 
     77 C          -0.3003  -25.5862  -47.2761 C.2       13 UNK         0.5000 
     78 O          -0.1363  -26.6520  -47.8709 O.2       13 UNK        -0.5000 
     79 N          -0.0172  -24.3883  -47.8046 N.am      14 UNK        -0.5000 
     80 CA          0.5249  -24.1850  -49.1498 C.3       14 UNK         0.1400 
     81 CB          1.2632  -22.8367  -49.1812 C.3       14 UNK        -0.1800 
     82 C          -0.5459  -24.2231  -50.2572 C.2       14 UNK         0.5000 
     83 O          -0.1853  -24.2186  -51.4349 O.2       14 UNK        -0.5000 
     84 N          -1.8308  -24.1864  -49.8751 N.am      15 UNK        -0.5000 
     85 CA         -3.0098  -24.0220  -50.7329 C.3       15 UNK         0.1400 
     86 CB         -3.2408  -25.2766  -51.5994 C.3       15 UNK        -0.1800 
     87 C          -2.9386  -22.7233  -51.5631 C.2       15 UNK         0.5000 
     88 O          -3.2342  -22.7370  -52.7591 O.2       15 UNK        -0.5000 
     89 N          -2.5228  -21.6297  -50.9082 N.am      16 UNK        -0.5000 
     90 CA         -2.2161  -20.3117  -51.4795 C.3       16 UNK         0.1400 
     91 CB         -3.4904  -19.6257  -52.0056 C.3       16 UNK        -0.1800 
     92 C          -1.0851  -20.3614  -52.5276 C.2       16 UNK         0.5000 
     93 O          -1.1620  -19.6901  -53.5552 O.2       16 UNK        -0.5000 
     94 N          -0.0580  -21.1752  -52.2412 N.am      17 UNK        -0.5000 
     95 CA          1.0727  -21.5071  -53.1151 C.3       17 UNK         0.1400 
     96 CB          1.9499  -20.2665  -53.3900 C.3       17 UNK        -0.1800 
     97 C           0.6015  -22.2321  -54.3932 C.2       17 UNK         0.5000 
     98 O           0.9525  -21.8322  -55.5048 O.2       17 UNK        -0.5000 
     99 N          -0.2017  -23.2867  -54.1852 N.am      18 UNK        -0.5000 
    100 CA        -0.8511  -24.1296  -55.1932 C.3       18 UNK         0.1400 
    101 CB         0.1951  -24.9676  -55.9574 C.3       18 UNK        -0.1800 
    102 C         -1.7939  -23.3342  -56.1224 C.2       18 UNK         0.5000 
    103 O         -1.7145  -23.4590  -57.3463 O.2       18 UNK        -0.5000 
    104 N         -2.6778  -22.5354  -55.5136 N.am      19 UNK        -0.5000 
    105 CA        -3.6872  -21.7123  -56.1816 C.3       19 UNK         0.1400 
    106 CB        -3.2854  -20.2295  -56.0941 C.3       19 UNK        -0.1800 
    107 C         -5.0841  -21.9815  -55.5910 C.2       19 UNK         0.5000 
    108 O         -5.9123  -21.0716  -55.5294 O.2       19 UNK        -0.5000 
    109 N         -5.3166  -23.2291  -55.1523 N.am      20 UNK        -0.5000 
    110 CA        -6.5776  -23.7731  -54.6294 C.3       20 UNK         0.1400 
    111 CB        -7.6075  -23.9093  -55.7702 C.3       20 UNK        -0.1800 
    112 C         -7.1380  -23.0064  -53.4104 C.2       20 UNK         0.5000 
    113 O         -8.3554  -22.8931  -53.2616 O.2       20 UNK        -0.5000 
    114 N         -6.2305  -22.4884  -52.5696 N.am      21 UNK        -0.5000 
    115 CA        -6.4909  -21.6529  -51.3895 C.3       21 UNK         0.1400 
    116 CB        -7.3267  -22.4042  -50.3321 C.3       21 UNK        -0.1800 
    117 C         -7.0463  -20.2490  -51.7242 C.2       21 UNK         0.5000 
    118 O         -7.6119  -19.5946  -50.8469 O.2       21 UNK        -0.5000 
    119 N         -6.8187  -19.7874  -52.9623 N.am      22 UNK        -0.5000 
    120 CA        -7.1686  -18.4565  -53.4794 C.3       22 UNK         0.1400 
    121 C         -8.7006  -18.2245  -53.6619 C.2       22 UNK         0.5000 
    122 N         -9.1235  -17.0012  -53.9526 N.am      22 UNK        -0.7600 
    123 O         -9.5149  -19.1422  -53.5861 O.2       22 UNK        -0.5000 
    124 C124       -6.4485  -17.3140  -52.6987 C.3       23 UNK        -0.0398 
    125 S125       -5.8674  -15.9707  -53.7881 S.3       23 UNK        -0.2404 
    126 C126       -5.0367  -14.8680  -52.5980 C.3       23 UNK        -0.0205 
    127 H127        0.0680  -17.6482  -46.1472 H         1 UNK         0.0600 
    128 H128        1.7807  -17.4599  -45.7571 H         1 UNK         0.0600 
    129 H129        1.2870  -18.4768  -47.1168 H         1 UNK         0.0600 
    130 H130        1.7627  -17.4565  -49.0356 H         1 UNK         0.3000 
    131 H131        0.6425  -14.9943  -49.8027 H         1 UNK         0.0600 
    132 H132        1.5952  -17.1428  -51.1945 H         1 UNK         0.0800 
    133 H133        2.9825  -16.1333  -51.3751 H         1 UNK         0.0800 
    134 H134        0.1430  -17.4244  -52.9507 H         1 UNK         0.0800 
    135 H135       -0.4537  -16.2436  -54.0764 H         1 UNK         0.0800 
    136 H136       -2.6116  -15.2949  -53.7631 H         1 UNK         0.1150 
    137 H137       -4.7062  -15.8248  -50.0595 H         1 UNK         0.1150 
    138 H138       -0.6618  -17.1731  -50.4389 H         1 UNK         0.1150 
    139 H139       -1.6588  -17.0562  -48.2766 H         1 UNK         0.0800 
    140 H140       -3.1678  -16.2140  -48.0233 H         1 UNK         0.0800 
    141 H141       -3.8229  -19.2059  -46.1054 H         1 UNK         0.0800 
    142 H142       -2.4694  -18.1435  -46.3246 H         1 UNK         0.0800 
    143 H143       -1.3123  -20.0939  -47.6203 H         1 UNK         0.0600 
    144 H144       -1.3272  -19.5837  -44.8595 H         1 UNK         0.3000 
    145 H145        1.1453  -22.0262  -43.9264 H         1 UNK         0.0600 
    146 H146        2.1709  -19.9800  -43.0229 H         1 UNK         0.0600 
    147 H147        2.3032  -19.9614  -44.7762 H         1 UNK         0.0600 
    148 H148        1.0919  -18.9670  -43.9729 H         1 UNK         0.0600 
    149 H149       -0.2963  -20.1717  -42.3379 H         1 UNK         0.3000 
    150 H150       -3.1076  -22.2545  -41.5732 H         1 UNK         0.0600 
    151 H151       -1.2663  -22.9043  -40.0332 H         1 UNK         0.0600 
    152 H152       -2.2781  -21.6694  -39.2996 H         1 UNK         0.0600 
    153 H153       -0.7015  -21.2408  -39.9633 H         1 UNK         0.0600 
    154 H154       -2.2963  -19.5695  -40.8798 H         1 UNK         0.3000 
    155 H155       -4.2340  -17.9304  -43.3915 H         1 UNK         0.0600 
    156 H156       -4.5281  -18.1631  -40.3481 H         1 UNK         0.0600 
    157 H157       -5.7918  -18.5107  -41.5222 H         1 UNK         0.0600 
    158 H158       -5.1748  -16.8742  -41.3634 H         1 UNK         0.0600 
    159 H159       -2.6104  -16.8752  -41.3153 H         1 UNK         0.3000 
    160 H160        0.4579  -16.7902  -43.1804 H         1 UNK         0.0600 
    161 H161       -1.4573  -14.5646  -42.3250 H         1 UNK         0.0600 
    162 H162       -1.0128  -14.9078  -43.9934 H         1 UNK         0.0600 
    163 H163        0.2118  -14.3822  -42.8614 H         1 UNK         0.0600 
    164 H164        0.1559  -15.6970  -40.7037 H         1 UNK         0.3000 
    165 H165       -0.0527  -17.0794  -38.5048 H         1 UNK         0.0600 
    166 H166        1.4529  -18.7475  -37.3902 H         1 UNK         0.0600 
    167 H167        0.2142  -19.5417  -38.3486 H         1 UNK         0.0600 
    168 H168        1.8624  -19.4373  -38.9598 H         1 UNK         0.0600 
    169 H169        2.6119  -16.9280  -39.8237 H         1 UNK         0.3000 
    170 H170        3.1420  -13.7315  -38.5567 H         1 UNK         0.0600 
    171 H171        4.2262  -14.9911  -36.6881 H         1 UNK         0.0600 
    172 H172        4.8597  -16.1673  -37.8329 H         1 UNK         0.0600 
    173 H173        5.4073  -14.4908  -37.8870 H         1 UNK         0.0600 
    174 H174        4.7976  -15.3620  -40.1791 H         1 UNK         0.3000 
    175 H175        4.8919  -14.5784  -42.4902 H         1 UNK         0.0600 
    176 H176        2.8609  -16.8717  -42.7719 H         1 UNK         0.0600 
    177 H177        4.3520  -16.7132  -43.6980 H         1 UNK         0.0600 
    178 H178        4.4202  -16.9783  -41.9672 H         1 UNK         0.0600 
    179 H179        2.7432  -14.9364  -44.3142 H         1 UNK         0.3000 
    180 H180        1.3667  -13.0557  -45.1065 H         1 UNK         0.0600 
    181 H181        3.1179  -10.5607  -45.4306 H         1 UNK         0.0600 
    182 H182        1.6135  -10.6746  -44.5321 H         1 UNK         0.0600 
    183 H183        1.6036  -10.8708  -46.2778 H         1 UNK         0.0600 
    184 H184        2.4040  -13.9245  -46.8402 H         1 UNK         0.3000 
    185 H185        4.9812  -13.1401  -48.8620 H         1 UNK         0.0600 
    186 H186        6.7205  -14.0577  -47.3366 H         1 UNK         0.0600 
    187 H187        5.6634  -15.3923  -46.8939 H         1 UNK         0.0600 
    188 H188        6.2745  -15.2509  -48.5431 H         1 UNK         0.0600 
    189 H189        3.6891  -15.6894  -48.2985 H         1 UNK         0.3000 
    190 H190       -3.2816  -21.5991  -45.0148 H         1 UNK         0.3000 
    191 H191       -4.7923  -23.3261  -46.6850 H         1 UNK         0.0600 
    192 H192       -4.0213  -23.6071  -43.7317 H         1 UNK         0.0600 
    193 H193       -5.2822  -24.5227  -44.5484 H         1 UNK         0.0600 
    194 H194       -5.4453  -22.7831  -44.3605 H         1 UNK         0.0600 
    195 H195       -1.6913  -23.8557  -44.9463 H         1 UNK         0.3000 
    196 H196       -1.3366  -26.5703  -45.6822 H         1 UNK         0.0600 
    197 H197        1.0204  -26.1736  -44.9388 H         1 UNK         0.0600 
    198 H198       -0.1396  -25.5134  -43.7959 H         1 UNK         0.0600 
    199 H199        0.7209  -24.4396  -44.8963 H         1 UNK         0.0600 
    200 H200       -0.1302  -23.5555  -47.2312 H         1 UNK         0.3000 
    201 H201        1.2486  -24.9738  -49.3652 H         1 UNK         0.0600 
    202 H202        2.0321  -22.7917  -48.4095 H         1 UNK         0.0600 
    203 H203        0.5815  -22.0003  -49.0201 H         1 UNK         0.0600 
    204 H204        1.7608  -22.6811  -50.1385 H         1 UNK         0.0600 
    205 H205       -2.0147  -24.1346  -48.8816 H         1 UNK         0.3000 
    206 H206       -3.8666  -23.9147  -50.0660 H         1 UNK         0.0600 
    207 H207       -4.1759  -25.2008  -52.1557 H         1 UNK         0.0600 
    208 H208       -3.3029  -26.1728  -50.9821 H         1 UNK         0.0600 
    209 H209       -2.4399  -25.4244  -52.3241 H         1 UNK         0.0600 
    210 H210       -2.3948  -21.7219  -49.9024 H         1 UNK         0.3000 
    211 H211       -1.8316  -19.7035  -50.6603 H         1 UNK         0.0600 
    212 H212       -3.2702  -18.6364  -52.4067 H         1 UNK         0.0600 
    213 H213       -4.2126  -19.4864  -51.2035 H         1 UNK         0.0600 
    214 H214       -3.9659  -20.1979  -52.8007 H         1 UNK         0.0600 
    215 H215       -0.1217  -21.7205  -51.3950 H         1 UNK         0.3000 
    216 H216        1.6867  -22.2240  -52.5684 H         1 UNK         0.0600 
    217 H217        2.8562  -20.5454  -53.9285 H         1 UNK         0.0600 
    218 H218        2.2583  -19.7876  -52.4608 H         1 UNK         0.0600 
    219 H219        1.4309  -19.5223  -53.9944 H         1 UNK         0.0600 
    220 H220       -0.3879  -23.5460  -53.2196 H         1 UNK         0.3000 
    221 H221       -1.4855  -24.8249  -54.6420 H         1 UNK         0.0600 
    222 H222        0.8526  -24.3436  -56.5634 H         1 UNK         0.0600 
    223 H223        0.8171  -25.5415  -55.2704 H         1 UNK         0.0600 
    224 H224       -0.2888  -25.6793  -56.6273 H         1 UNK         0.0600 
    225 H225       -2.7069  -22.5209  -54.4949 H         1 UNK         0.3000 
    226 H226       -3.7513  -21.9802  -57.2377 H         1 UNK         0.0600 
    227 H227       -2.2704  -20.0720  -56.4593 H         1 UNK         0.0600 
    228 H228       -3.9489  -19.6071  -56.6954 H         1 UNK         0.0600 
    229 H229       -3.3323  -19.8609  -55.0701 H         1 UNK         0.0600 
    230 H230       -4.5510  -23.8852  -55.2102 H         1 UNK         0.3000 
    231 H231       -6.3501  -24.7778  -54.2703 H         1 UNK         0.0600 
    232 H232       -7.1969  -24.4745  -56.6069 H         1 UNK         0.0600 
    233 H233       -7.9231  -22.9354  -56.1461 H         1 UNK         0.0600 
    234 H234       -8.5010  -24.4363  -55.4336 H         1 UNK         0.0600 
    235 H235       -5.2516  -22.6168  -52.8064 H         1 UNK         0.3000 
    236 H236       -5.5170  -21.4735  -50.9361 H         1 UNK         0.0600 
    237 H237       -7.3500  -21.8531  -49.3913 H         1 UNK         0.0600 
    238 H238       -8.3597  -22.5423  -50.6514 H         1 UNK         0.0600 
    239 H239       -6.9043  -23.3863  -50.1197 H         1 UNK         0.0600 
    240 H240       -6.4127  -20.4137  -53.6485 H         1 UNK         0.3000 
    241 H241       -6.7720  -18.4772  -54.4951 H         1 UNK         0.0600 
    242 H242      -10.1090  -16.8384  -54.0897 H         1 UNK         0.3800 
    243 H243       -8.4720  -16.2362  -54.0475 H         1 UNK         0.3800 
    244 H244       -7.0825  -16.9070  -51.9090 H         1 UNK         0.0800 
    245 H245       -5.5681  -17.7048  -52.1907 H         1 UNK         0.0800 
    246 H246       -5.7464  -14.5742  -51.8230 H         1 UNK         0.0800 
    247 H247       -4.7499  -13.9492  -53.1113 H         1 UNK         0.0800 
@<TRIPOS>BOND
     1    1    2 1    
     2    1  127 1    
     3    1  128 1    
     4    1  129 1    
     5    2    3 2    
     6    2    4 am   BACKBONE|DICT|INTERRES
     7    4    5 1    
     8    4  130 1    
     9    5    6 1    
    10    5   65 1    
    11    5  131 1    
    12    6    7 1    
    13    6  132 1    
    14    6  133 1    
    15    7    8 1    
    16    8    9 1    
    17    8  134 1    
    18    8  135 1    
    19    9   10 ar   
    20    9   14 ar   
    21   10   11 ar   
    22   10  136 1    
    23   11   12 ar   
    24   11  126 1    
    25   12   13 ar   
    26   12  137 1    
    27   13   14 ar   
    28   13   15 1    
    29   14  138 1    
    30   15   16 1    
    31   15  139 1    
    32   15  140 1    
    33   16   17 1    
    34   17   18 1    
    35   17  141 1    
    36   17  142 1    
    37   18   19 1    
    38   18   67 1    
    39   18  143 1    
    40   19   20 am   BACKBONE|DICT|INTERRES
    41   19  144 1    
    42   20   21 2    
    43   20   22 1    
    44   22   23 1    
    45   22   24 1    
    46   22  145 1    
    47   23  146 1    
    48   23  147 1    
    49   23  148 1    
    50   24   25 am   BACKBONE|DICT|INTERRES
    51   24  149 1    
    52   25   26 2    
    53   25   27 1    
    54   27   28 1    
    55   27   29 1    
    56   27  150 1    
    57   28  151 1    
    58   28  152 1    
    59   28  153 1    
    60   29   30 am   BACKBONE|DICT|INTERRES
    61   29  154 1    
    62   30   31 2    
    63   30   32 1    
    64   32   33 1    
    65   32   34 1    
    66   32  155 1    
    67   33  156 1    
    68   33  157 1    
    69   33  158 1    
    70   34   35 am   BACKBONE|DICT|INTERRES
    71   34  159 1    
    72   35   36 2    
    73   35   37 1    
    74   37   38 1    
    75   37   39 1    
    76   37  160 1    
    77   38  161 1    
    78   38  162 1    
    79   38  163 1    
    80   39   40 am   BACKBONE|DICT|INTERRES
    81   39  164 1    
    82   40   41 2    
    83   40   42 1    
    84   42   43 1    
    85   42   44 1    
    86   42  165 1    
    87   43  166 1    
    88   43  167 1    
    89   43  168 1    
    90   44   45 am   BACKBONE|DICT|INTERRES
    91   44  169 1    
    92   45   46 2    
    93   45   47 1    
    94   47   48 1    
    95   47   49 1    
    96   47  170 1    
    97   48  171 1    
    98   48  172 1    
    99   48  173 1    
   100   49   50 am   BACKBONE|DICT|INTERRES
   101   49  174 1    
   102   50   51 2    
   103   50   52 1    
   104   52   53 1    
   105   52   54 1    
   106   52  175 1    
   107   53  176 1    
   108   53  177 1    
   109   53  178 1    
   110   54   55 am   BACKBONE|DICT|INTERRES
   111   54  179 1    
   112   55   56 2    
   113   55   57 1    
   114   57   58 1    
   115   57   59 1    
   116   57  180 1    
   117   58  181 1    
   118   58  182 1    
   119   58  183 1    
   120   59   60 am   BACKBONE|DICT|INTERRES
   121   59  184 1    
   122   60   61 2    
   123   60   62 1    
   124   62   63 1    
   125   62   64 1    
   126   62  185 1    
   127   63  186 1    
   128   63  187 1    
   129   63  188 1    
   130   64   65 am   BACKBONE|DICT|INTERRES
   131   64  189 1    
   132   65   66 2    
   133   67   68 2    
   134   67   69 am   BACKBONE|DICT|INTERRES
   135   69   70 1    
   136   69  190 1    
   137   70   71 1    
   138   70   72 1    
   139   70  191 1    
   140   71  192 1    
   141   71  193 1    
   142   71  194 1    
   143   72   73 2    
   144   72   74 am   BACKBONE|DICT|INTERRES
   145   74   75 1    
   146   74  195 1    
   147   75   76 1    
   148   75   77 1    
   149   75  196 1    
   150   76  197 1    
   151   76  198 1    
   152   76  199 1    
   153   77   78 2    
   154   77   79 am   BACKBONE|DICT|INTERRES
   155   79   80 1    
   156   79  200 1    
   157   80   81 1    
   158   80   82 1    
   159   80  201 1    
   160   81  202 1    
   161   81  203 1    
   162   81  204 1    
   163   82   83 2    
   164   82   84 am   BACKBONE|DICT|INTERRES
   165   84   85 1    
   166   84  205 1    
   167   85   86 1    
   168   85   87 1    
   169   85  206 1    
   170   86  207 1    
   171   86  208 1    
   172   86  209 1    
   173   87   88 2    
   174   87   89 am   BACKBONE|DICT|INTERRES
   175   89   90 1    
   176   89  210 1    
   177   90   91 1    
   178   90   92 1    
   179   90  211 1    
   180   91  212 1    
   181   91  213 1    
   182   91  214 1    
   183   92   93 2    
   184   92   94 am   BACKBONE|DICT|INTERRES
   185   94   95 1    
   186   94  215 1    
   187   95   96 1    
   188   95   97 1    
   189   95  216 1    
   190   96  217 1    
   191   96  218 1    
   192   96  219 1    
   193   97   98 2    
   194   97   99 am   BACKBONE|DICT|INTERRES
   195   99  100 1    
   196   99  220 1    
   197  100  101 1    
   198  100  102 1    
   199  100  221 1    
   200  101  222 1    
   201  101  223 1    
   202  101  224 1    
   203  102  103 2    
   204  102  104 am   BACKBONE|DICT|INTERRES
   205  104  105 1    
   206  104  225 1    
   207  105  106 1    
   208  105  107 1    
   209  105  226 1    
   210  106  227 1    
   211  106  228 1    
   212  106  229 1    
   213  107  108 2    
   214  107  109 am   BACKBONE|DICT|INTERRES
   215  109  110 1    
   216  109  230 1    
   217  110  111 1    
   218  110  112 1    
   219  110  231 1    
   220  111  232 1    
   221  111  233 1    
   222  111  234 1    
   223  112  113 2    
   224  112  114 am   BACKBONE|DICT|INTERRES
   225  114  115 1    
   226  114  235 1    
   227  115  116 1    
   228  115  117 1    
   229  115  236 1    
   230  116  237 1    
   231  116  238 1    
   232  116  239 1    
   233  117  118 2    
   234  117  119 am   BACKBONE|DICT|INTERRES
   235  119  120 1    
   236  119  240 1    
   237  120  121 1    
   238  120  124 1    
   239  120  241 1    
   240  121  122 am   BACKBONE|DICT|INTERRES
   241  121  123 2    
   242  122  242 1    
   243  122  243 1    
   244  124  125 1    
   245  124  244 1    
   246  124  245 1    
   247  125  126 1    
   248  126  246 1    
   249  126  247 1    
@<TRIPOS>SUBSTRUCTURE
     1 UNK         1 GROUP             0       ****    0 ROOT    
