@<TRIPOS>MOLECULE
3R540
247   249    1
SMALL
USER_CHARGES


@<TRIPOS>ATOM
      1 CA          7.0069  -10.6034  -48.5083 C.3       0 UNK        -0.1800 
      2 C           7.1845  -12.1131  -48.4349 C.2       0 UNK         0.5000 
      3 O           8.0939  -12.5919  -47.7572 O.2       0 UNK        -0.5000 
      4 N           6.3197  -12.8638  -49.1284 N.am      1 UNK        -0.5000 
      5 CA          6.3036  -14.3327  -49.1563 C.3       1 UNK         0.1400 
      6 C6          5.5041  -14.8913  -50.3639 C.3       23 UNK        -0.0398 
      7 S7          3.8766  -14.1054  -50.6636 S.3       23 UNK        -0.2404 
      8 C8          2.7294  -15.0777  -49.6353 C.3       23 UNK        -0.0205 
      9 C9          2.6489  -16.5389  -50.0471 C.ar      23 UNK        -0.0193 
     10 C10         1.8793  -16.9108  -51.1499 C.ar      23 UNK        -0.1150 
     11 C11         1.7662  -18.2547  -51.5144 C.ar      23 UNK        -0.0193 
     12 C12         2.4595  -19.2265  -50.7881 C.ar      23 UNK        -0.1150 
     13 C13         3.2297  -18.8697  -49.6758 C.ar      23 UNK        -0.0193 
     14 C14         3.3150  -17.5232  -49.3111 C.ar      23 UNK        -0.1150 
     15 C15         3.9865  -19.9195  -48.8664 C.3       23 UNK        -0.0205 
     16 S16         3.0136  -21.4189  -48.4993 S.3       23 UNK        -0.2404 
     17 C17         1.6020  -20.7178  -47.5823 C.3       23 UNK        -0.0398 
     18 CA          0.6228  -21.8052  -47.0793 C.3       11 UNK         0.1400 
     19 N          -0.2367  -21.3123  -45.9999 N.am      11 UNK        -0.5000 
     20 C          -1.0429  -22.0804  -45.2537 C.2       10 UNK         0.5000 
     21 O          -1.0764  -23.3079  -45.3340 O.2       10 UNK        -0.5000 
     22 CA         -2.0136  -21.3570  -44.3001 C.3       10 UNK         0.1400 
     23 CB         -1.3372  -21.0488  -42.9568 C.3       10 UNK        -0.1800 
     24 N          -2.5576  -20.1274  -44.8820 N.am      10 UNK        -0.5000 
     25 C          -3.3701  -20.0965  -45.9486 C.2       9 UNK         0.5000 
     26 O          -3.8090  -21.1084  -46.4923 O.2       9 UNK        -0.5000 
     27 CA         -3.7052  -18.7161  -46.5444 C.3       9 UNK         0.1400 
     28 CB         -4.8974  -18.0793  -45.8171 C.3       9 UNK        -0.1800 
     29 N          -2.5629  -17.7993  -46.5283 N.am      9 UNK        -0.5000 
     30 C          -1.4304  -17.9846  -47.2218 C.2       8 UNK         0.5000 
     31 O          -1.2606  -18.9245  -47.9966 O.2       8 UNK        -0.5000 
     32 CA         -0.2753  -16.9963  -46.9602 C.3       8 UNK         0.1400 
     33 CB         -0.4568  -15.7047  -47.7700 C.3       8 UNK        -0.1800 
     34 N          -0.1327  -16.6798  -45.5357 N.am      8 UNK        -0.5000 
     35 C           0.2258  -17.5764  -44.6047 C.2       7 UNK         0.5000 
     36 O           0.5702  -18.7268  -44.8727 O.2       7 UNK        -0.5000 
     37 CA          0.1152  -17.1487  -43.1289 C.3       7 UNK         0.1400 
     38 CB          1.4012  -16.4834  -42.6175 C.3       7 UNK        -0.1800 
     39 N          -1.0236  -16.2609  -42.9006 N.am      7 UNK        -0.5000 
     40 C          -2.2990  -16.6711  -42.8732 C.2       6 UNK         0.5000 
     41 O          -2.6368  -17.8479  -42.9943 O.2       6 UNK        -0.5000 
     42 CA         -3.3770  -15.5803  -42.7268 C.3       6 UNK         0.1400 
     43 CB         -3.6130  -15.2506  -41.2456 C.3       6 UNK        -0.1800 
     44 N          -3.0372  -14.3520  -43.4471 N.am      6 UNK        -0.5000 
     45 C          -2.9390  -14.2561  -44.7809 C.2       5 UNK         0.5000 
     46 O          -3.1889  -15.1836  -45.5482 O.2       5 UNK        -0.5000 
     47 CA         -2.4197  -12.9211  -45.3492 C.3       5 UNK         0.1400 
     48 CB         -3.5897  -11.9760  -45.6585 C.3       5 UNK        -0.1800 
     49 N          -1.4710  -12.2457  -44.4586 N.am      5 UNK        -0.5000 
     50 C          -0.2857  -12.7471  -44.0885 C.2       4 UNK         0.5000 
     51 O           0.1549  -13.8308  -44.4842 O.2       4 UNK        -0.5000 
     52 CA          0.4968  -11.9342  -43.0502 C.3       4 UNK         0.1400 
     53 CB         -0.1517  -12.0730  -41.6585 C.3       4 UNK        -0.1800 
     54 N           1.8717  -12.4167  -43.0043 N.am      4 UNK        -0.5000 
     55 C           2.9153  -11.7508  -42.4975 C.2       3 UNK         0.5000 
     56 O           2.8328  -10.6199  -42.0159 O.2       3 UNK        -0.5000 
     57 CA          4.2830  -12.4625  -42.5129 C.3       3 UNK         0.1400 
     58 CB          4.5916  -13.0489  -41.1261 C.3       3 UNK        -0.1800 
     59 N           4.3899  -13.5327  -43.5082 N.am      3 UNK        -0.5000 
     60 C           4.4767  -13.3365  -44.8289 C.2       2 UNK         0.5000 
     61 O           4.4411  -12.2253  -45.3655 O.2       2 UNK        -0.5000 
     62 CA          4.6210  -14.5991  -45.6885 C.3       2 UNK         0.1400 
     63 CB          3.2809  -15.3452  -45.8132 C.3       2 UNK        -0.1800 
     64 N           5.1021  -14.2104  -47.0079 N.am      2 UNK        -0.5000 
     65 C           5.8419  -14.9673  -47.8254 C.2       1 UNK         0.5000 
     66 O           6.1678  -16.1266  -47.5667 O.2       1 UNK        -0.5000 
     67 C          -0.2111  -22.4229  -48.2246 C.2       11 UNK         0.5000 
     68 O           0.0987  -23.5282  -48.6704 O.2       11 UNK        -0.5000 
     69 N          -1.2961  -21.7426  -48.6275 N.am      12 UNK        -0.5000 
     70 CA         -2.2744  -22.2515  -49.5914 C.3       12 UNK         0.1400 
     71 CB         -3.3085  -21.1680  -49.9319 C.3       12 UNK        -0.1800 
     72 C          -2.9793  -23.5297  -49.1050 C.2       12 UNK         0.5000 
     73 O          -3.1977  -24.4349  -49.9062 O.2       12 UNK        -0.5000 
     74 N          -3.3058  -23.5996  -47.8071 N.am      13 UNK        -0.5000 
     75 CA         -3.9082  -24.7700  -47.1667 C.3       13 UNK         0.1400 
     76 CB         -4.3555  -24.4207  -45.7391 C.3       13 UNK        -0.1800 
     77 C          -2.9596  -25.9805  -47.1640 C.2       13 UNK         0.5000 
     78 O          -3.3878  -27.0831  -47.5038 O.2       13 UNK        -0.5000 
     79 N          -1.6806  -25.7443  -46.8382 N.am      14 UNK        -0.5000 
     80 CA         -0.6070  -26.7403  -46.8854 C.3       14 UNK         0.1400 
     81 CB          0.6644  -26.1509  -46.2562 C.3       14 UNK        -0.1800 
     82 C          -0.3271  -27.2540  -48.3118 C.2       14 UNK         0.5000 
     83 O          -0.0565  -28.4420  -48.4893 O.2       14 UNK        -0.5000 
     84 N          -0.4387  -26.3603  -49.3035 N.am      15 UNK        -0.5000 
     85 CA         -0.3429  -26.6672  -50.7323 C.3       15 UNK         0.1400 
     86 CB         -0.0493  -25.3643  -51.4943 C.3       15 UNK        -0.1800 
     87 C          -1.6022  -27.3520  -51.3081 C.2       15 UNK         0.5000 
     88 O          -1.5600  -27.8067  -52.4520 O.2       15 UNK        -0.5000 
     89 N          -2.6946  -27.3941  -50.5286 N.am      16 UNK        -0.5000 
     90 CA         -4.0365  -27.8718  -50.8835 C.3       16 UNK         0.1400 
     91 CB         -4.0287  -29.3852  -51.1823 C.3       16 UNK        -0.1800 
     92 C          -4.6976  -27.0342  -52.0007 C.2       16 UNK         0.5000 
     93 O          -5.4890  -27.5561  -52.7878 O.2       16 UNK        -0.5000 
     94 N          -4.3767  -25.7360  -52.0353 N.am      17 UNK        -0.5000 
     95 CA         -4.8373  -24.7514  -53.0087 C.3       17 UNK         0.1400 
     96 CB         -3.6399  -23.8710  -53.4017 C.3       17 UNK        -0.1800 
     97 C          -6.0184  -23.9544  -52.4214 C.2       17 UNK         0.5000 
     98 O          -5.9579  -22.7281  -52.2808 O.2       17 UNK        -0.5000 
     99 N          -7.0636  -24.6972  -52.0272 N.am      18 UNK        -0.5000 
    100 CA        -8.3569  -24.2487  -51.4886 C.3       18 UNK         0.1400 
    101 CB        -9.1212  -23.4462  -52.5621 C.3       18 UNK        -0.1800 
    102 C         -8.2937  -23.4690  -50.1558 C.2       18 UNK         0.5000 
    103 O         -9.3329  -22.9982  -49.6923 O.2       18 UNK        -0.5000 
    104 N         -7.0892  -23.3183  -49.5820 N.am      19 UNK        -0.5000 
    105 CA        -6.7453  -22.4334  -48.4621 C.3       19 UNK         0.1400 
    106 CB        -7.4189  -22.9049  -47.1568 C.3       19 UNK        -0.1800 
    107 C         -7.0093  -20.9429  -48.7720 C.2       19 UNK         0.5000 
    108 O         -7.2647  -20.1647  -47.8517 O.2       19 UNK        -0.5000 
    109 N         -6.9687  -20.5742  -50.0621 N.am      20 UNK        -0.5000 
    110 CA        -7.4143  -19.2651  -50.5392 C.3       20 UNK         0.1400 
    111 CB        -8.9392  -19.2932  -50.7502 C.3       20 UNK        -0.1800 
    112 C         -6.7067  -18.7831  -51.8145 C.2       20 UNK         0.5000 
    113 O         -6.7377  -17.5783  -52.0712 O.2       20 UNK        -0.5000 
    114 N         -6.0823  -19.6810  -52.5963 N.am      21 UNK        -0.5000 
    115 CA        -5.4752  -19.3493  -53.8954 C.3       21 UNK         0.1400 
    116 CB        -4.9527  -20.6310  -54.5524 C.3       21 UNK        -0.1800 
    117 C         -4.3443  -18.3035  -53.8284 C.2       21 UNK         0.5000 
    118 O         -4.1500  -17.5544  -54.7867 O.2       21 UNK        -0.5000 
    119 N         -3.6401  -18.2646  -52.6926 N.am      22 UNK        -0.5000 
    120 CA        -2.5973  -17.2770  -52.3797 C.3       22 UNK         0.1400 
    121 C         -3.1464  -15.9161  -51.8542 C.2       22 UNK         0.5000 
    122 N         -4.4508  -15.7305  -51.6833 N.am      22 UNK        -0.7600 
    123 O         -2.3696  -14.9985  -51.6057 O.2       22 UNK        -0.5000 
    124 C124       -1.5354  -17.8624  -51.4171 C.3       23 UNK        -0.0398 
    125 S125       -0.7077  -19.3440  -52.1005 S.3       23 UNK        -0.2404 
    126 C126        0.8783  -18.6615  -52.6790 C.3       23 UNK        -0.0205 
    127 H127        6.1810  -10.3237  -49.1629 H         1 UNK         0.0600 
    128 H128        7.9152  -10.1360  -48.8885 H         1 UNK         0.0600 
    129 H129        6.8045  -10.2018  -47.5153 H         1 UNK         0.0600 
    130 H130        5.5918  -12.4184  -49.6705 H         1 UNK         0.3000 
    131 H131        7.3377  -14.6585  -49.2893 H         1 UNK         0.0600 
    132 H132        6.0922  -14.7222  -51.2668 H         1 UNK         0.0800 
    133 H133        5.3983  -15.9751  -50.3059 H         1 UNK         0.0800 
    134 H134        1.7377  -14.6306  -49.7154 H         1 UNK         0.0800 
    135 H135        3.0067  -14.9887  -48.5880 H         1 UNK         0.0800 
    136 H136        1.3544  -16.1518  -51.7131 H         1 UNK         0.1150 
    137 H137        2.3779  -20.2648  -51.0770 H         1 UNK         0.1150 
    138 H138        3.9101  -17.2408  -48.4558 H         1 UNK         0.1150 
    139 H139        4.8780  -20.2092  -49.4237 H         1 UNK         0.0800 
    140 H140        4.3370  -19.4974  -47.9231 H         1 UNK         0.0800 
    141 H141        1.0907  -19.9870  -48.2096 H         1 UNK         0.0800 
    142 H142        2.0078  -20.1617  -46.7361 H         1 UNK         0.0800 
    143 H143        1.2187  -22.6117  -46.6460 H         1 UNK         0.0600 
    144 H144       -0.2202  -20.3131  -45.8248 H         1 UNK         0.3000 
    145 H145       -2.8511  -22.0300  -44.1061 H         1 UNK         0.0600 
    146 H146       -2.0278  -20.5602  -42.2693 H         1 UNK         0.0600 
    147 H147       -0.9937  -21.9659  -42.4767 H         1 UNK         0.0600 
    148 H148       -0.4700  -20.4011  -43.0787 H         1 UNK         0.0600 
    149 H149       -2.3025  -19.2538  -44.4347 H         1 UNK         0.3000 
    150 H150       -3.9925  -18.8683  -47.5868 H         1 UNK         0.0600 
    151 H151       -5.7695  -18.7334  -45.8545 H         1 UNK         0.0600 
    152 H152       -5.1808  -17.1333  -46.2787 H         1 UNK         0.0600 
    153 H153       -4.6760  -17.8874  -44.7677 H         1 UNK         0.0600 
    154 H154       -2.6633  -16.9560  -45.9700 H         1 UNK         0.3000 
    155 H155        0.6513  -17.4705  -47.2916 H         1 UNK         0.0600 
    156 H156       -1.4004  -15.2107  -47.5414 H         1 UNK         0.0600 
    157 H157       -0.4515  -15.9162  -48.8401 H         1 UNK         0.0600 
    158 H158        0.3482  -14.9973  -47.5720 H         1 UNK         0.0600 
    159 H159       -0.3533  -15.7350  -45.2433 H         1 UNK         0.3000 
    160 H160       -0.0347  -18.0569  -42.5414 H         1 UNK         0.0600 
    161 H161        1.5569  -15.5019  -43.0606 H         1 UNK         0.0600 
    162 H162        2.2759  -17.0955  -42.8413 H         1 UNK         0.0600 
    163 H163        1.3668  -16.3522  -41.5360 H         1 UNK         0.0600 
    164 H164       -0.8264  -15.2721  -42.8570 H         1 UNK         0.3000 
    165 H165       -4.3073  -15.9723  -43.1432 H         1 UNK         0.0600 
    166 H166       -4.4265  -14.5348  -41.1259 H         1 UNK         0.0600 
    167 H167       -3.8848  -16.1463  -40.6854 H         1 UNK         0.0600 
    168 H168       -2.7222  -14.8286  -40.7785 H         1 UNK         0.0600 
    169 H169       -2.8254  -13.5385  -42.8892 H         1 UNK         0.3000 
    170 H170       -1.9008  -13.1404  -46.2845 H         1 UNK         0.0600 
    171 H171       -4.3012  -12.4460  -46.3390 H         1 UNK         0.0600 
    172 H172       -4.1338  -11.6981  -44.7550 H         1 UNK         0.0600 
    173 H173       -3.2415  -11.0604  -46.1369 H         1 UNK         0.0600 
    174 H174       -1.7632  -11.3531  -44.0869 H         1 UNK         0.3000 
    175 H175        0.4925  -10.8873  -43.3607 H         1 UNK         0.0600 
    176 H176       -0.1550  -13.1098  -41.3195 H         1 UNK         0.0600 
    177 H177        0.3783  -11.4817  -40.9118 H         1 UNK         0.0600 
    178 H178       -1.1849  -11.7244  -41.6642 H         1 UNK         0.0600 
    179 H179        2.0137  -13.3169  -43.4426 H         1 UNK         0.3000 
    180 H180        5.0399  -11.7085  -42.7397 H         1 UNK         0.0600 
    181 H181        3.8751  -13.8231  -40.8484 H         1 UNK         0.0600 
    182 H182        4.5537  -12.2761  -40.3570 H         1 UNK         0.0600 
    183 H183        5.5896  -13.4863  -41.0949 H         1 UNK         0.0600 
    184 H184        4.4294  -14.4749  -43.1474 H         1 UNK         0.3000 
    185 H185        5.3584  -15.2498  -45.2134 H         1 UNK         0.0600 
    186 H186        2.9529  -15.7116  -44.8439 H         1 UNK         0.0600 
    187 H187        2.4921  -14.7019  -46.2052 H         1 UNK         0.0600 
    188 H188        3.3635  -16.2156  -46.4619 H         1 UNK         0.0600 
    189 H189        4.9279  -13.2422  -47.2473 H         1 UNK         0.3000 
    190 H190       -1.4536  -20.8095  -48.2561 H         1 UNK         0.3000 
    191 H191       -1.7333  -22.4978  -50.5070 H         1 UNK         0.0600 
    192 H192       -3.8988  -20.8778  -49.0652 H         1 UNK         0.0600 
    193 H193       -4.0001  -21.5168  -50.6994 H         1 UNK         0.0600 
    194 H194       -2.8263  -20.2729  -50.3141 H         1 UNK         0.0600 
    195 H195       -3.1665  -22.7783  -47.2257 H         1 UNK         0.3000 
    196 H196       -4.7964  -25.0397  -47.7420 H         1 UNK         0.0600 
    197 H197       -4.9395  -25.2343  -45.3079 H         1 UNK         0.0600 
    198 H198       -4.9782  -23.5274  -45.7220 H         1 UNK         0.0600 
    199 H199       -3.5084  -24.2446  -45.0776 H         1 UNK         0.0600 
    200 H200       -1.4229  -24.8112  -46.5280 H         1 UNK         0.3000 
    201 H201       -0.9202  -27.5947  -46.2820 H         1 UNK         0.0600 
    202 H202        0.4880  -25.8452  -45.2247 H         1 UNK         0.0600 
    203 H203        1.0200  -25.2792  -46.8059 H         1 UNK         0.0600 
    204 H204        1.4713  -26.8846  -46.2456 H         1 UNK         0.0600 
    205 H205       -0.5860  -25.3854  -49.0601 H         1 UNK         0.3000 
    206 H206        0.4973  -27.3475  -50.8844 H         1 UNK         0.0600 
    207 H207        0.8577  -24.8855  -51.1246 H         1 UNK         0.0600 
    208 H208        0.0946  -25.5550  -52.5584 H         1 UNK         0.0600 
    209 H209       -0.8675  -24.6505  -51.3981 H         1 UNK         0.0600 
    210 H210       -2.6212  -26.9828  -49.6068 H         1 UNK         0.3000 
    211 H211       -4.6506  -27.7186  -49.9952 H         1 UNK         0.0600 
    212 H212       -3.4968  -29.6154  -52.1057 H         1 UNK         0.0600 
    213 H213       -5.0446  -29.7674  -51.2882 H         1 UNK         0.0600 
    214 H214       -3.5562  -29.9432  -50.3739 H         1 UNK         0.0600 
    215 H215       -3.7887  -25.3674  -51.2881 H         1 UNK         0.3000 
    216 H216       -5.1912  -25.2554  -53.9101 H         1 UNK         0.0600 
    217 H217       -2.7751  -24.4789  -53.6685 H         1 UNK         0.0600 
    218 H218       -3.3378  -23.2022  -52.5948 H         1 UNK         0.0600 
    219 H219       -3.8821  -23.2677  -54.2747 H         1 UNK         0.0600 
    220 H220       -6.9798  -25.6975  -52.1540 H         1 UNK         0.3000 
    221 H221       -8.9281  -25.1544  -51.2801 H         1 UNK         0.0600 
    222 H222       -8.6345  -22.4950  -52.7805 H         1 UNK         0.0600 
    223 H223       -9.1961  -24.0060  -53.4943 H         1 UNK         0.0600 
    224 H224      -10.1387  -23.2235  -52.2387 H         1 UNK         0.0600 
    225 H225       -6.3064  -23.7362  -50.0645 H         1 UNK         0.3000 
    226 H226       -5.6705  -22.5143  -48.3216 H         1 UNK         0.0600 
    227 H227       -7.2183  -23.9592  -46.9674 H         1 UNK         0.0600 
    228 H228       -7.0434  -22.3436  -46.3006 H         1 UNK         0.0600 
    229 H229       -8.5000  -22.7684  -47.1839 H         1 UNK         0.0600 
    230 H230       -6.7475  -21.2744  -50.7583 H         1 UNK         0.3000 
    231 H231       -7.1879  -18.5141  -49.7792 H         1 UNK         0.0600 
    232 H232       -9.4642  -19.5053  -49.8186 H         1 UNK         0.0600 
    233 H233       -9.2275  -20.0549  -51.4756 H         1 UNK         0.0600 
    234 H234       -9.3058  -18.3330  -51.1154 H         1 UNK         0.0600 
    235 H235       -6.0844  -20.6652  -52.3558 H         1 UNK         0.3000 
    236 H236       -6.2634  -18.9385  -54.5297 H         1 UNK         0.0600 
    237 H237       -4.5568  -20.4298  -55.5485 H         1 UNK         0.0600 
    238 H238       -4.1469  -21.0626  -53.9597 H         1 UNK         0.0600 
    239 H239       -5.7406  -21.3767  -54.6594 H         1 UNK         0.0600 
    240 H240       -3.8729  -18.9202  -51.9632 H         1 UNK         0.3000 
    241 H241       -2.0792  -17.0333  -53.3092 H         1 UNK         0.0600 
    242 H242       -4.7771  -14.8377  -51.3501 H         1 UNK         0.3800 
    243 H243       -5.1267  -16.4548  -51.9027 H         1 UNK         0.3800 
    244 H244       -1.9964  -18.1298  -50.4664 H         1 UNK         0.0800 
    245 H245       -0.7881  -17.1105  -51.1715 H         1 UNK         0.0800 
    246 H246        0.6921  -17.8158  -53.3427 H         1 UNK         0.0800 
    247 H247        1.3900  -19.4154  -53.2789 H         1 UNK         0.0800 
@<TRIPOS>BOND
     1    1    2 1    
     2    1  127 1    
     3    1  128 1    
     4    1  129 1    
     5    2    3 2    
     6    2    4 am   BACKBONE|DICT|INTERRES
     7    4    5 1    
     8    4  130 1    
     9    5    6 1    
    10    5   65 1    
    11    5  131 1    
    12    6    7 1    
    13    6  132 1    
    14    6  133 1    
    15    7    8 1    
    16    8    9 1    
    17    8  134 1    
    18    8  135 1    
    19    9   10 ar   
    20    9   14 ar   
    21   10   11 ar   
    22   10  136 1    
    23   11   12 ar   
    24   11  126 1    
    25   12   13 ar   
    26   12  137 1    
    27   13   14 ar   
    28   13   15 1    
    29   14  138 1    
    30   15   16 1    
    31   15  139 1    
    32   15  140 1    
    33   16   17 1    
    34   17   18 1    
    35   17  141 1    
    36   17  142 1    
    37   18   19 1    
    38   18   67 1    
    39   18  143 1    
    40   19   20 am   BACKBONE|DICT|INTERRES
    41   19  144 1    
    42   20   21 2    
    43   20   22 1    
    44   22   23 1    
    45   22   24 1    
    46   22  145 1    
    47   23  146 1    
    48   23  147 1    
    49   23  148 1    
    50   24   25 am   BACKBONE|DICT|INTERRES
    51   24  149 1    
    52   25   26 2    
    53   25   27 1    
    54   27   28 1    
    55   27   29 1    
    56   27  150 1    
    57   28  151 1    
    58   28  152 1    
    59   28  153 1    
    60   29   30 am   BACKBONE|DICT|INTERRES
    61   29  154 1    
    62   30   31 2    
    63   30   32 1    
    64   32   33 1    
    65   32   34 1    
    66   32  155 1    
    67   33  156 1    
    68   33  157 1    
    69   33  158 1    
    70   34   35 am   BACKBONE|DICT|INTERRES
    71   34  159 1    
    72   35   36 2    
    73   35   37 1    
    74   37   38 1    
    75   37   39 1    
    76   37  160 1    
    77   38  161 1    
    78   38  162 1    
    79   38  163 1    
    80   39   40 am   BACKBONE|DICT|INTERRES
    81   39  164 1    
    82   40   41 2    
    83   40   42 1    
    84   42   43 1    
    85   42   44 1    
    86   42  165 1    
    87   43  166 1    
    88   43  167 1    
    89   43  168 1    
    90   44   45 am   BACKBONE|DICT|INTERRES
    91   44  169 1    
    92   45   46 2    
    93   45   47 1    
    94   47   48 1    
    95   47   49 1    
    96   47  170 1    
    97   48  171 1    
    98   48  172 1    
    99   48  173 1    
   100   49   50 am   BACKBONE|DICT|INTERRES
   101   49  174 1    
   102   50   51 2    
   103   50   52 1    
   104   52   53 1    
   105   52   54 1    
   106   52  175 1    
   107   53  176 1    
   108   53  177 1    
   109   53  178 1    
   110   54   55 am   BACKBONE|DICT|INTERRES
   111   54  179 1    
   112   55   56 2    
   113   55   57 1    
   114   57   58 1    
   115   57   59 1    
   116   57  180 1    
   117   58  181 1    
   118   58  182 1    
   119   58  183 1    
   120   59   60 am   BACKBONE|DICT|INTERRES
   121   59  184 1    
   122   60   61 2    
   123   60   62 1    
   124   62   63 1    
   125   62   64 1    
   126   62  185 1    
   127   63  186 1    
   128   63  187 1    
   129   63  188 1    
   130   64   65 am   BACKBONE|DICT|INTERRES
   131   64  189 1    
   132   65   66 2    
   133   67   68 2    
   134   67   69 am   BACKBONE|DICT|INTERRES
   135   69   70 1    
   136   69  190 1    
   137   70   71 1    
   138   70   72 1    
   139   70  191 1    
   140   71  192 1    
   141   71  193 1    
   142   71  194 1    
   143   72   73 2    
   144   72   74 am   BACKBONE|DICT|INTERRES
   145   74   75 1    
   146   74  195 1    
   147   75   76 1    
   148   75   77 1    
   149   75  196 1    
   150   76  197 1    
   151   76  198 1    
   152   76  199 1    
   153   77   78 2    
   154   77   79 am   BACKBONE|DICT|INTERRES
   155   79   80 1    
   156   79  200 1    
   157   80   81 1    
   158   80   82 1    
   159   80  201 1    
   160   81  202 1    
   161   81  203 1    
   162   81  204 1    
   163   82   83 2    
   164   82   84 am   BACKBONE|DICT|INTERRES
   165   84   85 1    
   166   84  205 1    
   167   85   86 1    
   168   85   87 1    
   169   85  206 1    
   170   86  207 1    
   171   86  208 1    
   172   86  209 1    
   173   87   88 2    
   174   87   89 am   BACKBONE|DICT|INTERRES
   175   89   90 1    
   176   89  210 1    
   177   90   91 1    
   178   90   92 1    
   179   90  211 1    
   180   91  212 1    
   181   91  213 1    
   182   91  214 1    
   183   92   93 2    
   184   92   94 am   BACKBONE|DICT|INTERRES
   185   94   95 1    
   186   94  215 1    
   187   95   96 1    
   188   95   97 1    
   189   95  216 1    
   190   96  217 1    
   191   96  218 1    
   192   96  219 1    
   193   97   98 2    
   194   97   99 am   BACKBONE|DICT|INTERRES
   195   99  100 1    
   196   99  220 1    
   197  100  101 1    
   198  100  102 1    
   199  100  221 1    
   200  101  222 1    
   201  101  223 1    
   202  101  224 1    
   203  102  103 2    
   204  102  104 am   BACKBONE|DICT|INTERRES
   205  104  105 1    
   206  104  225 1    
   207  105  106 1    
   208  105  107 1    
   209  105  226 1    
   210  106  227 1    
   211  106  228 1    
   212  106  229 1    
   213  107  108 2    
   214  107  109 am   BACKBONE|DICT|INTERRES
   215  109  110 1    
   216  109  230 1    
   217  110  111 1    
   218  110  112 1    
   219  110  231 1    
   220  111  232 1    
   221  111  233 1    
   222  111  234 1    
   223  112  113 2    
   224  112  114 am   BACKBONE|DICT|INTERRES
   225  114  115 1    
   226  114  235 1    
   227  115  116 1    
   228  115  117 1    
   229  115  236 1    
   230  116  237 1    
   231  116  238 1    
   232  116  239 1    
   233  117  118 2    
   234  117  119 am   BACKBONE|DICT|INTERRES
   235  119  120 1    
   236  119  240 1    
   237  120  121 1    
   238  120  124 1    
   239  120  241 1    
   240  121  122 am   BACKBONE|DICT|INTERRES
   241  121  123 2    
   242  122  242 1    
   243  122  243 1    
   244  124  125 1    
   245  124  244 1    
   246  124  245 1    
   247  125  126 1    
   248  126  246 1    
   249  126  247 1    
@<TRIPOS>SUBSTRUCTURE
     1 UNK         1 GROUP             0       ****    0 ROOT    
