@<TRIPOS>MOLECULE
3R540
247   249    1
SMALL
USER_CHARGES


@<TRIPOS>ATOM
      1 CA          1.1948  -16.1875  -46.6162 C.3       0 UNK        -0.1800 
      2 C           0.4728  -14.8919  -46.2846 C.2       0 UNK         0.5000 
      3 O          -0.5013  -14.9126  -45.5360 O.2       0 UNK        -0.5000 
      4 N           0.9416  -13.7704  -46.8394 N.am      1 UNK        -0.5000 
      5 CA          0.3893  -12.4299  -46.6385 C.3       1 UNK         0.1400 
      6 C6         -0.5007  -11.9747  -47.8256 C.3       23 UNK        -0.0398 
      7 S7         -1.9965  -13.0049  -48.0266 S.3       23 UNK        -0.2404 
      8 C8         -1.5411  -14.0573  -49.4480 C.3       23 UNK        -0.0205 
      9 C9         -2.0231  -15.4990  -49.3121 C.ar      23 UNK        -0.0193 
     10 C10        -3.3469  -15.7896  -48.9620 C.ar      23 UNK        -0.1150 
     11 C11        -3.7913  -17.1133  -48.8817 C.ar      23 UNK        -0.0193 
     12 C12        -2.8983  -18.1532  -49.1492 C.ar      23 UNK        -0.1150 
     13 C13        -1.5808  -17.8785  -49.5239 C.ar      23 UNK        -0.0193 
     14 C14        -1.1479  -16.5521  -49.5976 C.ar      23 UNK        -0.1150 
     15 C15        -0.6499  -19.0147  -49.9147 C.3       23 UNK        -0.0205 
     16 S16         0.7137  -19.2896  -48.7415 S.3       23 UNK        -0.2404 
     17 C17        -0.1494  -19.6291  -47.1709 C.3       23 UNK        -0.0398 
     18 CA         -0.5485  -21.1181  -47.0031 C.3       11 UNK         0.1400 
     19 N          -0.3121  -21.5994  -45.6403 N.am      11 UNK        -0.5000 
     20 C          -0.4379  -22.8716  -45.2380 C.2       10 UNK         0.5000 
     21 O          -0.7481  -23.8019  -45.9823 O.2       10 UNK        -0.5000 
     22 CA         -0.2319  -23.1352  -43.7373 C.3       10 UNK         0.1400 
     23 CB          1.2627  -23.2304  -43.3946 C.3       10 UNK        -0.1800 
     24 N          -0.8622  -22.1034  -42.9137 N.am      10 UNK        -0.5000 
     25 C          -2.1871  -21.9408  -42.7930 C.2       9 UNK         0.5000 
     26 O          -3.0180  -22.6647  -43.3398 O.2       9 UNK        -0.5000 
     27 CA         -2.6625  -20.7389  -41.9586 C.3       9 UNK         0.1400 
     28 CB         -2.6135  -21.0633  -40.4582 C.3       9 UNK        -0.1800 
     29 N          -1.8884  -19.5250  -42.2204 N.am      9 UNK        -0.5000 
     30 C          -1.8537  -18.8889  -43.3996 C.2       8 UNK         0.5000 
     31 O          -2.4618  -19.2636  -44.4011 O.2       8 UNK        -0.5000 
     32 CA         -0.9553  -17.6444  -43.4834 C.3       8 UNK         0.1400 
     33 CB         -1.6916  -16.4373  -42.8834 C.3       8 UNK        -0.1800 
     34 N           0.3564  -17.7971  -42.8406 N.am      8 UNK        -0.5000 
     35 C           1.2396  -18.7777  -43.0926 C.2       7 UNK         0.5000 
     36 O           0.9995  -19.7235  -43.8444 O.2       7 UNK        -0.5000 
     37 CA          2.6186  -18.7085  -42.4070 C.3       7 UNK         0.1400 
     38 CB          3.7478  -18.9435  -43.4253 C.3       7 UNK        -0.1800 
     39 N           2.8495  -17.4225  -41.7492 N.am      7 UNK        -0.5000 
     40 C           2.8152  -17.2043  -40.4269 C.2       6 UNK         0.5000 
     41 O           2.5809  -18.0831  -39.5970 O.2       6 UNK        -0.5000 
     42 CA          3.0764  -15.7605  -39.9409 C.3       6 UNK         0.1400 
     43 CB          4.5317  -15.6082  -39.4730 C.3       6 UNK        -0.1800 
     44 N           2.7984  -14.7405  -40.9550 N.am      6 UNK        -0.5000 
     45 C           1.5876  -14.4864  -41.4687 C.2       5 UNK         0.5000 
     46 O           0.5576  -15.0131  -41.0500 O.2       5 UNK        -0.5000 
     47 CA          1.5118  -13.5357  -42.6819 C.3       5 UNK         0.1400 
     48 CB          0.9635  -12.1667  -42.2576 C.3       5 UNK        -0.1800 
     49 N           2.7717  -13.3576  -43.4201 N.am      5 UNK        -0.5000 
     50 C           3.4643  -14.3437  -44.0153 C.2       4 UNK         0.5000 
     51 O           3.1390  -15.5280  -43.9353 O.2       4 UNK        -0.5000 
     52 CA          4.7280  -13.9766  -44.8180 C.3       4 UNK         0.1400 
     53 CB          4.6891  -14.5888  -46.2282 C.3       4 UNK        -0.1800 
     54 N           4.9262  -12.5325  -44.9373 N.am      4 UNK        -0.5000 
     55 C           5.7156  -11.7978  -44.1416 C.2       3 UNK         0.5000 
     56 O           6.3694  -12.2673  -43.2097 O.2       3 UNK        -0.5000 
     57 CA          5.7811  -10.2807  -44.4183 C.3       3 UNK         0.1400 
     58 CB          7.0330   -9.9396  -45.2408 C.3       3 UNK        -0.1800 
     59 N           4.6018   -9.7533  -45.1097 N.am      3 UNK        -0.5000 
     60 C           3.3648   -9.7264  -44.5977 C.2       2 UNK         0.5000 
     61 O           3.0954  -10.1253  -43.4647 O.2       2 UNK        -0.5000 
     62 CA          2.2237   -9.2198  -45.5043 C.3       2 UNK         0.1400 
     63 CB          2.7029   -8.5170  -46.7950 C.3       2 UNK        -0.1800 
     64 N           1.2794  -10.2966  -45.8255 N.am      2 UNK        -0.5000 
     65 C           1.5655  -11.4601  -46.4286 C.2       1 UNK         0.5000 
     66 O           2.6962  -11.7739  -46.8149 O.2       1 UNK        -0.5000 
     67 C          -2.0032  -21.3642  -47.4526 C.2       11 UNK         0.5000 
     68 O          -2.2219  -21.8412  -48.5667 O.2       11 UNK        -0.5000 
     69 N          -2.9630  -21.0635  -46.5662 N.am      12 UNK        -0.5000 
     70 CA         -4.3923  -21.2932  -46.7654 C.3       12 UNK         0.1400 
     71 CB         -5.1850  -20.5599  -45.6735 C.3       12 UNK        -0.1800 
     72 C          -4.7599  -22.7872  -46.7887 C.2       12 UNK         0.5000 
     73 O          -5.5856  -23.1847  -47.6093 O.2       12 UNK        -0.5000 
     74 N          -4.1325  -23.5916  -45.9164 N.am      13 UNK        -0.5000 
     75 CA         -4.3173  -25.0446  -45.8476 C.3       13 UNK         0.1400 
     76 CB         -3.6441  -25.6006  -44.5839 C.3       13 UNK        -0.1800 
     77 C          -3.8010  -25.7698  -47.1031 C.2       13 UNK         0.5000 
     78 O          -4.4739  -26.6709  -47.6048 O.2       13 UNK        -0.5000 
     79 N          -2.6369  -25.3393  -47.6091 N.am      14 UNK        -0.5000 
     80 CA         -2.0755  -25.7869  -48.8859 C.3       14 UNK         0.1400 
     81 CB         -0.5916  -25.3910  -48.9414 C.3       14 UNK        -0.1800 
     82 C          -2.8178  -25.2011  -50.1030 C.2       14 UNK         0.5000 
     83 O          -2.6976  -25.7418  -51.2034 O.2       14 UNK        -0.5000 
     84 N          -3.5232  -24.0808  -49.8890 N.am      15 UNK        -0.5000 
     85 CA         -4.2099  -23.2371  -50.8687 C.3       15 UNK         0.1400 
     86 CB         -5.4770  -23.9375  -51.3807 C.3       15 UNK        -0.1800 
     87 C          -3.2469  -22.7881  -51.9828 C.2       15 UNK         0.5000 
     88 O          -3.4821  -23.0469  -53.1666 O.2       15 UNK        -0.5000 
     89 N          -2.1209  -22.2051  -51.5418 N.am      16 UNK        -0.5000 
     90 CA         -0.9835  -21.7312  -52.3421 C.3       16 UNK         0.1400 
     91 CB         -1.4098  -20.5268  -53.2068 C.3       16 UNK        -0.1800 
     92 C          -0.2947  -22.8377  -53.1729 C.2       16 UNK         0.5000 
     93 O           0.3728  -22.5320  -54.1614 O.2       16 UNK        -0.5000 
     94 N          -0.4935  -24.1021  -52.7670 N.am      17 UNK        -0.5000 
     95 CA         -0.1033  -25.3451  -53.4432 C.3       17 UNK         0.1400 
     96 CB          1.4284  -25.4467  -53.5953 C.3       17 UNK        -0.1800 
     97 C          -0.8516  -25.5925  -54.7734 C.2       17 UNK         0.5000 
     98 O          -0.4783  -26.5015  -55.5165 O.2       17 UNK        -0.5000 
     99 N          -1.9039  -24.8080  -55.0444 N.am      18 UNK        -0.5000 
    100 CA        -2.7551  -24.9138  -56.2297 C.3       18 UNK         0.1400 
    101 CB        -3.0862  -23.4944  -56.7124 C.3       18 UNK        -0.1800 
    102 C         -4.0551  -25.6857  -55.9389 C.2       18 UNK         0.5000 
    103 O         -4.8011  -25.9735  -56.8745 O.2       18 UNK        -0.5000 
    104 N         -4.3179  -25.9732  -54.6544 N.am      19 UNK        -0.5000 
    105 CA        -5.4894  -26.6559  -54.0905 C.3       19 UNK         0.1400 
    106 CB        -5.6954  -28.0478  -54.7235 C.3       19 UNK        -0.1800 
    107 C         -6.7902  -25.8214  -54.0993 C.2       19 UNK         0.5000 
    108 O         -7.7936  -26.2917  -53.5613 O.2       19 UNK        -0.5000 
    109 N         -6.7620  -24.6040  -54.6610 N.am      20 UNK        -0.5000 
    110 CA        -7.9029  -23.6951  -54.7723 C.3       20 UNK         0.1400 
    111 CB        -8.9678  -24.2710  -55.7350 C.3       20 UNK        -0.1800 
    112 C         -7.4322  -22.2905  -55.1960 C.2       20 UNK         0.5000 
    113 O         -7.9104  -21.7623  -56.2022 O.2       20 UNK        -0.5000 
    114 N         -6.4975  -21.7003  -54.4404 N.am      21 UNK        -0.5000 
    115 CA        -6.0174  -20.3345  -54.6534 C.3       21 UNK         0.1400 
    116 CB        -4.8863  -20.3303  -55.6981 C.3       21 UNK        -0.1800 
    117 C         -5.5434  -19.7139  -53.3305 C.2       21 UNK         0.5000 
    118 O         -5.3415  -20.4298  -52.3490 O.2       21 UNK        -0.5000 
    119 N         -5.3541  -18.3918  -53.3577 N.am      22 UNK        -0.5000 
    120 CA        -4.7901  -17.5546  -52.2864 C.3       22 UNK         0.1400 
    121 C         -3.9157  -16.4109  -52.8879 C.2       22 UNK         0.5000 
    122 N         -3.2721  -16.6168  -54.0321 N.am      22 UNK        -0.7600 
    123 O         -3.8159  -15.3194  -52.3362 O.2       22 UNK        -0.5000 
    124 C124       -5.8788  -17.0630  -51.2821 C.3       23 UNK        -0.0398 
    125 S125       -6.1368  -18.2357  -49.9052 S.3       23 UNK        -0.2404 
    126 C126       -5.2434  -17.4193  -48.5370 C.3       23 UNK        -0.0205 
    127 H127        0.5242  -16.8343  -47.1770 H         1 UNK         0.0600 
    128 H128        1.4865  -16.7071  -45.7037 H         1 UNK         0.0600 
    129 H129        2.0883  -16.0185  -47.2168 H         1 UNK         0.0600 
    130 H130        1.7871  -13.7863  -47.3934 H         1 UNK         0.3000 
    131 H131       -0.2044  -12.4095  -45.7218 H         1 UNK         0.0600 
    132 H132        0.0694  -11.9570  -48.7560 H         1 UNK         0.0800 
    133 H133       -0.8431  -10.9503  -47.6696 H         1 UNK         0.0800 
    134 H134       -1.9634  -13.6287  -50.3578 H         1 UNK         0.0800 
    135 H135       -0.4579  -14.0462  -49.5752 H         1 UNK         0.0800 
    136 H136       -4.0362  -14.9798  -48.7692 H         1 UNK         0.1150 
    137 H137       -3.2473  -19.1753  -49.1074 H         1 UNK         0.1150 
    138 H138       -0.1303  -16.3436  -49.8968 H         1 UNK         0.1150 
    139 H139       -1.2128  -19.9386  -50.0292 H         1 UNK         0.0800 
    140 H140       -0.2238  -18.7980  -50.8951 H         1 UNK         0.0800 
    141 H141       -0.9925  -18.9490  -47.0350 H         1 UNK         0.0800 
    142 H142        0.5608  -19.3454  -46.3943 H         1 UNK         0.0800 
    143 H143        0.0909  -21.7275  -47.6456 H         1 UNK         0.0600 
    144 H144       -0.0171  -20.9067  -44.9570 H         1 UNK         0.3000 
    145 H145       -0.6959  -24.0943  -43.4983 H         1 UNK         0.0600 
    146 H146        1.7453  -24.0157  -43.9779 H         1 UNK         0.0600 
    147 H147        1.7887  -22.2983  -43.6030 H         1 UNK         0.0600 
    148 H148        1.4108  -23.4707  -42.3418 H         1 UNK         0.0600 
    149 H149       -0.2493  -21.4234  -42.4884 H         1 UNK         0.3000 
    150 H150       -3.7012  -20.5384  -42.2303 H         1 UNK         0.0600 
    151 H151       -3.1956  -21.9582  -40.2338 H         1 UNK         0.0600 
    152 H152       -3.0303  -20.2491  -39.8651 H         1 UNK         0.0600 
    153 H153       -1.5933  -21.2406  -40.1156 H         1 UNK         0.0600 
    154 H154       -1.3461  -19.1517  -41.4553 H         1 UNK         0.3000 
    155 H155       -0.7762  -17.4467  -44.5417 H         1 UNK         0.0600 
    156 H156       -1.1380  -15.5143  -43.0468 H         1 UNK         0.0600 
    157 H157       -1.8447  -16.5488  -41.8094 H         1 UNK         0.0600 
    158 H158       -2.6708  -16.3064  -43.3460 H         1 UNK         0.0600 
    159 H159        0.6269  -17.0630  -42.1999 H         1 UNK         0.3000 
    160 H160        2.6505  -19.5198  -41.6775 H         1 UNK         0.0600 
    161 H161        3.7288  -18.2020  -44.2250 H         1 UNK         0.0600 
    162 H162        3.6633  -19.9275  -43.8883 H         1 UNK         0.0600 
    163 H163        4.7261  -18.8955  -42.9470 H         1 UNK         0.0600 
    164 H164        3.0210  -16.6413  -42.3776 H         1 UNK         0.3000 
    165 H165        2.4197  -15.5772  -39.0880 H         1 UNK         0.0600 
    166 H166        4.7113  -14.6167  -39.0570 H         1 UNK         0.0600 
    167 H167        4.7700  -16.3339  -38.6941 H         1 UNK         0.0600 
    168 H168        5.2354  -15.7625  -40.2920 H         1 UNK         0.0600 
    169 H169        3.5948  -14.2658  -41.3538 H         1 UNK         0.3000 
    170 H170        0.7962  -13.9783  -43.3754 H         1 UNK         0.0600 
    171 H171        0.0219  -12.2704  -41.7167 H         1 UNK         0.0600 
    172 H172        1.6611  -11.6400  -41.6055 H         1 UNK         0.0600 
    173 H173        0.7671  -11.5352  -43.1235 H         1 UNK         0.0600 
    174 H174        3.1098  -12.4072  -43.5054 H         1 UNK         0.3000 
    175 H175        5.5726  -14.4248  -44.2909 H         1 UNK         0.0600 
    176 H176        5.6107  -14.3795  -46.7714 H         1 UNK         0.0600 
    177 H177        4.5798  -15.6734  -46.1863 H         1 UNK         0.0600 
    178 H178        3.8605  -14.1975  -46.8167 H         1 UNK         0.0600 
    179 H179        4.3853  -12.0688  -45.6607 H         1 UNK         0.3000 
    180 H180        5.8580   -9.7761  -43.4529 H         1 UNK         0.0600 
    181 H181        7.0029  -10.4011  -46.2287 H         1 UNK         0.0600 
    182 H182        7.9369  -10.2914  -44.7416 H         1 UNK         0.0600 
    183 H183        7.1364   -8.8627  -45.3750 H         1 UNK         0.0600 
    184 H184        4.7365   -9.4371  -46.0591 H         1 UNK         0.3000 
    185 H185        1.6726   -8.4853  -44.9152 H         1 UNK         0.0600 
    186 H186        3.3627   -7.6793  -46.5653 H         1 UNK         0.0600 
    187 H187        3.2393   -9.1913  -47.4634 H         1 UNK         0.0600 
    188 H188        1.8571   -8.1122  -47.3508 H         1 UNK         0.0600 
    189 H189        0.3312  -10.1358  -45.5153 H         1 UNK         0.3000 
    190 H190       -2.7000  -20.6143  -45.6920 H         1 UNK         0.3000 
    191 H191       -4.6695  -20.8657  -47.7316 H         1 UNK         0.0600 
    192 H192       -4.9755  -19.4904  -45.6839 H         1 UNK         0.0600 
    193 H193       -6.2587  -20.6835  -45.8196 H         1 UNK         0.0600 
    194 H194       -4.9411  -20.9358  -44.6790 H         1 UNK         0.0600 
    195 H195       -3.5129  -23.1816  -45.2250 H         1 UNK         0.3000 
    196 H196       -5.3889  -25.2406  -45.7709 H         1 UNK         0.0600 
    197 H197       -3.7694  -26.6820  -44.5174 H         1 UNK         0.0600 
    198 H198       -4.0801  -25.1687  -43.6832 H         1 UNK         0.0600 
    199 H199       -2.5741  -25.3925  -44.5721 H         1 UNK         0.0600 
    200 H200       -2.1048  -24.6409  -47.0961 H         1 UNK         0.3000 
    201 H201       -2.1470  -26.8750  -48.9414 H         1 UNK         0.0600 
    202 H202       -0.0354  -25.8323  -48.1141 H         1 UNK         0.0600 
    203 H203       -0.4629  -24.3088  -48.8896 H         1 UNK         0.0600 
    204 H204       -0.1264  -25.7349  -49.8663 H         1 UNK         0.0600 
    205 H205       -3.5001  -23.7014  -48.9522 H         1 UNK         0.3000 
    206 H206       -4.5212  -22.3319  -50.3446 H         1 UNK         0.0600 
    207 H207       -6.1567  -24.1646  -50.5593 H         1 UNK         0.0600 
    208 H208       -6.0178  -23.3082  -52.0859 H         1 UNK         0.0600 
    209 H209       -5.2320  -24.8717  -51.8774 H         1 UNK         0.0600 
    210 H210       -2.0355  -22.0853  -50.5357 H         1 UNK         0.3000 
    211 H211       -0.2311  -21.3870  -51.6323 H         1 UNK         0.0600 
    212 H212       -2.0627  -20.8340  -54.0229 H         1 UNK         0.0600 
    213 H213       -0.5430  -20.0351  -53.6495 H         1 UNK         0.0600 
    214 H214       -1.9423  -19.7801  -52.6175 H         1 UNK         0.0600 
    215 H215       -1.1012  -24.2356  -51.9700 H         1 UNK         0.3000 
    216 H216       -0.4153  -26.1510  -52.7775 H         1 UNK         0.0600 
    217 H217        1.7217  -26.4422  -53.9302 H         1 UNK         0.0600 
    218 H218        1.9322  -25.2644  -52.6461 H         1 UNK         0.0600 
    219 H219        1.8143  -24.7340  -54.3243 H         1 UNK         0.0600 
    220 H220       -2.1696  -24.0958  -54.3718 H         1 UNK         0.3000 
    221 H221       -2.2275  -25.4352  -57.0309 H         1 UNK         0.0600 
    222 H222       -3.6866  -22.9632  -55.9755 H         1 UNK         0.0600 
    223 H223       -2.1815  -22.9136  -56.8935 H         1 UNK         0.0600 
    224 H224       -3.6531  -23.5167  -57.6439 H         1 UNK         0.0600 
    225 H225       -3.6452  -25.6533  -53.9705 H         1 UNK         0.3000 
    226 H226       -5.2472  -26.8261  -53.0410 H         1 UNK         0.0600 
    227 H227       -4.7727  -28.6278  -54.7131 H         1 UNK         0.0600 
    228 H228       -6.4421  -28.6189  -54.1706 H         1 UNK         0.0600 
    229 H229       -6.0416  -27.9818  -55.7550 H         1 UNK         0.0600 
    230 H230       -5.8954  -24.2797  -55.0665 H         1 UNK         0.3000 
    231 H231       -8.3552  -23.5880  -53.7844 H         1 UNK         0.0600 
    232 H232       -8.5523  -24.4502  -56.7273 H         1 UNK         0.0600 
    233 H233       -9.8085  -23.5851  -55.8476 H         1 UNK         0.0600 
    234 H234       -9.3797  -25.2118  -55.3717 H         1 UNK         0.0600 
    235 H235       -6.1371  -22.1482  -53.6076 H         1 UNK         0.3000 
    236 H236       -6.8435  -19.7209  -55.0197 H         1 UNK         0.0600 
    237 H237       -5.1860  -20.8324  -56.6180 H         1 UNK         0.0600 
    238 H238       -4.6010  -19.3129  -55.9667 H         1 UNK         0.0600 
    239 H239       -3.9957  -20.8274  -55.3170 H         1 UNK         0.0600 
    240 H240       -5.5544  -17.8911  -54.2123 H         1 UNK         0.3000 
    241 H241       -4.0655  -18.1582  -51.7377 H         1 UNK         0.0600 
    242 H242       -2.7132  -15.8713  -54.4171 H         1 UNK         0.3800 
    243 H243       -3.2932  -17.5114  -54.4935 H         1 UNK         0.3800 
    244 H244       -5.6345  -16.0949  -50.8441 H         1 UNK         0.0800 
    245 H245       -6.8290  -16.9100  -51.7952 H         1 UNK         0.0800 
    246 H246       -5.2714  -18.0673  -47.6608 H         1 UNK         0.0800 
    247 H247       -5.7761  -16.5080  -48.2610 H         1 UNK         0.0800 
@<TRIPOS>BOND
     1    1    2 1    
     2    1  127 1    
     3    1  128 1    
     4    1  129 1    
     5    2    3 2    
     6    2    4 am   BACKBONE|DICT|INTERRES
     7    4    5 1    
     8    4  130 1    
     9    5    6 1    
    10    5   65 1    
    11    5  131 1    
    12    6    7 1    
    13    6  132 1    
    14    6  133 1    
    15    7    8 1    
    16    8    9 1    
    17    8  134 1    
    18    8  135 1    
    19    9   10 ar   
    20    9   14 ar   
    21   10   11 ar   
    22   10  136 1    
    23   11   12 ar   
    24   11  126 1    
    25   12   13 ar   
    26   12  137 1    
    27   13   14 ar   
    28   13   15 1    
    29   14  138 1    
    30   15   16 1    
    31   15  139 1    
    32   15  140 1    
    33   16   17 1    
    34   17   18 1    
    35   17  141 1    
    36   17  142 1    
    37   18   19 1    
    38   18   67 1    
    39   18  143 1    
    40   19   20 am   BACKBONE|DICT|INTERRES
    41   19  144 1    
    42   20   21 2    
    43   20   22 1    
    44   22   23 1    
    45   22   24 1    
    46   22  145 1    
    47   23  146 1    
    48   23  147 1    
    49   23  148 1    
    50   24   25 am   BACKBONE|DICT|INTERRES
    51   24  149 1    
    52   25   26 2    
    53   25   27 1    
    54   27   28 1    
    55   27   29 1    
    56   27  150 1    
    57   28  151 1    
    58   28  152 1    
    59   28  153 1    
    60   29   30 am   BACKBONE|DICT|INTERRES
    61   29  154 1    
    62   30   31 2    
    63   30   32 1    
    64   32   33 1    
    65   32   34 1    
    66   32  155 1    
    67   33  156 1    
    68   33  157 1    
    69   33  158 1    
    70   34   35 am   BACKBONE|DICT|INTERRES
    71   34  159 1    
    72   35   36 2    
    73   35   37 1    
    74   37   38 1    
    75   37   39 1    
    76   37  160 1    
    77   38  161 1    
    78   38  162 1    
    79   38  163 1    
    80   39   40 am   BACKBONE|DICT|INTERRES
    81   39  164 1    
    82   40   41 2    
    83   40   42 1    
    84   42   43 1    
    85   42   44 1    
    86   42  165 1    
    87   43  166 1    
    88   43  167 1    
    89   43  168 1    
    90   44   45 am   BACKBONE|DICT|INTERRES
    91   44  169 1    
    92   45   46 2    
    93   45   47 1    
    94   47   48 1    
    95   47   49 1    
    96   47  170 1    
    97   48  171 1    
    98   48  172 1    
    99   48  173 1    
   100   49   50 am   BACKBONE|DICT|INTERRES
   101   49  174 1    
   102   50   51 2    
   103   50   52 1    
   104   52   53 1    
   105   52   54 1    
   106   52  175 1    
   107   53  176 1    
   108   53  177 1    
   109   53  178 1    
   110   54   55 am   BACKBONE|DICT|INTERRES
   111   54  179 1    
   112   55   56 2    
   113   55   57 1    
   114   57   58 1    
   115   57   59 1    
   116   57  180 1    
   117   58  181 1    
   118   58  182 1    
   119   58  183 1    
   120   59   60 am   BACKBONE|DICT|INTERRES
   121   59  184 1    
   122   60   61 2    
   123   60   62 1    
   124   62   63 1    
   125   62   64 1    
   126   62  185 1    
   127   63  186 1    
   128   63  187 1    
   129   63  188 1    
   130   64   65 am   BACKBONE|DICT|INTERRES
   131   64  189 1    
   132   65   66 2    
   133   67   68 2    
   134   67   69 am   BACKBONE|DICT|INTERRES
   135   69   70 1    
   136   69  190 1    
   137   70   71 1    
   138   70   72 1    
   139   70  191 1    
   140   71  192 1    
   141   71  193 1    
   142   71  194 1    
   143   72   73 2    
   144   72   74 am   BACKBONE|DICT|INTERRES
   145   74   75 1    
   146   74  195 1    
   147   75   76 1    
   148   75   77 1    
   149   75  196 1    
   150   76  197 1    
   151   76  198 1    
   152   76  199 1    
   153   77   78 2    
   154   77   79 am   BACKBONE|DICT|INTERRES
   155   79   80 1    
   156   79  200 1    
   157   80   81 1    
   158   80   82 1    
   159   80  201 1    
   160   81  202 1    
   161   81  203 1    
   162   81  204 1    
   163   82   83 2    
   164   82   84 am   BACKBONE|DICT|INTERRES
   165   84   85 1    
   166   84  205 1    
   167   85   86 1    
   168   85   87 1    
   169   85  206 1    
   170   86  207 1    
   171   86  208 1    
   172   86  209 1    
   173   87   88 2    
   174   87   89 am   BACKBONE|DICT|INTERRES
   175   89   90 1    
   176   89  210 1    
   177   90   91 1    
   178   90   92 1    
   179   90  211 1    
   180   91  212 1    
   181   91  213 1    
   182   91  214 1    
   183   92   93 2    
   184   92   94 am   BACKBONE|DICT|INTERRES
   185   94   95 1    
   186   94  215 1    
   187   95   96 1    
   188   95   97 1    
   189   95  216 1    
   190   96  217 1    
   191   96  218 1    
   192   96  219 1    
   193   97   98 2    
   194   97   99 am   BACKBONE|DICT|INTERRES
   195   99  100 1    
   196   99  220 1    
   197  100  101 1    
   198  100  102 1    
   199  100  221 1    
   200  101  222 1    
   201  101  223 1    
   202  101  224 1    
   203  102  103 2    
   204  102  104 am   BACKBONE|DICT|INTERRES
   205  104  105 1    
   206  104  225 1    
   207  105  106 1    
   208  105  107 1    
   209  105  226 1    
   210  106  227 1    
   211  106  228 1    
   212  106  229 1    
   213  107  108 2    
   214  107  109 am   BACKBONE|DICT|INTERRES
   215  109  110 1    
   216  109  230 1    
   217  110  111 1    
   218  110  112 1    
   219  110  231 1    
   220  111  232 1    
   221  111  233 1    
   222  111  234 1    
   223  112  113 2    
   224  112  114 am   BACKBONE|DICT|INTERRES
   225  114  115 1    
   226  114  235 1    
   227  115  116 1    
   228  115  117 1    
   229  115  236 1    
   230  116  237 1    
   231  116  238 1    
   232  116  239 1    
   233  117  118 2    
   234  117  119 am   BACKBONE|DICT|INTERRES
   235  119  120 1    
   236  119  240 1    
   237  120  121 1    
   238  120  124 1    
   239  120  241 1    
   240  121  122 am   BACKBONE|DICT|INTERRES
   241  121  123 2    
   242  122  242 1    
   243  122  243 1    
   244  124  125 1    
   245  124  244 1    
   246  124  245 1    
   247  125  126 1    
   248  126  246 1    
   249  126  247 1    
@<TRIPOS>SUBSTRUCTURE
     1 UNK         1 GROUP             0       ****    0 ROOT    
