@<TRIPOS>MOLECULE
3R540
247   249    1
SMALL
USER_CHARGES


@<TRIPOS>ATOM
      1 CA          7.4869  -14.0837  -47.7344 C.3       0 UNK        -0.1800 
      2 C           5.9768  -14.2522  -47.8086 C.2       0 UNK         0.5000 
      3 O           5.3403  -14.5435  -46.7961 O.2       0 UNK        -0.5000 
      4 N           5.3899  -14.0483  -48.9964 N.am      1 UNK        -0.5000 
      5 CA          3.9518  -14.2050  -49.2628 C.3       1 UNK         0.1400 
      6 C6          3.6491  -14.2342  -50.7815 C.3       23 UNK        -0.0398 
      7 S7          2.2006  -15.2685  -51.1826 S.3       23 UNK        -0.2404 
      8 C8          2.9920  -16.8959  -51.3455 C.3       23 UNK        -0.0205 
      9 C9          1.9968  -17.9648  -51.7656 C.ar      23 UNK        -0.0193 
     10 C10         1.6761  -18.1233  -53.1170 C.ar      23 UNK        -0.1150 
     11 C11         0.8122  -19.1416  -53.5272 C.ar      23 UNK        -0.0193 
     12 C12         0.2585  -19.9961  -52.5696 C.ar      23 UNK        -0.1150 
     13 C13         0.5559  -19.8384  -51.2130 C.ar      23 UNK        -0.0193 
     14 C14         1.4295  -18.8211  -50.8160 C.ar      23 UNK        -0.1150 
     15 C15        -0.0408  -20.7886  -50.1862 C.3       23 UNK        -0.0205 
     16 S16        -1.4177  -20.0159  -49.2782 S.3       23 UNK        -0.2404 
     17 C17        -2.2531  -21.4328  -48.4844 C.3       23 UNK        -0.0398 
     18 CA         -1.3169  -22.5010  -47.8737 C.3       11 UNK         0.1400 
     19 N          -0.3520  -21.9421  -46.9273 N.am      11 UNK        -0.5000 
     20 C           0.7417  -22.5836  -46.4953 C.2       10 UNK         0.5000 
     21 O           1.0442  -23.7269  -46.8369 O.2       10 UNK        -0.5000 
     22 CA          1.6062  -21.8314  -45.4697 C.3       10 UNK         0.1400 
     23 CB          2.4152  -20.7183  -46.1547 C.3       10 UNK        -0.1800 
     24 N           0.7914  -21.2543  -44.4003 N.am      10 UNK        -0.5000 
     25 C           0.0850  -21.9713  -43.5141 C.2       9 UNK         0.5000 
     26 O           0.1175  -23.2004  -43.4481 O.2       9 UNK        -0.5000 
     27 CA         -0.8491  -21.1823  -42.5767 C.3       9 UNK         0.1400 
     28 CB         -0.1149  -20.7862  -41.2875 C.3       9 UNK        -0.1800 
     29 N          -1.4089  -19.9795  -43.1981 N.am      9 UNK        -0.5000 
     30 C          -2.2321  -19.9542  -44.2535 C.2       8 UNK         0.5000 
     31 O          -2.6037  -20.9744  -44.8333 O.2       8 UNK        -0.5000 
     32 CA         -2.6879  -18.5705  -44.7704 C.3       8 UNK         0.1400 
     33 CB         -3.9521  -18.6552  -45.6452 C.3       8 UNK        -0.1800 
     34 N          -2.9144  -17.5610  -43.7291 N.am      8 UNK        -0.5000 
     35 C          -1.9686  -16.9233  -43.0301 C.2       7 UNK         0.5000 
     36 O          -0.7742  -17.2208  -43.0752 O.2       7 UNK        -0.5000 
     37 CA         -2.4319  -15.7682  -42.1356 C.3       7 UNK         0.1400 
     38 CB         -1.9371  -15.9343  -40.6880 C.3       7 UNK        -0.1800 
     39 N          -1.9230  -14.5224  -42.6979 N.am      7 UNK        -0.5000 
     40 C          -2.5202  -13.3295  -42.5937 C.2       6 UNK         0.5000 
     41 O          -3.5737  -13.1442  -41.9826 O.2       6 UNK        -0.5000 
     42 CA         -1.8387  -12.1424  -43.2996 C.3       6 UNK         0.1400 
     43 CB         -0.6369  -11.6323  -42.4889 C.3       6 UNK        -0.1800 
     44 N          -1.4129  -12.4727  -44.6596 N.am      6 UNK        -0.5000 
     45 C          -2.2436  -12.5927  -45.7057 C.2       5 UNK         0.5000 
     46 O          -3.4558  -12.3846  -45.6422 O.2       5 UNK        -0.5000 
     47 CA         -1.6226  -13.0239  -47.0496 C.3       5 UNK         0.1400 
     48 CB         -1.1250  -11.8043  -47.8390 C.3       5 UNK        -0.1800 
     49 N          -0.5231  -13.9726  -46.8849 N.am      5 UNK        -0.5000 
     50 C          -0.6676  -15.2256  -46.4358 C.2       4 UNK         0.5000 
     51 O          -1.7595  -15.7382  -46.1999 O.2       4 UNK        -0.5000 
     52 CA          0.6222  -16.0276  -46.1796 C.3       4 UNK         0.1400 
     53 CB          1.0735  -16.7607  -47.4536 C.3       4 UNK        -0.1800 
     54 N           1.7147  -15.1948  -45.6657 N.am      4 UNK        -0.5000 
     55 C           1.7003  -14.5718  -44.4767 C.2       3 UNK         0.5000 
     56 O           0.7701  -14.6437  -43.6767 O.2       3 UNK        -0.5000 
     57 CA          2.8983  -13.6655  -44.1491 C.3       3 UNK         0.1400 
     58 CB          4.0963  -14.4923  -43.6592 C.3       3 UNK        -0.1800 
     59 N           3.2854  -12.8512  -45.3002 N.am      3 UNK        -0.5000 
     60 C           2.5602  -11.8186  -45.7599 C.2       2 UNK         0.5000 
     61 O           1.5350  -11.4121  -45.2133 O.2       2 UNK        -0.5000 
     62 CA          3.0255  -11.1582  -47.0747 C.3       2 UNK         0.1400 
     63 CB          3.9946  -10.0029  -46.7844 C.3       2 UNK        -0.1800 
     64 N           3.6626  -12.1014  -47.9958 N.am      2 UNK        -0.5000 
     65 C           3.0646  -13.1865  -48.5090 C.2       1 UNK         0.5000 
     66 O           1.8704  -13.4293  -48.3448 O.2       1 UNK        -0.5000 
     67 C          -2.1376  -23.6437  -47.2531 C.2       11 UNK         0.5000 
     68 O          -2.5011  -24.5683  -47.9768 O.2       11 UNK        -0.5000 
     69 N          -2.4083  -23.5855  -45.9416 N.am      12 UNK        -0.5000 
     70 CA         -3.0680  -24.6470  -45.1760 C.3       12 UNK         0.1400 
     71 CB         -3.3093  -24.1817  -43.7332 C.3       12 UNK        -0.1800 
     72 C          -2.2901  -25.9741  -45.2080 C.2       12 UNK         0.5000 
     73 O          -2.9064  -27.0347  -45.3106 O.2       12 UNK        -0.5000 
     74 N          -0.9549  -25.8847  -45.1665 N.am      13 UNK        -0.5000 
     75 CA         -0.0546  -27.0208  -45.3317 C.3       13 UNK         0.1400 
     76 CB          1.3100  -26.6809  -44.7116 C.3       13 UNK        -0.1800 
     77 C           0.0975  -27.4255  -46.8098 C.2       13 UNK         0.5000 
     78 O          -0.0016  -28.6114  -47.1266 O.2       13 UNK        -0.5000 
     79 N           0.3616  -26.4420  -47.6812 N.am      14 UNK        -0.5000 
     80 CA          0.7498  -26.6687  -49.0743 C.3       14 UNK         0.1400 
     81 CB          1.4616  -25.4149  -49.6064 C.3       14 UNK        -0.1800 
     82 C          -0.4036  -27.0561  -50.0177 C.2       14 UNK         0.5000 
     83 O          -0.1724  -27.8246  -50.9525 O.2       14 UNK        -0.5000 
     84 N          -1.5989  -26.4934  -49.8018 N.am      15 UNK        -0.5000 
     85 CA         -2.7065  -26.5271  -50.7614 C.3       15 UNK         0.1400 
     86 CB         -2.5842  -25.3093  -51.6999 C.3       15 UNK        -0.1800 
     87 C          -4.0851  -26.5855  -50.0787 C.2       15 UNK         0.5000 
     88 O          -5.0787  -26.1937  -50.6926 O.2       15 UNK        -0.5000 
     89 N          -4.1337  -27.0315  -48.8135 N.am      16 UNK        -0.5000 
     90 CA         -5.3347  -27.1485  -47.9700 C.3       16 UNK         0.1400 
     91 CB         -6.2356  -28.2918  -48.4816 C.3       16 UNK        -0.1800 
     92 C          -6.1092  -25.8197  -47.7927 C.2       16 UNK         0.5000 
     93 O          -7.3278  -25.8330  -47.6156 O.2       16 UNK        -0.5000 
     94 N          -5.3774  -24.6978  -47.8683 N.am      17 UNK        -0.5000 
     95 CA         -5.8261  -23.3021  -47.8034 C.3       17 UNK         0.1400 
     96 CB         -6.5299  -22.9929  -46.4660 C.3       17 UNK        -0.1800 
     97 C          -6.6465  -22.8357  -49.0244 C.2       17 UNK         0.5000 
     98 O          -7.1527  -21.7132  -49.0091 O.2       17 UNK        -0.5000 
     99 N          -6.7367  -23.6619  -50.0774 N.am      18 UNK        -0.5000 
    100 CA        -7.4951  -23.3633  -51.2947 C.3       18 UNK         0.1400 
    101 CB        -7.7266  -24.6645  -52.0775 C.3       18 UNK        -0.1800 
    102 C         -6.8172  -22.3097  -52.1908 C.2       18 UNK         0.5000 
    103 O         -7.5073  -21.6355  -52.9562 O.2       18 UNK        -0.5000 
    104 N         -5.4854  -22.1892  -52.0869 N.am      19 UNK        -0.5000 
    105 CA        -4.6774  -21.2505  -52.8673 C.3       19 UNK         0.1400 
    106 CB        -3.1982  -21.6456  -52.7662 C.3       19 UNK        -0.1800 
    107 C         -4.8692  -19.7799  -52.4524 C.2       19 UNK         0.5000 
    108 O         -4.7443  -18.9005  -53.3038 O.2       19 UNK        -0.5000 
    109 N         -5.1591  -19.5416  -51.1620 N.am      20 UNK        -0.5000 
    110 CA        -5.4538  -18.2393  -50.5439 C.3       20 UNK         0.1400 
    111 CB        -6.8732  -17.7861  -50.9414 C.3       20 UNK        -0.1800 
    112 C         -4.3823  -17.1574  -50.8194 C.2       20 UNK         0.5000 
    113 O         -4.7171  -16.0147  -51.1380 O.2       20 UNK        -0.5000 
    114 N         -3.1069  -17.5642  -50.7365 N.am      21 UNK        -0.5000 
    115 CA        -1.8941  -16.7862  -51.0285 C.3       21 UNK         0.1400 
    116 CB        -1.7531  -15.6008  -50.0521 C.3       21 UNK        -0.1800 
    117 C         -1.7519  -16.3598  -52.5070 C.2       21 UNK         0.5000 
    118 O         -0.9243  -15.5009  -52.8120 O.2       21 UNK        -0.5000 
    119 N         -2.5501  -16.9615  -53.4010 N.am      22 UNK        -0.5000 
    120 CA        -2.5763  -16.7208  -54.8526 C.3       22 UNK         0.1400 
    121 C         -2.9578  -15.2654  -55.2679 C.2       22 UNK         0.5000 
    122 N         -3.6514  -14.5056  -54.4276 N.am      22 UNK        -0.7600 
    123 O         -2.6582  -14.8248  -56.3747 O.2       22 UNK        -0.5000 
    124 C124       -1.3075  -17.2659  -55.5660 C.3       23 UNK        -0.0398 
    125 S125       -1.2098  -19.0868  -55.4531 S.3       23 UNK        -0.2404 
    126 C126        0.5327  -19.3650  -55.0072 C.3       23 UNK        -0.0205 
    127 H127        7.9130  -13.8142  -48.7010 H         1 UNK         0.0600 
    128 H128        7.9510  -15.0131  -47.4047 H         1 UNK         0.0600 
    129 H129        7.7418  -13.3017  -47.0193 H         1 UNK         0.0600 
    130 H130        5.9615  -13.7918  -49.7892 H         1 UNK         0.3000 
    131 H131        3.6900  -15.1828  -48.8528 H         1 UNK         0.0600 
    132 H132        3.4891  -13.2285  -51.1746 H         1 UNK         0.0800 
    133 H133        4.5016  -14.6296  -51.3354 H         1 UNK         0.0800 
    134 H134        3.7950  -16.8394  -52.0819 H         1 UNK         0.0800 
    135 H135        3.4604  -17.1681  -50.3985 H         1 UNK         0.0800 
    136 H136        2.1199  -17.4650  -53.8506 H         1 UNK         0.1150 
    137 H137       -0.3905  -20.7980  -52.8878 H         1 UNK         0.1150 
    138 H138        1.6734  -18.7038  -49.7696 H         1 UNK         0.1150 
    139 H139       -0.3939  -21.6947  -50.6809 H         1 UNK         0.0800 
    140 H140        0.7352  -21.0967  -49.4842 H         1 UNK         0.0800 
    141 H141       -2.9186  -21.0347  -47.7182 H         1 UNK         0.0800 
    142 H142       -2.8991  -21.8893  -49.2362 H         1 UNK         0.0800 
    143 H143       -0.7510  -22.9559  -48.6876 H         1 UNK         0.0600 
    144 H144       -0.5521  -21.0190  -46.5741 H         1 UNK         0.3000 
    145 H145        2.3034  -22.5453  -45.0261 H         1 UNK         0.0600 
    146 H146        3.0790  -20.2215  -45.4469 H         1 UNK         0.0600 
    147 H147        3.0382  -21.1244  -46.9527 H         1 UNK         0.0600 
    148 H148        1.7698  -19.9587  -46.5979 H         1 UNK         0.0600 
    149 H149        0.7156  -20.2485  -44.3705 H         1 UNK         0.3000 
    150 H150       -1.6807  -21.8369  -42.3096 H         1 UNK         0.0600 
    151 H151        0.2987  -21.6632  -40.7877 H         1 UNK         0.0600 
    152 H152       -0.7901  -20.2997  -40.5834 H         1 UNK         0.0600 
    153 H153        0.7101  -20.1014  -41.4883 H         1 UNK         0.0600 
    154 H154       -1.1002  -19.0831  -42.8333 H         1 UNK         0.3000 
    155 H155       -1.8763  -18.2172  -45.4080 H         1 UNK         0.0600 
    156 H156       -4.2243  -17.6748  -46.0372 H         1 UNK         0.0600 
    157 H157       -4.8031  -19.0437  -45.0846 H         1 UNK         0.0600 
    158 H158       -3.7991  -19.3057  -46.5050 H         1 UNK         0.0600 
    159 H159       -3.8740  -17.2716  -43.6091 H         1 UNK         0.3000 
    160 H160       -3.5238  -15.7496  -42.1301 H         1 UNK         0.0600 
    161 H161       -0.8479  -15.9155  -40.6312 H         1 UNK         0.0600 
    162 H162       -2.2735  -16.8825  -40.2669 H         1 UNK         0.0600 
    163 H163       -2.3183  -15.1394  -40.0470 H         1 UNK         0.0600 
    164 H164       -1.0357  -14.5993  -43.1940 H         1 UNK         0.3000 
    165 H165       -2.5655  -11.3293  -43.3578 H         1 UNK         0.0600 
    166 H166        0.1421  -12.3886  -42.3946 H         1 UNK         0.0600 
    167 H167       -0.1925  -10.7531  -42.9557 H         1 UNK         0.0600 
    168 H168       -0.9402  -11.3476  -41.4807 H         1 UNK         0.0600 
    169 H169       -0.4247  -12.6369  -44.8001 H         1 UNK         0.3000 
    170 H170       -2.4035  -13.5124  -47.6364 H         1 UNK         0.0600 
    171 H171       -1.9360  -11.0972  -48.0170 H         1 UNK         0.0600 
    172 H172       -0.3372  -11.2736  -47.3041 H         1 UNK         0.0600 
    173 H173       -0.7295  -12.0994  -48.8114 H         1 UNK         0.0600 
    174 H174        0.4028  -13.6597  -47.1639 H         1 UNK         0.3000 
    175 H175        0.3981  -16.7812  -45.4230 H         1 UNK         0.0600 
    176 H176        0.2940  -17.4362  -47.8092 H         1 UNK         0.0600 
    177 H177        1.2932  -16.0665  -48.2646 H         1 UNK         0.0600 
    178 H178        1.9655  -17.3603  -47.2724 H         1 UNK         0.0600 
    179 H179        2.5060  -15.0512  -46.2751 H         1 UNK         0.3000 
    180 H180        2.6018  -12.9949  -43.3395 H         1 UNK         0.0600 
    181 H181        4.4182  -15.2225  -44.4019 H         1 UNK         0.0600 
    182 H182        3.8415  -15.0418  -42.7522 H         1 UNK         0.0600 
    183 H183        4.9481  -13.8537  -43.4248 H         1 UNK         0.0600 
    184 H184        4.0942  -13.1653  -45.8249 H         1 UNK         0.3000 
    185 H185        2.1428  -10.7503  -47.5713 H         1 UNK         0.0600 
    186 H186        4.2696   -9.4786  -47.6998 H         1 UNK         0.0600 
    187 H187        3.5391   -9.2707  -46.1162 H         1 UNK         0.0600 
    188 H188        4.9111  -10.3555  -46.3096 H         1 UNK         0.0600 
    189 H189        4.6490  -11.9741  -48.1682 H         1 UNK         0.3000 
    190 H190       -2.1772  -22.7357  -45.4346 H         1 UNK         0.3000 
    191 H191       -4.0423  -24.8317  -45.6240 H         1 UNK         0.0600 
    192 H192       -3.8850  -24.9235  -43.1785 H         1 UNK         0.0600 
    193 H193       -3.8711  -23.2479  -43.7067 H         1 UNK         0.0600 
    194 H194       -2.3745  -24.0288  -43.1960 H         1 UNK         0.0600 
    195 H195       -0.5304  -24.9715  -45.0692 H         1 UNK         0.3000 
    196 H196       -0.4630  -27.8764  -44.7893 H         1 UNK         0.0600 
    197 H197        2.0024  -27.5180  -44.8087 H         1 UNK         0.0600 
    198 H198        1.2135  -26.4597  -43.6484 H         1 UNK         0.0600 
    199 H199        1.7705  -25.8159  -45.1900 H         1 UNK         0.0600 
    200 H200        0.4652  -25.4926  -47.3335 H         1 UNK         0.3000 
    201 H201        1.4716  -27.4883  -49.0927 H         1 UNK         0.0600 
    202 H202        2.3335  -25.1685  -49.0001 H         1 UNK         0.0600 
    203 H203        0.8010  -24.5479  -49.6102 H         1 UNK         0.0600 
    204 H204        1.8097  -25.5658  -50.6291 H         1 UNK         0.0600 
    205 H205       -1.7251  -25.8656  -49.0108 H         1 UNK         0.3000 
    206 H206       -2.6441  -27.4340  -51.3657 H         1 UNK         0.0600 
    207 H207       -1.6265  -25.3048  -52.2204 H         1 UNK         0.0600 
    208 H208       -3.3625  -25.3135  -52.4641 H         1 UNK         0.0600 
    209 H209       -2.6676  -24.3733  -51.1465 H         1 UNK         0.0600 
    210 H210       -3.2640  -27.3069  -48.3789 H         1 UNK         0.3000 
    211 H211       -4.9858  -27.4269  -46.9754 H         1 UNK         0.0600 
    212 H212       -6.6755  -28.0566  -49.4513 H         1 UNK         0.0600 
    213 H213       -7.0552  -28.4865  -47.7890 H         1 UNK         0.0600 
    214 H214       -5.6738  -29.2201  -48.5843 H         1 UNK         0.0600 
    215 H215       -4.3804  -24.8166  -48.0280 H         1 UNK         0.3000 
    216 H216       -4.9176  -22.7016  -47.8251 H         1 UNK         0.0600 
    217 H217       -5.9189  -23.2948  -45.6160 H         1 UNK         0.0600 
    218 H218       -6.7158  -21.9235  -46.3608 H         1 UNK         0.0600 
    219 H219       -7.4927  -23.4976  -46.3856 H         1 UNK         0.0600 
    220 H220       -6.2743  -24.5642  -50.0428 H         1 UNK         0.3000 
    221 H221       -8.4701  -22.9684  -51.0009 H         1 UNK         0.0600 
    222 H222       -6.7900  -25.0868  -52.4430 H         1 UNK         0.0600 
    223 H223       -8.2152  -25.4174  -51.4586 H         1 UNK         0.0600 
    224 H224       -8.3659  -24.4897  -52.9437 H         1 UNK         0.0600 
    225 H225       -4.9991  -22.8051  -51.4535 H         1 UNK         0.3000 
    226 H226       -4.9763  -21.3361  -53.9144 H         1 UNK         0.0600 
    227 H227       -3.0335  -22.6618  -53.1240 H         1 UNK         0.0600 
    228 H228       -2.5894  -20.9852  -53.3834 H         1 UNK         0.0600 
    229 H229       -2.8266  -21.5802  -51.7436 H         1 UNK         0.0600 
    230 H230       -5.2612  -20.3415  -50.5546 H         1 UNK         0.3000 
    231 H231       -5.4495  -18.4015  -49.4650 H         1 UNK         0.0600 
    232 H232       -7.1602  -16.8782  -50.4098 H         1 UNK         0.0600 
    233 H233       -7.6117  -18.5505  -50.6986 H         1 UNK         0.0600 
    234 H234       -6.9448  -17.5792  -52.0098 H         1 UNK         0.0600 
    235 H235       -2.9361  -18.5268  -50.4772 H         1 UNK         0.3000 
    236 H236       -1.0575  -17.4567  -50.8382 H         1 UNK         0.0600 
    237 H237       -2.4818  -14.8160  -50.2551 H         1 UNK         0.0600 
    238 H238       -1.8897  -15.9276  -49.0224 H         1 UNK         0.0600 
    239 H239       -0.7617  -15.1511  -50.1200 H         1 UNK         0.0600 
    240 H240       -3.2300  -17.6403  -53.0756 H         1 UNK         0.3000 
    241 H241       -3.4180  -17.3098  -55.2184 H         1 UNK         0.0600 
    242 H242       -3.9128  -14.8584  -53.5186 H         1 UNK         0.3800 
    243 H243       -3.9084  -13.5695  -54.6979 H         1 UNK         0.3800 
    244 H244       -1.3172  -17.0172  -56.6280 H         1 UNK         0.0800 
    245 H245       -0.4070  -16.8088  -55.1541 H         1 UNK         0.0800 
    246 H246        1.1714  -18.7355  -55.6289 H         1 UNK         0.0800 
    247 H247        0.7917  -20.3950  -55.2557 H         1 UNK         0.0800 
@<TRIPOS>BOND
     1    1    2 1    
     2    1  127 1    
     3    1  128 1    
     4    1  129 1    
     5    2    3 2    
     6    2    4 am   BACKBONE|DICT|INTERRES
     7    4    5 1    
     8    4  130 1    
     9    5    6 1    
    10    5   65 1    
    11    5  131 1    
    12    6    7 1    
    13    6  132 1    
    14    6  133 1    
    15    7    8 1    
    16    8    9 1    
    17    8  134 1    
    18    8  135 1    
    19    9   10 ar   
    20    9   14 ar   
    21   10   11 ar   
    22   10  136 1    
    23   11   12 ar   
    24   11  126 1    
    25   12   13 ar   
    26   12  137 1    
    27   13   14 ar   
    28   13   15 1    
    29   14  138 1    
    30   15   16 1    
    31   15  139 1    
    32   15  140 1    
    33   16   17 1    
    34   17   18 1    
    35   17  141 1    
    36   17  142 1    
    37   18   19 1    
    38   18   67 1    
    39   18  143 1    
    40   19   20 am   BACKBONE|DICT|INTERRES
    41   19  144 1    
    42   20   21 2    
    43   20   22 1    
    44   22   23 1    
    45   22   24 1    
    46   22  145 1    
    47   23  146 1    
    48   23  147 1    
    49   23  148 1    
    50   24   25 am   BACKBONE|DICT|INTERRES
    51   24  149 1    
    52   25   26 2    
    53   25   27 1    
    54   27   28 1    
    55   27   29 1    
    56   27  150 1    
    57   28  151 1    
    58   28  152 1    
    59   28  153 1    
    60   29   30 am   BACKBONE|DICT|INTERRES
    61   29  154 1    
    62   30   31 2    
    63   30   32 1    
    64   32   33 1    
    65   32   34 1    
    66   32  155 1    
    67   33  156 1    
    68   33  157 1    
    69   33  158 1    
    70   34   35 am   BACKBONE|DICT|INTERRES
    71   34  159 1    
    72   35   36 2    
    73   35   37 1    
    74   37   38 1    
    75   37   39 1    
    76   37  160 1    
    77   38  161 1    
    78   38  162 1    
    79   38  163 1    
    80   39   40 am   BACKBONE|DICT|INTERRES
    81   39  164 1    
    82   40   41 2    
    83   40   42 1    
    84   42   43 1    
    85   42   44 1    
    86   42  165 1    
    87   43  166 1    
    88   43  167 1    
    89   43  168 1    
    90   44   45 am   BACKBONE|DICT|INTERRES
    91   44  169 1    
    92   45   46 2    
    93   45   47 1    
    94   47   48 1    
    95   47   49 1    
    96   47  170 1    
    97   48  171 1    
    98   48  172 1    
    99   48  173 1    
   100   49   50 am   BACKBONE|DICT|INTERRES
   101   49  174 1    
   102   50   51 2    
   103   50   52 1    
   104   52   53 1    
   105   52   54 1    
   106   52  175 1    
   107   53  176 1    
   108   53  177 1    
   109   53  178 1    
   110   54   55 am   BACKBONE|DICT|INTERRES
   111   54  179 1    
   112   55   56 2    
   113   55   57 1    
   114   57   58 1    
   115   57   59 1    
   116   57  180 1    
   117   58  181 1    
   118   58  182 1    
   119   58  183 1    
   120   59   60 am   BACKBONE|DICT|INTERRES
   121   59  184 1    
   122   60   61 2    
   123   60   62 1    
   124   62   63 1    
   125   62   64 1    
   126   62  185 1    
   127   63  186 1    
   128   63  187 1    
   129   63  188 1    
   130   64   65 am   BACKBONE|DICT|INTERRES
   131   64  189 1    
   132   65   66 2    
   133   67   68 2    
   134   67   69 am   BACKBONE|DICT|INTERRES
   135   69   70 1    
   136   69  190 1    
   137   70   71 1    
   138   70   72 1    
   139   70  191 1    
   140   71  192 1    
   141   71  193 1    
   142   71  194 1    
   143   72   73 2    
   144   72   74 am   BACKBONE|DICT|INTERRES
   145   74   75 1    
   146   74  195 1    
   147   75   76 1    
   148   75   77 1    
   149   75  196 1    
   150   76  197 1    
   151   76  198 1    
   152   76  199 1    
   153   77   78 2    
   154   77   79 am   BACKBONE|DICT|INTERRES
   155   79   80 1    
   156   79  200 1    
   157   80   81 1    
   158   80   82 1    
   159   80  201 1    
   160   81  202 1    
   161   81  203 1    
   162   81  204 1    
   163   82   83 2    
   164   82   84 am   BACKBONE|DICT|INTERRES
   165   84   85 1    
   166   84  205 1    
   167   85   86 1    
   168   85   87 1    
   169   85  206 1    
   170   86  207 1    
   171   86  208 1    
   172   86  209 1    
   173   87   88 2    
   174   87   89 am   BACKBONE|DICT|INTERRES
   175   89   90 1    
   176   89  210 1    
   177   90   91 1    
   178   90   92 1    
   179   90  211 1    
   180   91  212 1    
   181   91  213 1    
   182   91  214 1    
   183   92   93 2    
   184   92   94 am   BACKBONE|DICT|INTERRES
   185   94   95 1    
   186   94  215 1    
   187   95   96 1    
   188   95   97 1    
   189   95  216 1    
   190   96  217 1    
   191   96  218 1    
   192   96  219 1    
   193   97   98 2    
   194   97   99 am   BACKBONE|DICT|INTERRES
   195   99  100 1    
   196   99  220 1    
   197  100  101 1    
   198  100  102 1    
   199  100  221 1    
   200  101  222 1    
   201  101  223 1    
   202  101  224 1    
   203  102  103 2    
   204  102  104 am   BACKBONE|DICT|INTERRES
   205  104  105 1    
   206  104  225 1    
   207  105  106 1    
   208  105  107 1    
   209  105  226 1    
   210  106  227 1    
   211  106  228 1    
   212  106  229 1    
   213  107  108 2    
   214  107  109 am   BACKBONE|DICT|INTERRES
   215  109  110 1    
   216  109  230 1    
   217  110  111 1    
   218  110  112 1    
   219  110  231 1    
   220  111  232 1    
   221  111  233 1    
   222  111  234 1    
   223  112  113 2    
   224  112  114 am   BACKBONE|DICT|INTERRES
   225  114  115 1    
   226  114  235 1    
   227  115  116 1    
   228  115  117 1    
   229  115  236 1    
   230  116  237 1    
   231  116  238 1    
   232  116  239 1    
   233  117  118 2    
   234  117  119 am   BACKBONE|DICT|INTERRES
   235  119  120 1    
   236  119  240 1    
   237  120  121 1    
   238  120  124 1    
   239  120  241 1    
   240  121  122 am   BACKBONE|DICT|INTERRES
   241  121  123 2    
   242  122  242 1    
   243  122  243 1    
   244  124  125 1    
   245  124  244 1    
   246  124  245 1    
   247  125  126 1    
   248  126  246 1    
   249  126  247 1    
@<TRIPOS>SUBSTRUCTURE
     1 UNK         1 GROUP             0       ****    0 ROOT    
