@<TRIPOS>MOLECULE
3R540
247   249    1
SMALL
USER_CHARGES


@<TRIPOS>ATOM
      1 CA          2.5861   -8.4101  -49.4701 C.3       0 UNK        -0.1800 
      2 C           2.3305   -9.5871  -48.5393 C.2       0 UNK         0.5000 
      3 O           2.6671   -9.5162  -47.3575 O.2       0 UNK        -0.5000 
      4 N           1.7416  -10.6678  -49.0693 N.am      1 UNK        -0.5000 
      5 CA          1.3864  -11.8828  -48.3258 C.3       1 UNK         0.1400 
      6 C6          1.0300  -13.0388  -49.2954 C.3       23 UNK        -0.0398 
      7 S7          1.0115  -14.6718  -48.4839 S.3       23 UNK        -0.2404 
      8 C8          2.6419  -15.3505  -48.9280 C.3       23 UNK        -0.0205 
      9 C9          2.4861  -16.6184  -49.7475 C.ar      23 UNK        -0.0193 
     10 C10         2.2826  -16.5466  -51.1292 C.ar      23 UNK        -0.1150 
     11 C11         2.0969  -17.7126  -51.8777 C.ar      23 UNK        -0.0193 
     12 C12         2.1308  -18.9527  -51.2353 C.ar      23 UNK        -0.1150 
     13 C13         2.3297  -19.0367  -49.8548 C.ar      23 UNK        -0.0193 
     14 C14         2.5189  -17.8656  -49.1171 C.ar      23 UNK        -0.1150 
     15 C15         2.3123  -20.3889  -49.1609 C.3       23 UNK        -0.0205 
     16 S16         0.7022  -20.6782  -48.3647 S.3       23 UNK        -0.2404 
     17 C17         0.6307  -22.5009  -48.3326 C.3       23 UNK        -0.0398 
     18 CA         -0.2474  -23.0935  -47.2067 C.3       11 UNK         0.1400 
     19 N           0.3244  -22.8736  -45.8761 N.am      11 UNK        -0.5000 
     20 C          -0.0039  -23.5760  -44.7835 C.2       10 UNK         0.5000 
     21 O          -0.8422  -24.4779  -44.8009 O.2       10 UNK        -0.5000 
     22 CA          0.6443  -23.1791  -43.4424 C.3       10 UNK         0.1400 
     23 CB          1.1479  -24.4049  -42.6552 C.3       10 UNK        -0.1800 
     24 N           1.6791  -22.1460  -43.5526 N.am      10 UNK        -0.5000 
     25 C           2.8980  -22.2286  -44.1054 C.2       9 UNK         0.5000 
     26 O           3.3574  -23.2528  -44.6104 O.2       9 UNK        -0.5000 
     27 CA          3.7375  -20.9341  -44.1319 C.3       9 UNK         0.1400 
     28 CB          3.7924  -20.3733  -45.5613 C.3       9 UNK        -0.1800 
     29 N           3.2301  -19.8905  -43.2365 N.am      9 UNK        -0.5000 
     30 C           3.3284  -19.9135  -41.8997 C.2       8 UNK         0.5000 
     31 O           3.9302  -20.7864  -41.2736 O.2       8 UNK        -0.5000 
     32 CA          2.5952  -18.7964  -41.1328 C.3       8 UNK         0.1400 
     33 CB          3.4535  -17.5241  -41.0754 C.3       8 UNK        -0.1800 
     34 N           1.2816  -18.4803  -41.7017 N.am      8 UNK        -0.5000 
     35 C           0.2393  -19.3242  -41.7340 C.2       7 UNK         0.5000 
     36 O           0.2654  -20.4597  -41.2609 O.2       7 UNK        -0.5000 
     37 CA         -1.0283  -18.8452  -42.4631 C.3       7 UNK         0.1400 
     38 CB         -1.8708  -17.9180  -41.5753 C.3       7 UNK        -0.1800 
     39 N          -0.7135  -18.1737  -43.7223 N.am      7 UNK        -0.5000 
     40 C          -0.2140  -18.7848  -44.8049 C.2       6 UNK         0.5000 
     41 O          -0.0784  -20.0058  -44.8968 O.2       6 UNK        -0.5000 
     42 CA          0.2328  -17.8802  -45.9663 C.3       6 UNK         0.1400 
     43 CB         -0.9214  -17.6339  -46.9496 C.3       6 UNK        -0.1800 
     44 N           0.7794  -16.6038  -45.4982 N.am      6 UNK        -0.5000 
     45 C           1.9692  -16.4759  -44.8929 C.2       5 UNK         0.5000 
     46 O           2.7444  -17.4151  -44.7204 O.2       5 UNK        -0.5000 
     47 CA          2.3343  -15.0896  -44.3269 C.3       5 UNK         0.1400 
     48 CB          3.1032  -14.2372  -45.3430 C.3       5 UNK        -0.1800 
     49 N           1.1670  -14.3521  -43.8428 N.am      5 UNK        -0.5000 
     50 C           0.5125  -14.6822  -42.7210 C.2       4 UNK         0.5000 
     51 O           0.8354  -15.6258  -42.0001 O.2       4 UNK        -0.5000 
     52 CA         -0.7301  -13.8517  -42.3601 C.3       4 UNK         0.1400 
     53 CB         -0.3245  -12.5690  -41.6192 C.3       4 UNK        -0.1800 
     54 N          -1.5632  -13.5009  -43.5106 N.am      4 UNK        -0.5000 
     55 C          -2.1578  -14.3743  -44.3382 C.2       3 UNK         0.5000 
     56 O          -2.0084  -15.5934  -44.2693 O.2       3 UNK        -0.5000 
     57 CA         -3.0512  -13.7755  -45.4341 C.3       3 UNK         0.1400 
     58 CB         -4.4691  -13.5551  -44.8671 C.3       3 UNK        -0.1800 
     59 N          -2.4362  -12.5366  -45.9115 N.am      3 UNK        -0.5000 
     60 C          -2.9217  -11.6057  -46.7364 C.2       2 UNK         0.5000 
     61 O          -4.0350  -11.6445  -47.2599 O.2       2 UNK        -0.5000 
     62 CA         -1.9759  -10.4279  -47.0438 C.3       2 UNK         0.1400 
     63 CB         -1.6684   -9.5967  -45.7820 C.3       2 UNK        -0.1800 
     64 N          -0.7427  -10.8280  -47.7335 N.am      2 UNK        -0.5000 
     65 C           0.2520  -11.6242  -47.3072 C.2       1 UNK         0.5000 
     66 O           0.3034  -12.1360  -46.1844 O.2       1 UNK        -0.5000 
     67 C          -1.7261  -22.6517  -47.2936 C.2       11 UNK         0.5000 
     68 O          -2.4631  -23.1680  -48.1380 O.2       11 UNK        -0.5000 
     69 N          -2.1384  -21.7402  -46.3974 N.am      12 UNK        -0.5000 
     70 CA         -3.5326  -21.3550  -46.1831 C.3       12 UNK         0.1400 
     71 CB         -3.6012  -20.1008  -45.3016 C.3       12 UNK        -0.1800 
     72 C          -4.3730  -22.4893  -45.5707 C.2       12 UNK         0.5000 
     73 O          -5.5411  -22.6426  -45.9243 O.2       12 UNK        -0.5000 
     74 N          -3.7626  -23.2717  -44.6719 N.am      13 UNK        -0.5000 
     75 CA         -4.3921  -24.4290  -44.0411 C.3       13 UNK         0.1400 
     76 CB         -3.6883  -24.7319  -42.7086 C.3       13 UNK        -0.1800 
     77 C          -4.3674  -25.6551  -44.9679 C.2       13 UNK         0.5000 
     78 O          -5.3678  -26.3670  -45.0617 O.2       13 UNK        -0.5000 
     79 N          -3.2239  -25.8791  -45.6292 N.am      14 UNK        -0.5000 
     80 CA         -2.9737  -27.0476  -46.4692 C.3       14 UNK         0.1400 
     81 CB         -1.4665  -27.1649  -46.7409 C.3       14 UNK        -0.1800 
     82 C          -3.7557  -27.0486  -47.7940 C.2       14 UNK         0.5000 
     83 O          -4.1889  -28.1191  -48.2237 O.2       14 UNK        -0.5000 
     84 N          -3.9027  -25.8793  -48.4344 N.am      15 UNK        -0.5000 
     85 CA         -4.4504  -25.7734  -49.7880 C.3       15 UNK         0.1400 
     86 CB         -3.3486  -26.0986  -50.8175 C.3       15 UNK        -0.1800 
     87 C          -5.1183  -24.4109  -50.0340 C.2       15 UNK         0.5000 
     88 O          -4.9176  -23.8125  -51.0940 O.2       15 UNK        -0.5000 
     89 N          -5.8891  -23.9283  -49.0500 N.am      16 UNK        -0.5000 
     90 CA         -6.7071  -22.7016  -49.0385 C.3       16 UNK         0.1400 
     91 CB         -7.7705  -22.7292  -50.1541 C.3       16 UNK        -0.1800 
     92 C          -5.9160  -21.3764  -49.0666 C.2       16 UNK         0.5000 
     93 O          -6.2914  -20.4415  -48.3600 O.2       16 UNK        -0.5000 
     94 N          -4.8341  -21.3378  -49.8501 N.am      17 UNK        -0.5000 
     95 CA         -3.8350  -20.2829  -50.0106 C.3       17 UNK         0.1400 
     96 CB         -4.4729  -18.8969  -50.2650 C.3       17 UNK        -0.1800 
     97 C          -2.9105  -20.7180  -51.1570 C.2       17 UNK         0.5000 
     98 O          -2.8644  -20.0484  -52.1884 O.2       17 UNK        -0.5000 
     99 N          -2.2453  -21.8710  -50.9853 N.am      18 UNK        -0.5000 
    100 CA        -1.3384  -22.4992  -51.9578 C.3       18 UNK         0.1400 
    101 CB        -0.0669  -21.6489  -52.1454 C.3       18 UNK        -0.1800 
    102 C         -2.0286  -22.8203  -53.3000 C.2       18 UNK         0.5000 
    103 O         -1.6513  -22.2837  -54.3424 O.2       18 UNK        -0.5000 
    104 N         -3.0506  -23.6801  -53.2300 N.am      19 UNK        -0.5000 
    105 CA        -3.9370  -24.0972  -54.3194 C.3       19 UNK         0.1400 
    106 CB        -3.1611  -24.7656  -55.4751 C.3       19 UNK        -0.1800 
    107 C         -4.8567  -22.9455  -54.7645 C.2       19 UNK         0.5000 
    108 O         -4.9777  -22.6709  -55.9590 O.2       19 UNK        -0.5000 
    109 N         -5.4963  -22.3173  -53.7664 N.am      20 UNK        -0.5000 
    110 CA        -6.4873  -21.2437  -53.8753 C.3       20 UNK         0.1400 
    111 CB        -7.7883  -21.7742  -54.5124 C.3       20 UNK        -0.1800 
    112 C         -5.9446  -19.9824  -54.5798 C.2       20 UNK         0.5000 
    113 O         -6.3138  -19.6951  -55.7198 O.2       20 UNK        -0.5000 
    114 N         -5.0969  -19.2477  -53.8500 N.am      21 UNK        -0.5000 
    115 CA        -4.4698  -17.9701  -54.1952 C.3       21 UNK         0.1400 
    116 CB        -5.5035  -16.9010  -54.6125 C.3       21 UNK        -0.1800 
    117 C         -3.3070  -18.1410  -55.1874 C.2       21 UNK         0.5000 
    118 O         -3.3074  -17.5336  -56.2600 O.2       21 UNK        -0.5000 
    119 N         -2.3171  -18.9381  -54.7675 N.am      22 UNK        -0.5000 
    120 CA        -1.0053  -19.1236  -55.4092 C.3       22 UNK         0.1400 
    121 C         -1.1109  -19.7822  -56.8127 C.2       22 UNK         0.5000 
    122 N         -1.5370  -21.0354  -56.8722 N.am      22 UNK        -0.7600 
    123 O         -0.8045  -19.1795  -57.8390 O.2       22 UNK        -0.5000 
    124 C124       -0.1381  -17.8317  -55.3969 C.3       23 UNK        -0.0398 
    125 S125        0.1054  -17.1833  -53.7053 S.3       23 UNK        -0.2404 
    126 C126        1.8349  -17.6399  -53.3740 C.3       23 UNK        -0.0205 
    127 H127        2.0639   -7.5248  -49.1071 H         1 UNK         0.0600 
    128 H128        3.6523   -8.1866  -49.5083 H         1 UNK         0.0600 
    129 H129        2.2450   -8.6134  -50.4855 H         1 UNK         0.0600 
    130 H130        1.5038  -10.6628  -50.0512 H         1 UNK         0.3000 
    131 H131        2.2733  -12.1762  -47.7607 H         1 UNK         0.0600 
    132 H132        0.0539  -12.8740  -49.7550 H         1 UNK         0.0800 
    133 H133        1.7367  -13.0676  -50.1255 H         1 UNK         0.0800 
    134 H134        3.1936  -15.5666  -48.0127 H         1 UNK         0.0800 
    135 H135        3.2431  -14.6233  -49.4746 H         1 UNK         0.0800 
    136 H136        2.2429  -15.5832  -51.6179 H         1 UNK         0.1150 
    137 H137        1.9886  -19.8536  -51.8127 H         1 UNK         0.1150 
    138 H138        2.6696  -17.9243  -48.0486 H         1 UNK         0.1150 
    139 H139        2.5183  -21.1811  -49.8821 H         1 UNK         0.0800 
    140 H140        3.1058  -20.4374  -48.4154 H         1 UNK         0.0800 
    141 H141        1.6448  -22.8921  -48.2386 H         1 UNK         0.0800 
    142 H142        0.2701  -22.8495  -49.3004 H         1 UNK         0.0800 
    143 H143       -0.2522  -24.1725  -47.3671 H         1 UNK         0.0600 
    144 H144        0.9480  -22.0854  -45.7728 H         1 UNK         0.3000 
    145 H145       -0.1561  -22.7257  -42.8566 H         1 UNK         0.0600 
    146 H146        1.5874  -24.1078  -41.7030 H         1 UNK         0.0600 
    147 H147        0.3283  -25.0895  -42.4335 H         1 UNK         0.0600 
    148 H148        1.8972  -24.9677  -43.2121 H         1 UNK         0.0600 
    149 H149        1.4044  -21.2419  -43.1919 H         1 UNK         0.3000 
    150 H150        4.7527  -21.1927  -43.8243 H         1 UNK         0.0600 
    151 H151        4.1926  -21.1113  -46.2575 H         1 UNK         0.0600 
    152 H152        4.4347  -19.4943  -45.6168 H         1 UNK         0.0600 
    153 H153        2.8018  -20.0866  -45.9160 H         1 UNK         0.0600 
    154 H154        2.7924  -19.0891  -43.6817 H         1 UNK         0.3000 
    155 H155        2.4381  -19.1446  -40.1099 H         1 UNK         0.0600 
    156 H156        3.6450  -17.1230  -42.0705 H         1 UNK         0.0600 
    157 H157        4.4199  -17.7262  -40.6120 H         1 UNK         0.0600 
    158 H158        2.9672  -16.7456  -40.4873 H         1 UNK         0.0600 
    159 H159        1.1547  -17.5353  -42.0526 H         1 UNK         0.3000 
    160 H160       -1.6279  -19.7285  -42.6881 H         1 UNK         0.0600 
    161 H161       -2.7870  -17.6148  -42.0824 H         1 UNK         0.0600 
    162 H162       -1.3278  -17.0145  -41.3001 H         1 UNK         0.0600 
    163 H163       -2.1596  -18.4208  -40.6516 H         1 UNK         0.0600 
    164 H164       -0.8804  -17.1737  -43.7649 H         1 UNK         0.3000 
    165 H165        1.0208  -18.4108  -46.5007 H         1 UNK         0.0600 
    166 H166       -1.7338  -17.0687  -46.4933 H         1 UNK         0.0600 
    167 H167       -0.5796  -17.0869  -47.8274 H         1 UNK         0.0600 
    168 H168       -1.3359  -18.5773  -47.3067 H         1 UNK         0.0600 
    169 H169        0.1805  -15.7951  -45.5744 H         1 UNK         0.3000 
    170 H170        3.0033  -15.2575  -43.4804 H         1 UNK         0.0600 
    171 H171        3.9537  -14.7833  -45.7527 H         1 UNK         0.0600 
    172 H172        2.4681  -13.9356  -46.1714 H         1 UNK         0.0600 
    173 H173        3.4915  -13.3305  -44.8789 H         1 UNK         0.0600 
    174 H174        0.8430  -13.5733  -44.4027 H         1 UNK         0.3000 
    175 H175       -1.3414  -14.4551  -41.6859 H         1 UNK         0.0600 
    176 H176       -1.1997  -12.0236  -41.2658 H         1 UNK         0.0600 
    177 H177        0.2876  -12.7990  -40.7460 H         1 UNK         0.0600 
    178 H178        0.2530  -11.9001  -42.2587 H         1 UNK         0.0600 
    179 H179       -1.7639  -12.5192  -43.6315 H         1 UNK         0.3000 
    180 H180       -3.0953  -14.4827  -46.2641 H         1 UNK         0.0600 
    181 H181       -4.4879  -12.7532  -44.1283 H         1 UNK         0.0600 
    182 H182       -4.8403  -14.4583  -44.3806 H         1 UNK         0.0600 
    183 H183       -5.1841  -13.3081  -45.6510 H         1 UNK         0.0600 
    184 H184       -1.4516  -12.4327  -45.6741 H         1 UNK         0.3000 
    185 H185       -2.5065   -9.7743  -47.7381 H         1 UNK         0.0600 
    186 H186       -1.1101  -10.1629  -45.0364 H         1 UNK         0.0600 
    187 H187       -1.0834   -8.7113  -46.0310 H         1 UNK         0.0600 
    188 H188       -2.5893   -9.2546  -45.3084 H         1 UNK         0.0600 
    189 H189       -0.6614  -10.4726  -48.6755 H         1 UNK         0.3000 
    190 H190       -1.4449  -21.3223  -45.7858 H         1 UNK         0.3000 
    191 H191       -3.9628  -21.1059  -47.1479 H         1 UNK         0.0600 
    192 H192       -3.0815  -19.2622  -45.7619 H         1 UNK         0.0600 
    193 H193       -3.1626  -20.2761  -44.3203 H         1 UNK         0.0600 
    194 H194       -4.6355  -19.7905  -45.1476 H         1 UNK         0.0600 
    195 H195       -2.7864  -23.1169  -44.4685 H         1 UNK         0.3000 
    196 H196       -5.4357  -24.1926  -43.8214 H         1 UNK         0.0600 
    197 H197       -4.1598  -25.5759  -42.2036 H         1 UNK         0.0600 
    198 H198       -3.7417  -23.8784  -42.0325 H         1 UNK         0.0600 
    199 H199       -2.6364  -24.9820  -42.8491 H         1 UNK         0.0600 
    200 H200       -2.4263  -25.2776  -45.4405 H         1 UNK         0.3000 
    201 H201       -3.2793  -27.9324  -45.9065 H         1 UNK         0.0600 
    202 H202       -0.8978  -27.2054  -45.8116 H         1 UNK         0.0600 
    203 H203       -1.0972  -26.3225  -47.3247 H         1 UNK         0.0600 
    204 H204       -1.2409  -28.0736  -47.3003 H         1 UNK         0.0600 
    205 H205       -3.5137  -25.0299  -48.0386 H         1 UNK         0.3000 
    206 H206       -5.2500  -26.5070  -49.9093 H         1 UNK         0.0600 
    207 H207       -2.9314  -27.0919  -50.6520 H         1 UNK         0.0600 
    208 H208       -3.7426  -26.0909  -51.8338 H         1 UNK         0.0600 
    209 H209       -2.5283  -25.3826  -50.7639 H         1 UNK         0.0600 
    210 H210       -5.9394  -24.4711  -48.1989 H         1 UNK         0.3000 
    211 H211       -7.2406  -22.7186  -48.0868 H         1 UNK         0.0600 
    212 H212       -7.3254  -22.7173  -51.1486 H         1 UNK         0.0600 
    213 H213       -8.4296  -21.8630  -50.0842 H         1 UNK         0.0600 
    214 H214       -8.3957  -23.6188  -50.0789 H         1 UNK         0.0600 
    215 H215       -4.6545  -22.1842  -50.3860 H         1 UNK         0.3000 
    216 H216       -3.2222  -20.2252  -49.1106 H         1 UNK         0.0600 
    217 H217       -3.7237  -18.1655  -50.5713 H         1 UNK         0.0600 
    218 H218       -4.9362  -18.5000  -49.3625 H         1 UNK         0.0600 
    219 H219       -5.2368  -18.9375  -51.0408 H         1 UNK         0.0600 
    220 H220       -2.3650  -22.3661  -50.1081 H         1 UNK         0.3000 
    221 H221       -1.0316  -23.4545  -51.5300 H         1 UNK         0.0600 
    222 H222       -0.2893  -20.6600  -52.5462 H         1 UNK         0.0600 
    223 H223        0.4508  -21.5111  -51.2005 H         1 UNK         0.0600 
    224 H224        0.6318  -22.1310  -52.8299 H         1 UNK         0.0600 
    225 H225       -3.3573  -23.9722  -52.3094 H         1 UNK         0.3000 
    226 H226       -4.5946  -24.8580  -53.8962 H         1 UNK         0.0600 
    227 H227       -2.5176  -25.5647  -55.1073 H         1 UNK         0.0600 
    228 H228       -3.8493  -25.2087  -56.1956 H         1 UNK         0.0600 
    229 H229       -2.5386  -24.0560  -56.0199 H         1 UNK         0.0600 
    230 H230       -5.3111  -22.6513  -52.8278 H         1 UNK         0.3000 
    231 H231       -6.7315  -20.9487  -52.8534 H         1 UNK         0.0600 
    232 H232       -8.1908  -22.6125  -53.9437 H         1 UNK         0.0600 
    233 H233       -7.6346  -22.1089  -55.5387 H         1 UNK         0.0600 
    234 H234       -8.5547  -20.9985  -54.5337 H         1 UNK         0.0600 
    235 H235       -4.7549  -19.6452  -52.9842 H         1 UNK         0.3000 
    236 H236       -4.0156  -17.6120  -53.2697 H         1 UNK         0.0600 
    237 H237       -5.0285  -15.9240  -54.7070 H         1 UNK         0.0600 
    238 H238       -5.9666  -17.1263  -55.5731 H         1 UNK         0.0600 
    239 H239       -6.2955  -16.8061  -53.8698 H         1 UNK         0.0600 
    240 H240       -2.4345  -19.4115  -53.8741 H         1 UNK         0.3000 
    241 H241       -0.4761  -19.8495  -54.7916 H         1 UNK         0.0600 
    242 H242       -1.6242  -21.4980  -57.7622 H         1 UNK         0.3800 
    243 H243       -1.7304  -21.5432  -56.0094 H         1 UNK         0.3800 
    244 H244        0.8339  -18.0193  -55.8557 H         1 UNK         0.0800 
    245 H245       -0.6062  -17.0512  -55.9983 H         1 UNK         0.0800 
    246 H246        2.0570  -18.6023  -53.8377 H         1 UNK         0.0800 
    247 H247        2.5004  -16.9098  -53.8369 H         1 UNK         0.0800 
@<TRIPOS>BOND
     1    1    2 1    
     2    1  127 1    
     3    1  128 1    
     4    1  129 1    
     5    2    3 2    
     6    2    4 am   BACKBONE|DICT|INTERRES
     7    4    5 1    
     8    4  130 1    
     9    5    6 1    
    10    5   65 1    
    11    5  131 1    
    12    6    7 1    
    13    6  132 1    
    14    6  133 1    
    15    7    8 1    
    16    8    9 1    
    17    8  134 1    
    18    8  135 1    
    19    9   10 ar   
    20    9   14 ar   
    21   10   11 ar   
    22   10  136 1    
    23   11   12 ar   
    24   11  126 1    
    25   12   13 ar   
    26   12  137 1    
    27   13   14 ar   
    28   13   15 1    
    29   14  138 1    
    30   15   16 1    
    31   15  139 1    
    32   15  140 1    
    33   16   17 1    
    34   17   18 1    
    35   17  141 1    
    36   17  142 1    
    37   18   19 1    
    38   18   67 1    
    39   18  143 1    
    40   19   20 am   BACKBONE|DICT|INTERRES
    41   19  144 1    
    42   20   21 2    
    43   20   22 1    
    44   22   23 1    
    45   22   24 1    
    46   22  145 1    
    47   23  146 1    
    48   23  147 1    
    49   23  148 1    
    50   24   25 am   BACKBONE|DICT|INTERRES
    51   24  149 1    
    52   25   26 2    
    53   25   27 1    
    54   27   28 1    
    55   27   29 1    
    56   27  150 1    
    57   28  151 1    
    58   28  152 1    
    59   28  153 1    
    60   29   30 am   BACKBONE|DICT|INTERRES
    61   29  154 1    
    62   30   31 2    
    63   30   32 1    
    64   32   33 1    
    65   32   34 1    
    66   32  155 1    
    67   33  156 1    
    68   33  157 1    
    69   33  158 1    
    70   34   35 am   BACKBONE|DICT|INTERRES
    71   34  159 1    
    72   35   36 2    
    73   35   37 1    
    74   37   38 1    
    75   37   39 1    
    76   37  160 1    
    77   38  161 1    
    78   38  162 1    
    79   38  163 1    
    80   39   40 am   BACKBONE|DICT|INTERRES
    81   39  164 1    
    82   40   41 2    
    83   40   42 1    
    84   42   43 1    
    85   42   44 1    
    86   42  165 1    
    87   43  166 1    
    88   43  167 1    
    89   43  168 1    
    90   44   45 am   BACKBONE|DICT|INTERRES
    91   44  169 1    
    92   45   46 2    
    93   45   47 1    
    94   47   48 1    
    95   47   49 1    
    96   47  170 1    
    97   48  171 1    
    98   48  172 1    
    99   48  173 1    
   100   49   50 am   BACKBONE|DICT|INTERRES
   101   49  174 1    
   102   50   51 2    
   103   50   52 1    
   104   52   53 1    
   105   52   54 1    
   106   52  175 1    
   107   53  176 1    
   108   53  177 1    
   109   53  178 1    
   110   54   55 am   BACKBONE|DICT|INTERRES
   111   54  179 1    
   112   55   56 2    
   113   55   57 1    
   114   57   58 1    
   115   57   59 1    
   116   57  180 1    
   117   58  181 1    
   118   58  182 1    
   119   58  183 1    
   120   59   60 am   BACKBONE|DICT|INTERRES
   121   59  184 1    
   122   60   61 2    
   123   60   62 1    
   124   62   63 1    
   125   62   64 1    
   126   62  185 1    
   127   63  186 1    
   128   63  187 1    
   129   63  188 1    
   130   64   65 am   BACKBONE|DICT|INTERRES
   131   64  189 1    
   132   65   66 2    
   133   67   68 2    
   134   67   69 am   BACKBONE|DICT|INTERRES
   135   69   70 1    
   136   69  190 1    
   137   70   71 1    
   138   70   72 1    
   139   70  191 1    
   140   71  192 1    
   141   71  193 1    
   142   71  194 1    
   143   72   73 2    
   144   72   74 am   BACKBONE|DICT|INTERRES
   145   74   75 1    
   146   74  195 1    
   147   75   76 1    
   148   75   77 1    
   149   75  196 1    
   150   76  197 1    
   151   76  198 1    
   152   76  199 1    
   153   77   78 2    
   154   77   79 am   BACKBONE|DICT|INTERRES
   155   79   80 1    
   156   79  200 1    
   157   80   81 1    
   158   80   82 1    
   159   80  201 1    
   160   81  202 1    
   161   81  203 1    
   162   81  204 1    
   163   82   83 2    
   164   82   84 am   BACKBONE|DICT|INTERRES
   165   84   85 1    
   166   84  205 1    
   167   85   86 1    
   168   85   87 1    
   169   85  206 1    
   170   86  207 1    
   171   86  208 1    
   172   86  209 1    
   173   87   88 2    
   174   87   89 am   BACKBONE|DICT|INTERRES
   175   89   90 1    
   176   89  210 1    
   177   90   91 1    
   178   90   92 1    
   179   90  211 1    
   180   91  212 1    
   181   91  213 1    
   182   91  214 1    
   183   92   93 2    
   184   92   94 am   BACKBONE|DICT|INTERRES
   185   94   95 1    
   186   94  215 1    
   187   95   96 1    
   188   95   97 1    
   189   95  216 1    
   190   96  217 1    
   191   96  218 1    
   192   96  219 1    
   193   97   98 2    
   194   97   99 am   BACKBONE|DICT|INTERRES
   195   99  100 1    
   196   99  220 1    
   197  100  101 1    
   198  100  102 1    
   199  100  221 1    
   200  101  222 1    
   201  101  223 1    
   202  101  224 1    
   203  102  103 2    
   204  102  104 am   BACKBONE|DICT|INTERRES
   205  104  105 1    
   206  104  225 1    
   207  105  106 1    
   208  105  107 1    
   209  105  226 1    
   210  106  227 1    
   211  106  228 1    
   212  106  229 1    
   213  107  108 2    
   214  107  109 am   BACKBONE|DICT|INTERRES
   215  109  110 1    
   216  109  230 1    
   217  110  111 1    
   218  110  112 1    
   219  110  231 1    
   220  111  232 1    
   221  111  233 1    
   222  111  234 1    
   223  112  113 2    
   224  112  114 am   BACKBONE|DICT|INTERRES
   225  114  115 1    
   226  114  235 1    
   227  115  116 1    
   228  115  117 1    
   229  115  236 1    
   230  116  237 1    
   231  116  238 1    
   232  116  239 1    
   233  117  118 2    
   234  117  119 am   BACKBONE|DICT|INTERRES
   235  119  120 1    
   236  119  240 1    
   237  120  121 1    
   238  120  124 1    
   239  120  241 1    
   240  121  122 am   BACKBONE|DICT|INTERRES
   241  121  123 2    
   242  122  242 1    
   243  122  243 1    
   244  124  125 1    
   245  124  244 1    
   246  124  245 1    
   247  125  126 1    
   248  126  246 1    
   249  126  247 1    
@<TRIPOS>SUBSTRUCTURE
     1 UNK         1 GROUP             0       ****    0 ROOT    
