@<TRIPOS>MOLECULE
3R540
247   249    1
SMALL
USER_CHARGES


@<TRIPOS>ATOM
      1 CA          3.2681  -10.4088  -52.4347 C.3       0 UNK        -0.1800 
      2 C           3.3078  -11.1407  -51.1006 C.2       0 UNK         0.5000 
      3 O           3.2787  -10.5003  -50.0499 O.2       0 UNK        -0.5000 
      4 N           3.3796  -12.4777  -51.1402 N.am      1 UNK        -0.5000 
      5 CA          3.3822  -13.3542  -49.9621 C.3       1 UNK         0.1400 
      6 C6          3.8407  -14.7873  -50.3397 C.3       23 UNK        -0.0398 
      7 S7          4.4988  -15.7712  -48.9444 S.3       23 UNK        -0.2404 
      8 C8          3.0399  -16.6547  -48.2932 C.3       23 UNK        -0.0205 
      9 C9          2.3989  -17.5906  -49.3058 C.ar      23 UNK        -0.0193 
     10 C10         1.3257  -17.1559  -50.0895 C.ar      23 UNK        -0.1150 
     11 C11         0.7643  -17.9951  -51.0548 C.ar      23 UNK        -0.0193 
     12 C12         1.2511  -19.2967  -51.1987 C.ar      23 UNK        -0.1150 
     13 C13         2.2878  -19.7603  -50.3840 C.ar      23 UNK        -0.0193 
     14 C14         2.8663  -18.8993  -49.4468 C.ar      23 UNK        -0.1150 
     15 C15         2.7728  -21.1962  -50.5091 C.3       23 UNK        -0.0205 
     16 S16         1.5255  -22.3820  -49.9138 S.3       23 UNK        -0.2404 
     17 C17         1.2665  -21.7997  -48.2025 C.3       23 UNK        -0.0398 
     18 CA          0.6913  -22.8944  -47.2765 C.3       11 UNK         0.1400 
     19 N           0.8489  -22.5548  -45.8612 N.am      11 UNK        -0.5000 
     20 C           0.6094  -23.4014  -44.8493 C.2       10 UNK         0.5000 
     21 O           0.2724  -24.5758  -45.0030 O.2       10 UNK        -0.5000 
     22 CA          0.7226  -22.8297  -43.4262 C.3       10 UNK         0.1400 
     23 CB          2.1929  -22.7469  -42.9902 C.3       10 UNK        -0.1800 
     24 N           0.0905  -21.5162  -43.2944 N.am      10 UNK        -0.5000 
     25 C          -1.2195  -21.2831  -43.4608 C.2       9 UNK         0.5000 
     26 O          -2.0424  -22.1620  -43.7133 O.2       9 UNK        -0.5000 
     27 CA         -1.6861  -19.8186  -43.3776 C.3       9 UNK         0.1400 
     28 CB         -1.7888  -19.3553  -41.9170 C.3       9 UNK        -0.1800 
     29 N          -0.8213  -18.9049  -44.1226 N.am      9 UNK        -0.5000 
     30 C          -0.6088  -18.9604  -45.4456 C.2       8 UNK         0.5000 
     31 O          -1.1365  -19.7797  -46.1964 O.2       8 UNK        -0.5000 
     32 CA          0.4139  -17.9658  -46.0149 C.3       8 UNK         0.1400 
     33 CB         -0.2020  -16.5641  -46.1491 C.3       8 UNK        -0.1800 
     34 N           1.6176  -17.9065  -45.1863 N.am      8 UNK        -0.5000 
     35 C           2.4838  -18.9205  -45.0412 C.2       7 UNK         0.5000 
     36 O           2.3804  -20.0010  -45.6217 O.2       7 UNK        -0.5000 
     37 CA          3.6390  -18.6979  -44.0497 C.3       7 UNK         0.1400 
     38 CB          4.7687  -17.8934  -44.7106 C.3       7 UNK        -0.1800 
     39 N           3.2056  -18.0174  -42.8278 N.am      7 UNK        -0.5000 
     40 C           2.3593  -18.5397  -41.9279 C.2       6 UNK         0.5000 
     41 O           1.8780  -19.6676  -42.0164 O.2       6 UNK        -0.5000 
     42 CA          1.9420  -17.6305  -40.7576 C.3       6 UNK         0.1400 
     43 CB          2.9522  -17.7339  -39.6055 C.3       6 UNK        -0.1800 
     44 N           1.7887  -16.2268  -41.1484 N.am      6 UNK        -0.5000 
     45 C           0.8907  -15.7811  -42.0360 C.2       5 UNK         0.5000 
     46 O           0.0957  -16.5121  -42.6330 O.2       5 UNK        -0.5000 
     47 CA          0.9446  -14.2816  -42.3556 C.3       5 UNK         0.1400 
     48 CB          1.9371  -14.0270  -43.5024 C.3       5 UNK        -0.1800 
     49 N          -0.3682  -13.8072  -42.7751 N.am      5 UNK        -0.5000 
     50 C          -1.2407  -13.1271  -42.0252 C.2       4 UNK         0.5000 
     51 O          -1.0313  -12.8188  -40.8503 O.2       4 UNK        -0.5000 
     52 CA         -2.5464  -12.6869  -42.7313 C.3       4 UNK         0.1400 
     53 CB         -3.4276  -11.7860  -41.8469 C.3       4 UNK        -0.1800 
     54 N          -2.2734  -11.9872  -43.9929 N.am      4 UNK        -0.5000 
     55 C          -1.9227  -12.5834  -45.1385 C.2       3 UNK         0.5000 
     56 O          -1.8833  -13.8110  -45.2718 O.2       3 UNK        -0.5000 
     57 CA         -1.4822  -11.6756  -46.2990 C.3       3 UNK         0.1400 
     58 CB         -0.2479  -10.8375  -45.8997 C.3       3 UNK        -0.1800 
     59 N          -1.1617  -12.5511  -47.4197 N.am      3 UNK        -0.5000 
     60 C          -0.8295  -12.2096  -48.6656 C.2       2 UNK         0.5000 
     61 O          -0.8014  -11.0520  -49.0886 O.2       2 UNK        -0.5000 
     62 CA         -0.4639  -13.3799  -49.5975 C.3       2 UNK         0.1400 
     63 CB         -1.3921  -13.4261  -50.8197 C.3       2 UNK        -0.1800 
     64 N           0.9253  -13.3191  -50.0507 N.am      2 UNK        -0.5000 
     65 C           2.0072  -13.3672  -49.2574 C.2       1 UNK         0.5000 
     66 O           1.9548  -13.4303  -48.0289 O.2       1 UNK        -0.5000 
     67 C          -0.7746  -23.2318  -47.6165 C.2       11 UNK         0.5000 
     68 O          -1.0247  -24.2636  -48.2373 O.2       11 UNK        -0.5000 
     69 N          -1.7200  -22.3989  -47.1566 N.am      12 UNK        -0.5000 
     70 CA         -3.1572  -22.6169  -47.3163 C.3       12 UNK         0.1400 
     71 CB         -3.9347  -21.3934  -46.8124 C.3       12 UNK        -0.1800 
     72 C          -3.6510  -23.9032  -46.6336 C.2       12 UNK         0.5000 
     73 O          -4.4483  -24.6242  -47.2306 O.2       12 UNK        -0.5000 
     74 N          -3.1482  -24.1960  -45.4271 N.am      13 UNK        -0.5000 
     75 CA         -3.4324  -25.4317  -44.6968 C.3       13 UNK         0.1400 
     76 CB         -2.8546  -25.3430  -43.2762 C.3       13 UNK        -0.1800 
     77 C          -2.9113  -26.6835  -45.4265 C.2       13 UNK         0.5000 
     78 O          -3.6448  -27.6662  -45.5383 O.2       13 UNK        -0.5000 
     79 N          -1.6744  -26.6138  -45.9388 N.am      14 UNK        -0.5000 
     80 CA         -1.0341  -27.6803  -46.7111 C.3       14 UNK         0.1400 
     81 CB          0.4548  -27.3507  -46.8984 C.3       14 UNK        -0.1800 
     82 C          -1.7119  -27.9289  -48.0719 C.2       14 UNK         0.5000 
     83 O          -1.8889  -29.0833  -48.4627 O.2       14 UNK        -0.5000 
     84 N          -2.0897  -26.8443  -48.7602 N.am      15 UNK        -0.5000 
     85 CA         -2.7475  -26.8656  -50.0673 C.3       15 UNK         0.1400 
     86 CB         -2.5364  -25.5008  -50.7422 C.3       15 UNK        -0.1800 
     87 C          -4.2517  -27.1948  -50.0041 C.2       15 UNK         0.5000 
     88 O          -4.8527  -27.4142  -51.0549 O.2       15 UNK        -0.5000 
     89 N          -4.8427  -27.1832  -48.8000 N.am      16 UNK        -0.5000 
     90 CA         -6.2776  -27.3118  -48.5186 C.3       16 UNK         0.1400 
     91 CB         -6.7983  -28.7151  -48.8932 C.3       16 UNK        -0.1800 
     92 C          -7.0838  -26.1625  -49.1616 C.2       16 UNK         0.5000 
     93 O          -8.0498  -26.3973  -49.8886 O.2       16 UNK        -0.5000 
     94 N          -6.6186  -24.9340  -48.8968 N.am      17 UNK        -0.5000 
     95 CA         -7.1087  -23.6281  -49.3523 C.3       17 UNK         0.1400 
     96 CB         -8.5943  -23.4225  -48.9950 C.3       17 UNK        -0.1800 
     97 C          -6.8230  -23.3040  -50.8331 C.2       17 UNK         0.5000 
     98 O          -7.0908  -22.1780  -51.2546 O.2       17 UNK        -0.5000 
     99 N          -6.2482  -24.2481  -51.5931 N.am      18 UNK        -0.5000 
    100 CA        -5.9574  -24.1052  -53.0247 C.3       18 UNK         0.1400 
    101 CB        -5.6649  -25.4885  -53.6251 C.3       18 UNK        -0.1800 
    102 C         -4.8191  -23.1158  -53.3518 C.2       18 UNK         0.5000 
    103 O         -4.6741  -22.7389  -54.5153 O.2       18 UNK        -0.5000 
    104 N         -4.0418  -22.7039  -52.3378 N.am      19 UNK        -0.5000 
    105 CA        -3.0070  -21.6704  -52.4434 C.3       19 UNK         0.1400 
    106 CB        -2.2110  -21.6044  -51.1289 C.3       19 UNK        -0.1800 
    107 C         -3.5897  -20.2861  -52.7935 C.2       19 UNK         0.5000 
    108 O         -2.9859  -19.5599  -53.5839 O.2       19 UNK        -0.5000 
    109 N         -4.7682  -19.9824  -52.2241 N.am      20 UNK        -0.5000 
    110 CA        -5.5791  -18.7758  -52.4186 C.3       20 UNK         0.1400 
    111 CB        -6.1344  -18.7502  -53.8600 C.3       20 UNK        -0.1800 
    112 C         -4.8581  -17.4606  -52.0403 C.2       20 UNK         0.5000 
    113 O         -3.7911  -17.4768  -51.4216 O.2       20 UNK        -0.5000 
    114 N         -5.4670  -16.3273  -52.4099 N.am      21 UNK        -0.5000 
    115 CA        -4.8869  -14.9907  -52.3018 C.3       21 UNK         0.1400 
    116 CB        -6.0214  -13.9639  -52.1377 C.3       21 UNK        -0.1800 
    117 C         -4.0194  -14.7245  -53.5457 C.2       21 UNK         0.5000 
    118 O         -4.4538  -14.0359  -54.4701 O.2       21 UNK        -0.5000 
    119 N         -2.8315  -15.3383  -53.5685 N.am      22 UNK        -0.5000 
    120 CA        -1.8985  -15.3567  -54.7076 C.3       22 UNK         0.1400 
    121 C         -1.2088  -14.0056  -55.0747 C.2       22 UNK         0.5000 
    122 N         -1.4018  -12.9273  -54.3263 N.am      22 UNK        -0.7600 
    123 O         -0.4960  -13.9314  -56.0721 O.2       22 UNK        -0.5000 
    124 C124       -0.8889  -16.5270  -54.5827 C.3       23 UNK        -0.0398 
    125 S125        0.3141  -16.3554  -53.2154 S.3       23 UNK        -0.2404 
    126 C126       -0.3503  -17.4894  -51.9554 C.3       23 UNK        -0.0205 
    127 H127        3.3004  -11.0992  -53.2780 H         1 UNK         0.0600 
    128 H128        4.1182   -9.7316  -52.5170 H         1 UNK         0.0600 
    129 H129        2.3535   -9.8208  -52.5123 H         1 UNK         0.0600 
    130 H130        3.4157  -12.9408  -52.0373 H         1 UNK         0.3000 
    131 H131        4.1070  -12.9420  -49.2564 H         1 UNK         0.0600 
    132 H132        4.6671  -14.7165  -51.0483 H         1 UNK         0.0800 
    133 H133        3.0650  -15.3304  -50.8773 H         1 UNK         0.0800 
    134 H134        3.3544  -17.2289  -47.4219 H         1 UNK         0.0800 
    135 H135        2.3075  -15.9416  -47.9248 H         1 UNK         0.0800 
    136 H136        0.9472  -16.1510  -49.9766 H         1 UNK         0.1150 
    137 H137        0.8172  -19.9569  -51.9365 H         1 UNK         0.1150 
    138 H138        3.6775  -19.2469  -48.8226 H         1 UNK         0.1150 
    139 H139        2.9994  -21.4116  -51.5541 H         1 UNK         0.0800 
    140 H140        3.7017  -21.3437  -49.9559 H         1 UNK         0.0800 
    141 H141        0.6315  -20.9116  -48.2105 H         1 UNK         0.0800 
    142 H142        2.2348  -21.4761  -47.8192 H         1 UNK         0.0800 
    143 H143        1.2755  -23.8031  -47.4389 H         1 UNK         0.0600 
    144 H144        1.1534  -21.6092  -45.6524 H         1 UNK         0.3000 
    145 H145        0.2071  -23.5162  -42.7516 H         1 UNK         0.0600 
    146 H146        2.2770  -22.4401  -41.9476 H         1 UNK         0.0600 
    147 H147        2.6846  -23.7159  -43.0843 H         1 UNK         0.0600 
    148 H148        2.7528  -22.0326  -43.5950 H         1 UNK         0.0600 
    149 H149        0.6999  -20.7451  -43.0340 H         1 UNK         0.3000 
    150 H150       -2.6821  -19.7628  -43.8214 H         1 UNK         0.0600 
    151 H151       -2.4661  -19.9964  -41.3514 H         1 UNK         0.0600 
    152 H152       -2.1728  -18.3370  -41.8525 H         1 UNK         0.0600 
    153 H153       -0.8205  -19.3789  -41.4174 H         1 UNK         0.0600 
    154 H154       -0.3661  -18.1710  -43.5875 H         1 UNK         0.3000 
    155 H155        0.7016  -18.3113  -47.0100 H         1 UNK         0.0600 
    156 H156       -1.0483  -16.5773  -46.8369 H         1 UNK         0.0600 
    157 H157       -0.5680  -16.1915  -45.1927 H         1 UNK         0.0600 
    158 H158        0.5147  -15.8389  -46.5311 H         1 UNK         0.0600 
    159 H159        1.7439  -17.0776  -44.6263 H         1 UNK         0.3000 
    160 H160        4.0328  -19.6778  -43.7715 H         1 UNK         0.0600 
    161 H161        4.4455  -16.8876  -44.9822 H         1 UNK         0.0600 
    162 H162        5.1153  -18.3835  -45.6217 H         1 UNK         0.0600 
    163 H163        5.6278  -17.8016  -44.0459 H         1 UNK         0.0600 
    164 H164        3.5576  -17.0845  -42.6730 H         1 UNK         0.3000 
    165 H165        0.9745  -17.9831  -40.3944 H         1 UNK         0.0600 
    166 H166        2.6223  -17.1606  -38.7389 H         1 UNK         0.0600 
    167 H167        3.0703  -18.7691  -39.2824 H         1 UNK         0.0600 
    168 H168        3.9369  -17.3665  -39.8971 H         1 UNK         0.0600 
    169 H169        2.4146  -15.5671  -40.7088 H         1 UNK         0.3000 
    170 H170        1.2800  -13.7378  -41.4700 H         1 UNK         0.0600 
    171 H171        1.6456  -14.5493  -44.4148 H         1 UNK         0.0600 
    172 H172        2.0005  -12.9640  -43.7364 H         1 UNK         0.0600 
    173 H173        2.9413  -14.3600  -43.2377 H         1 UNK         0.0600 
    174 H174       -0.6644  -14.0718  -43.7087 H         1 UNK         0.3000 
    175 H175       -3.1146  -13.5947  -42.9454 H         1 UNK         0.0600 
    176 H176       -4.3580  -11.5267  -42.3525 H         1 UNK         0.0600 
    177 H177       -2.9187  -10.8580  -41.5836 H         1 UNK         0.0600 
    178 H178       -3.6959  -12.2903  -40.9177 H         1 UNK         0.0600 
    179 H179       -2.2534  -10.9789  -43.9435 H         1 UNK         0.3000 
    180 H180       -2.3130  -11.0238  -46.5745 H         1 UNK         0.0600 
    181 H181        0.0799  -10.1897  -46.7122 H         1 UNK         0.0600 
    182 H182        0.5938  -11.4749  -45.6245 H         1 UNK         0.0600 
    183 H183       -0.4616  -10.1893  -45.0496 H         1 UNK         0.0600 
    184 H184       -1.1849  -13.5293  -47.1541 H         1 UNK         0.3000 
    185 H185       -0.5872  -14.3176  -49.0510 H         1 UNK         0.0600 
    186 H186       -2.4361  -13.4944  -50.5128 H         1 UNK         0.0600 
    187 H187       -1.2872  -12.5311  -51.4335 H         1 UNK         0.0600 
    188 H188       -1.1759  -14.2924  -51.4439 H         1 UNK         0.0600 
    189 H189        1.0666  -13.2152  -51.0441 H         1 UNK         0.3000 
    190 H190       -1.4423  -21.5481  -46.6716 H         1 UNK         0.3000 
    191 H191       -3.3554  -22.7242  -48.3841 H         1 UNK         0.0600 
    192 H192       -3.6579  -20.4966  -47.3671 H         1 UNK         0.0600 
    193 H193       -5.0094  -21.5335  -46.9347 H         1 UNK         0.0600 
    194 H194       -3.7447  -21.2042  -45.7555 H         1 UNK         0.0600 
    195 H195       -2.5422  -23.5216  -44.9672 H         1 UNK         0.3000 
    196 H196       -4.5171  -25.5255  -44.6132 H         1 UNK         0.0600 
    197 H197       -3.0647  -26.2519  -42.7111 H         1 UNK         0.0600 
    198 H198       -3.2913  -24.5096  -42.7257 H         1 UNK         0.0600 
    199 H199       -1.7733  -25.2050  -43.2874 H         1 UNK         0.0600 
    200 H200       -1.1221  -25.7770  -45.7750 H         1 UNK         0.3000 
    201 H201       -1.1057  -28.6030  -46.1316 H         1 UNK         0.0600 
    202 H202        0.9605  -27.2550  -45.9374 H         1 UNK         0.0600 
    203 H203        0.5951  -26.4162  -47.4429 H         1 UNK         0.0600 
    204 H204        0.9630  -28.1374  -47.4573 H         1 UNK         0.0600 
    205 H205       -1.8432  -25.9254  -48.3973 H         1 UNK         0.3000 
    206 H206       -2.2706  -27.6288  -50.6855 H         1 UNK         0.0600 
    207 H207       -2.9442  -25.4911  -51.7526 H         1 UNK         0.0600 
    208 H208       -3.0197  -24.7005  -50.1809 H         1 UNK         0.0600 
    209 H209       -1.4763  -25.2597  -50.8229 H         1 UNK         0.0600 
    210 H210       -4.2638  -26.9489  -48.0042 H         1 UNK         0.3000 
    211 H211       -6.3878  -27.1988  -47.4389 H         1 UNK         0.0600 
    212 H212       -6.7681  -28.8907  -49.9688 H         1 UNK         0.0600 
    213 H213       -7.8327  -28.8430  -48.5723 H         1 UNK         0.0600 
    214 H214       -6.2094  -29.4944  -48.4097 H         1 UNK         0.0600 
    215 H215       -5.7980  -24.8806  -48.2912 H         1 UNK         0.3000 
    216 H216       -6.5376  -22.8963  -48.7793 H         1 UNK         0.0600 
    217 H217       -8.9014  -22.3933  -49.1841 H         1 UNK         0.0600 
    218 H218       -8.7786  -23.6260  -47.9401 H         1 UNK         0.0600 
    219 H219       -9.2485  -24.0668  -49.5825 H         1 UNK         0.0600 
    220 H220       -6.0695  -25.1549  -51.1836 H         1 UNK         0.3000 
    221 H221       -6.8591  -23.7198  -53.5051 H         1 UNK         0.0600 
    222 H222       -4.7324  -25.9049  -53.2460 H         1 UNK         0.0600 
    223 H223       -6.4642  -26.1957  -53.4025 H         1 UNK         0.0600 
    224 H224       -5.5759  -25.4308  -54.7106 H         1 UNK         0.0600 
    225 H225       -4.2271  -23.0757  -51.4197 H         1 UNK         0.3000 
    226 H226       -2.3228  -21.9587  -53.2441 H         1 UNK         0.0600 
    227 H227       -1.7418  -22.5605  -50.8962 H         1 UNK         0.0600 
    228 H228       -1.4138  -20.8632  -51.1939 H         1 UNK         0.0600 
    229 H229       -2.8440  -21.3240  -50.2868 H         1 UNK         0.0600 
    230 H230       -5.1784  -20.6723  -51.6102 H         1 UNK         0.3000 
    231 H231       -6.4238  -18.8714  -51.7349 H         1 UNK         0.0600 
    232 H232       -5.3535  -18.5313  -54.5894 H         1 UNK         0.0600 
    233 H233       -6.9163  -17.9997  -53.9778 H         1 UNK         0.0600 
    234 H234       -6.5765  -19.7107  -54.1261 H         1 UNK         0.0600 
    235 H235       -6.3323  -16.3912  -52.9264 H         1 UNK         0.3000 
    236 H236       -4.2500  -14.9290  -51.4170 H         1 UNK         0.0600 
    237 H237       -6.5901  -14.1504  -51.2265 H         1 UNK         0.0600 
    238 H238       -5.6227  -12.9509  -52.0697 H         1 UNK         0.0600 
    239 H239       -6.7181  -13.9883  -52.9766 H         1 UNK         0.0600 
    240 H240       -2.5798  -15.9233  -52.7836 H         1 UNK         0.3000 
    241 H241       -2.5116  -15.5853  -55.5815 H         1 UNK         0.0600 
    242 H242       -2.0210  -12.9618  -53.5347 H         1 UNK         0.3800 
    243 H243       -0.9592  -12.0599  -54.5852 H         1 UNK         0.3800 
    244 H244       -1.4297  -17.4684  -54.4815 H         1 UNK         0.0800 
    245 H245       -0.3219  -16.6272  -55.5096 H         1 UNK         0.0800 
    246 H246       -0.8547  -18.3313  -52.4307 H         1 UNK         0.0800 
    247 H247       -1.1029  -16.9737  -51.3581 H         1 UNK         0.0800 
@<TRIPOS>BOND
     1    1    2 1    
     2    1  127 1    
     3    1  128 1    
     4    1  129 1    
     5    2    3 2    
     6    2    4 am   BACKBONE|DICT|INTERRES
     7    4    5 1    
     8    4  130 1    
     9    5    6 1    
    10    5   65 1    
    11    5  131 1    
    12    6    7 1    
    13    6  132 1    
    14    6  133 1    
    15    7    8 1    
    16    8    9 1    
    17    8  134 1    
    18    8  135 1    
    19    9   10 ar   
    20    9   14 ar   
    21   10   11 ar   
    22   10  136 1    
    23   11   12 ar   
    24   11  126 1    
    25   12   13 ar   
    26   12  137 1    
    27   13   14 ar   
    28   13   15 1    
    29   14  138 1    
    30   15   16 1    
    31   15  139 1    
    32   15  140 1    
    33   16   17 1    
    34   17   18 1    
    35   17  141 1    
    36   17  142 1    
    37   18   19 1    
    38   18   67 1    
    39   18  143 1    
    40   19   20 am   BACKBONE|DICT|INTERRES
    41   19  144 1    
    42   20   21 2    
    43   20   22 1    
    44   22   23 1    
    45   22   24 1    
    46   22  145 1    
    47   23  146 1    
    48   23  147 1    
    49   23  148 1    
    50   24   25 am   BACKBONE|DICT|INTERRES
    51   24  149 1    
    52   25   26 2    
    53   25   27 1    
    54   27   28 1    
    55   27   29 1    
    56   27  150 1    
    57   28  151 1    
    58   28  152 1    
    59   28  153 1    
    60   29   30 am   BACKBONE|DICT|INTERRES
    61   29  154 1    
    62   30   31 2    
    63   30   32 1    
    64   32   33 1    
    65   32   34 1    
    66   32  155 1    
    67   33  156 1    
    68   33  157 1    
    69   33  158 1    
    70   34   35 am   BACKBONE|DICT|INTERRES
    71   34  159 1    
    72   35   36 2    
    73   35   37 1    
    74   37   38 1    
    75   37   39 1    
    76   37  160 1    
    77   38  161 1    
    78   38  162 1    
    79   38  163 1    
    80   39   40 am   BACKBONE|DICT|INTERRES
    81   39  164 1    
    82   40   41 2    
    83   40   42 1    
    84   42   43 1    
    85   42   44 1    
    86   42  165 1    
    87   43  166 1    
    88   43  167 1    
    89   43  168 1    
    90   44   45 am   BACKBONE|DICT|INTERRES
    91   44  169 1    
    92   45   46 2    
    93   45   47 1    
    94   47   48 1    
    95   47   49 1    
    96   47  170 1    
    97   48  171 1    
    98   48  172 1    
    99   48  173 1    
   100   49   50 am   BACKBONE|DICT|INTERRES
   101   49  174 1    
   102   50   51 2    
   103   50   52 1    
   104   52   53 1    
   105   52   54 1    
   106   52  175 1    
   107   53  176 1    
   108   53  177 1    
   109   53  178 1    
   110   54   55 am   BACKBONE|DICT|INTERRES
   111   54  179 1    
   112   55   56 2    
   113   55   57 1    
   114   57   58 1    
   115   57   59 1    
   116   57  180 1    
   117   58  181 1    
   118   58  182 1    
   119   58  183 1    
   120   59   60 am   BACKBONE|DICT|INTERRES
   121   59  184 1    
   122   60   61 2    
   123   60   62 1    
   124   62   63 1    
   125   62   64 1    
   126   62  185 1    
   127   63  186 1    
   128   63  187 1    
   129   63  188 1    
   130   64   65 am   BACKBONE|DICT|INTERRES
   131   64  189 1    
   132   65   66 2    
   133   67   68 2    
   134   67   69 am   BACKBONE|DICT|INTERRES
   135   69   70 1    
   136   69  190 1    
   137   70   71 1    
   138   70   72 1    
   139   70  191 1    
   140   71  192 1    
   141   71  193 1    
   142   71  194 1    
   143   72   73 2    
   144   72   74 am   BACKBONE|DICT|INTERRES
   145   74   75 1    
   146   74  195 1    
   147   75   76 1    
   148   75   77 1    
   149   75  196 1    
   150   76  197 1    
   151   76  198 1    
   152   76  199 1    
   153   77   78 2    
   154   77   79 am   BACKBONE|DICT|INTERRES
   155   79   80 1    
   156   79  200 1    
   157   80   81 1    
   158   80   82 1    
   159   80  201 1    
   160   81  202 1    
   161   81  203 1    
   162   81  204 1    
   163   82   83 2    
   164   82   84 am   BACKBONE|DICT|INTERRES
   165   84   85 1    
   166   84  205 1    
   167   85   86 1    
   168   85   87 1    
   169   85  206 1    
   170   86  207 1    
   171   86  208 1    
   172   86  209 1    
   173   87   88 2    
   174   87   89 am   BACKBONE|DICT|INTERRES
   175   89   90 1    
   176   89  210 1    
   177   90   91 1    
   178   90   92 1    
   179   90  211 1    
   180   91  212 1    
   181   91  213 1    
   182   91  214 1    
   183   92   93 2    
   184   92   94 am   BACKBONE|DICT|INTERRES
   185   94   95 1    
   186   94  215 1    
   187   95   96 1    
   188   95   97 1    
   189   95  216 1    
   190   96  217 1    
   191   96  218 1    
   192   96  219 1    
   193   97   98 2    
   194   97   99 am   BACKBONE|DICT|INTERRES
   195   99  100 1    
   196   99  220 1    
   197  100  101 1    
   198  100  102 1    
   199  100  221 1    
   200  101  222 1    
   201  101  223 1    
   202  101  224 1    
   203  102  103 2    
   204  102  104 am   BACKBONE|DICT|INTERRES
   205  104  105 1    
   206  104  225 1    
   207  105  106 1    
   208  105  107 1    
   209  105  226 1    
   210  106  227 1    
   211  106  228 1    
   212  106  229 1    
   213  107  108 2    
   214  107  109 am   BACKBONE|DICT|INTERRES
   215  109  110 1    
   216  109  230 1    
   217  110  111 1    
   218  110  112 1    
   219  110  231 1    
   220  111  232 1    
   221  111  233 1    
   222  111  234 1    
   223  112  113 2    
   224  112  114 am   BACKBONE|DICT|INTERRES
   225  114  115 1    
   226  114  235 1    
   227  115  116 1    
   228  115  117 1    
   229  115  236 1    
   230  116  237 1    
   231  116  238 1    
   232  116  239 1    
   233  117  118 2    
   234  117  119 am   BACKBONE|DICT|INTERRES
   235  119  120 1    
   236  119  240 1    
   237  120  121 1    
   238  120  124 1    
   239  120  241 1    
   240  121  122 am   BACKBONE|DICT|INTERRES
   241  121  123 2    
   242  122  242 1    
   243  122  243 1    
   244  124  125 1    
   245  124  244 1    
   246  124  245 1    
   247  125  126 1    
   248  126  246 1    
   249  126  247 1    
@<TRIPOS>SUBSTRUCTURE
     1 UNK         1 GROUP             0       ****    0 ROOT    
