@<TRIPOS>MOLECULE
3R540
247   249    1
SMALL
USER_CHARGES


@<TRIPOS>ATOM
      1 CA         -0.0679  -14.9416  -46.5753 C.3       0 UNK        -0.1800 
      2 C          -1.4253  -14.2597  -46.5422 C.2       0 UNK         0.5000 
      3 O          -2.2165  -14.5022  -45.6324 O.2       0 UNK        -0.5000 
      4 N          -1.6885  -13.3946  -47.5294 N.am      1 UNK        -0.5000 
      5 CA         -2.9247  -12.6057  -47.6546 C.3       1 UNK         0.1400 
      6 C6         -3.1591  -12.1318  -49.1120 C.3       23 UNK        -0.0398 
      7 S7         -3.3984  -13.5292  -50.2670 S.3       23 UNK        -0.2404 
      8 C8         -1.7241  -13.7330  -50.9652 C.3       23 UNK        -0.0205 
      9 C9         -1.3208  -15.1970  -51.1023 C.ar      23 UNK        -0.0193 
     10 C10        -0.8252  -15.6850  -52.3147 C.ar      23 UNK        -0.1150 
     11 C11        -0.4105  -17.0162  -52.4327 C.ar      23 UNK        -0.0193 
     12 C12        -0.5042  -17.8686  -51.3276 C.ar      23 UNK        -0.1150 
     13 C13        -0.9963  -17.3913  -50.1090 C.ar      23 UNK        -0.0193 
     14 C14        -1.3983  -16.0584  -50.0047 C.ar      23 UNK        -0.1150 
     15 C15        -1.1039  -18.3003  -48.8969 C.3       23 UNK        -0.0205 
     16 S16        -2.7200  -19.1224  -48.8614 S.3       23 UNK        -0.2404 
     17 C17        -2.8703  -19.6238  -47.1193 C.3       23 UNK        -0.0398 
     18 CA         -2.6102  -21.1414  -46.9278 C.3       11 UNK         0.1400 
     19 N          -1.3104  -21.4104  -46.3109 N.am      11 UNK        -0.5000 
     20 C          -0.7403  -22.6181  -46.2196 C.2       10 UNK         0.5000 
     21 O          -1.2048  -23.6285  -46.7470 O.2       10 UNK        -0.5000 
     22 CA          0.5441  -22.7255  -45.3778 C.3       10 UNK         0.1400 
     23 CB          1.7815  -22.4153  -46.2312 C.3       10 UNK        -0.1800 
     24 N           0.5197  -21.8603  -44.1956 N.am      10 UNK        -0.5000 
     25 C          -0.3417  -22.0067  -43.1777 C.2       9 UNK         0.5000 
     26 O          -1.1658  -22.9181  -43.1116 O.2       9 UNK        -0.5000 
     27 CA         -0.3201  -20.9324  -42.0756 C.3       9 UNK         0.1400 
     28 CB          0.8186  -21.1930  -41.0788 C.3       9 UNK        -0.1800 
     29 N          -0.2099  -19.5752  -42.6104 N.am      9 UNK        -0.5000 
     30 C          -1.1234  -18.9859  -43.3956 C.2       8 UNK         0.5000 
     31 O          -2.1905  -19.5092  -43.7168 O.2       8 UNK        -0.5000 
     32 CA         -0.7513  -17.6087  -43.9753 C.3       8 UNK         0.1400 
     33 CB         -0.9702  -16.4941  -42.9424 C.3       8 UNK        -0.1800 
     34 N           0.6276  -17.5686  -44.4639 N.am      8 UNK        -0.5000 
     35 C           1.1041  -18.3339  -45.4565 C.2       7 UNK         0.5000 
     36 O           0.4167  -19.1259  -46.0981 O.2       7 UNK        -0.5000 
     37 CA          2.6091  -18.2347  -45.7486 C.3       7 UNK         0.1400 
     38 CB          2.9215  -17.0306  -46.6500 C.3       7 UNK        -0.1800 
     39 N           3.3914  -18.1557  -44.5156 N.am      7 UNK        -0.5000 
     40 C           3.5384  -19.1727  -43.6542 C.2       6 UNK         0.5000 
     41 O           3.0733  -20.2976  -43.8390 O.2       6 UNK        -0.5000 
     42 CA          4.2944  -18.8658  -42.3483 C.3       6 UNK         0.1400 
     43 CB          5.8121  -18.9555  -42.5663 C.3       6 UNK        -0.1800 
     44 N           3.9590  -17.5490  -41.8028 N.am      6 UNK        -0.5000 
     45 C           2.7543  -17.2160  -41.3172 C.2       5 UNK         0.5000 
     46 O           1.8111  -18.0017  -41.2381 O.2       5 UNK        -0.5000 
     47 CA          2.5556  -15.7469  -40.8951 C.3       5 UNK         0.1400 
     48 CB          2.9640  -15.5481  -39.4281 C.3       5 UNK        -0.1800 
     49 N           3.2860  -14.7934  -41.7371 N.am      5 UNK        -0.5000 
     50 C           3.0858  -14.6328  -43.0515 C.2       4 UNK         0.5000 
     51 O           2.2576  -15.2782  -43.6966 O.2       4 UNK        -0.5000 
     52 CA          4.0022  -13.6214  -43.7622 C.3       4 UNK         0.1400 
     53 CB          5.4132  -14.2127  -43.9149 C.3       4 UNK        -0.1800 
     54 N           3.5055  -13.2884  -45.0997 N.am      4 UNK        -0.5000 
     55 C           2.5702  -12.3921  -45.4407 C.2       3 UNK         0.5000 
     56 O           2.1861  -12.2886  -46.6084 O.2       3 UNK        -0.5000 
     57 CA          1.9688  -11.4447  -44.3822 C.3       3 UNK         0.1400 
     58 CB          2.8967  -10.2448  -44.1085 C.3       3 UNK        -0.1800 
     59 N           0.7006  -10.9532  -44.9086 N.am      3 UNK        -0.5000 
     60 C          -0.3385  -10.4935  -44.2011 C.2       2 UNK         0.5000 
     61 O          -0.3406  -10.3879  -42.9745 O.2       2 UNK        -0.5000 
     62 CA         -1.5983  -10.1267  -45.0023 C.3       2 UNK         0.1400 
     63 CB         -1.5047   -8.7001  -45.5717 C.3       2 UNK        -0.1800 
     64 N          -1.7945  -11.0979  -46.0758 N.am      2 UNK        -0.5000 
     65 C          -2.9526  -11.4142  -46.6666 C.2       1 UNK         0.5000 
     66 O          -4.0129  -10.8262  -46.4489 O.2       1 UNK        -0.5000 
     67 C          -3.7532  -21.8188  -46.1475 C.2       11 UNK         0.5000 
     68 O          -4.5747  -22.4992  -46.7607 O.2       11 UNK        -0.5000 
     69 N          -3.7629  -21.6607  -44.8161 N.am      12 UNK        -0.5000 
     70 CA         -4.7411  -22.2687  -43.9083 C.3       12 UNK         0.1400 
     71 CB         -4.5269  -21.7253  -42.4877 C.3       12 UNK        -0.1800 
     72 C          -4.7041  -23.8097  -43.9167 C.2       12 UNK         0.5000 
     73 O          -5.7561  -24.4456  -43.8467 O.2       12 UNK        -0.5000 
     74 N          -3.4982  -24.3780  -44.0460 N.am      13 UNK        -0.5000 
     75 CA         -3.2531  -25.8118  -44.2135 C.3       13 UNK         0.1400 
     76 CB         -1.7786  -26.0945  -43.8824 C.3       13 UNK        -0.1800 
     77 C          -3.5889  -26.3382  -45.6256 C.2       13 UNK         0.5000 
     78 O          -3.5891  -27.5535  -45.8237 O.2       13 UNK        -0.5000 
     79 N          -3.8278  -25.4268  -46.5818 N.am      14 UNK        -0.5000 
     80 CA         -4.0500  -25.6522  -48.0151 C.3       14 UNK         0.1400 
     81 CB         -5.3185  -26.4917  -48.2659 C.3       14 UNK        -0.1800 
     82 C          -2.8126  -26.1989  -48.7603 C.2       14 UNK         0.5000 
     83 O          -2.9372  -26.6603  -49.8953 O.2       14 UNK        -0.5000 
     84 N          -1.6295  -26.0857  -48.1418 N.am      15 UNK        -0.5000 
     85 CA         -0.3290  -26.4119  -48.7267 C.3       15 UNK         0.1400 
     86 CB          0.7197  -26.4971  -47.6072 C.3       15 UNK        -0.1800 
     87 C           0.0867  -25.3781  -49.7883 C.2       15 UNK         0.5000 
     88 O           0.6822  -25.7467  -50.8001 O.2       15 UNK        -0.5000 
     89 N          -0.2942  -24.1133  -49.5612 N.am      16 UNK        -0.5000 
     90 CA         -0.1692  -23.0041  -50.5096 C.3       16 UNK         0.1400 
     91 CB          0.2714  -21.7432  -49.7503 C.3       16 UNK        -0.1800 
     92 C          -1.4783  -22.7862  -51.3001 C.2       16 UNK         0.5000 
     93 O          -1.7687  -21.6637  -51.7150 O.2       16 UNK        -0.5000 
     94 N          -2.2654  -23.8610  -51.4692 N.am      17 UNK        -0.5000 
     95 CA         -3.4962  -23.9711  -52.2645 C.3       17 UNK         0.1400 
     96 CB         -3.1716  -23.7898  -53.7610 C.3       17 UNK        -0.1800 
     97 C          -4.6507  -23.0476  -51.8187 C.2       17 UNK         0.5000 
     98 O          -5.5963  -22.8524  -52.5820 O.2       17 UNK        -0.5000 
     99 N          -4.5496  -22.4698  -50.6115 N.am      18 UNK        -0.5000 
    100 CA        -5.4533  -21.4599  -50.0442 C.3       18 UNK         0.1400 
    101 CB        -6.8097  -22.0945  -49.6755 C.3       18 UNK        -0.1800 
    102 C         -5.5896  -20.2051  -50.9401 C.2       18 UNK         0.5000 
    103 O         -6.6662  -19.6114  -51.0132 O.2       18 UNK        -0.5000 
    104 N         -4.4897  -19.8556  -51.6274 N.am      19 UNK        -0.5000 
    105 CA        -4.3220  -18.7588  -52.5877 C.3       19 UNK         0.1400 
    106 CB        -4.6396  -17.3908  -51.9496 C.3       19 UNK        -0.1800 
    107 C         -5.0582  -18.9641  -53.9321 C.2       19 UNK         0.5000 
    108 O         -4.9836  -18.0880  -54.7948 O.2       19 UNK        -0.5000 
    109 N         -5.7353  -20.1056  -54.1184 N.am      20 UNK        -0.5000 
    110 CA        -6.4603  -20.4566  -55.3358 C.3       20 UNK         0.1400 
    111 CB        -7.7021  -21.2831  -54.9596 C.3       20 UNK        -0.1800 
    112 C         -5.5193  -21.2235  -56.2773 C.2       20 UNK         0.5000 
    113 O         -5.3264  -22.4263  -56.0977 O.2       20 UNK        -0.5000 
    114 N         -4.9286  -20.5022  -57.2417 N.am      21 UNK        -0.5000 
    115 CA        -3.9251  -20.9806  -58.2045 C.3       21 UNK         0.1400 
    116 CB        -4.5272  -22.0264  -59.1671 C.3       21 UNK        -0.1800 
    117 C         -2.6350  -21.4620  -57.5052 C.2       21 UNK         0.5000 
    118 O         -2.1084  -22.5326  -57.8129 O.2       21 UNK        -0.5000 
    119 N         -2.1679  -20.6464  -56.5540 N.am      22 UNK        -0.5000 
    120 CA        -0.9913  -20.8826  -55.7033 C.3       22 UNK         0.1400 
    121 C          0.3938  -20.7896  -56.4112 C.2       22 UNK         0.5000 
    122 N          0.4812  -20.3323  -57.6543 N.am      22 UNK        -0.7600 
    123 O          1.4086  -21.1511  -55.8220 O.2       22 UNK        -0.5000 
    124 C124       -1.0572  -19.9939  -54.4361 C.3       23 UNK        -0.0398 
    125 S125       -1.1419  -18.2051  -54.8191 S.3       23 UNK        -0.2404 
    126 C126        0.1585  -17.5159  -53.7518 C.3       23 UNK        -0.0205 
    127 H127        0.4589  -14.7700  -45.6375 H         1 UNK         0.0600 
    128 H128        0.5572  -14.5728  -47.3890 H         1 UNK         0.0600 
    129 H129       -0.1952  -16.0132  -46.7054 H         1 UNK         0.0600 
    130 H130       -0.9979  -13.2445  -48.2502 H         1 UNK         0.3000 
    131 H131       -3.7634  -13.2492  -47.3791 H         1 UNK         0.0600 
    132 H132       -4.0601  -11.5181  -49.1678 H         1 UNK         0.0800 
    133 H133       -2.3425  -11.4949  -49.4562 H         1 UNK         0.0800 
    134 H134       -0.9833  -13.2368  -50.3387 H         1 UNK         0.0800 
    135 H135       -1.6917  -13.2294  -51.9325 H         1 UNK         0.0800 
    136 H136       -0.7503  -15.0258  -53.1682 H         1 UNK         0.1150 
    137 H137       -0.1979  -18.9006  -51.4172 H         1 UNK         0.1150 
    138 H138       -1.7866  -15.6950  -49.0656 H         1 UNK         0.1150 
    139 H139       -0.3047  -19.0409  -48.8968 H         1 UNK         0.0800 
    140 H140       -0.9760  -17.7133  -47.9890 H         1 UNK         0.0800 
    141 H141       -3.8779  -19.3373  -46.8111 H         1 UNK         0.0800 
    142 H142       -2.2096  -19.0220  -46.4965 H         1 UNK         0.0800 
    143 H143       -2.5989  -21.6269  -47.9059 H         1 UNK         0.0600 
    144 H144       -0.8111  -20.6116  -45.9303 H         1 UNK         0.3000 
    145 H145        0.6245  -23.7578  -45.0319 H         1 UNK         0.0600 
    146 H146        2.6981  -22.5286  -45.6521 H         1 UNK         0.0600 
    147 H147        1.8481  -23.0954  -47.0812 H         1 UNK         0.0600 
    148 H148        1.7580  -21.3991  -46.6244 H         1 UNK         0.0600 
    149 H149        1.2028  -21.1111  -44.1607 H         1 UNK         0.3000 
    150 H150       -1.2649  -20.9973  -41.5325 H         1 UNK         0.0600 
    151 H151        0.7442  -22.1948  -40.6539 H         1 UNK         0.0600 
    152 H152        0.7857  -20.4851  -40.2504 H         1 UNK         0.0600 
    153 H153        1.7971  -21.1079  -41.5515 H         1 UNK         0.0600 
    154 H154        0.6195  -19.0502  -42.3479 H         1 UNK         0.3000 
    155 H155       -1.4084  -17.4121  -44.8245 H         1 UNK         0.0600 
    156 H156       -0.3751  -16.6509  -42.0438 H         1 UNK         0.0600 
    157 H157       -2.0165  -16.4488  -42.6384 H         1 UNK         0.0600 
    158 H158       -0.7084  -15.5184  -43.3524 H         1 UNK         0.0600 
    159 H159        1.2511  -16.8973  -44.0252 H         1 UNK         0.3000 
    160 H160        2.9040  -19.1400  -46.2834 H         1 UNK         0.0600 
    161 H161        3.9786  -17.0006  -46.9140 H         1 UNK         0.0600 
    162 H162        2.6695  -16.0853  -46.1707 H         1 UNK         0.0600 
    163 H163        2.3551  -17.0853  -47.5808 H         1 UNK         0.0600 
    164 H164        3.7534  -17.2486  -44.2639 H         1 UNK         0.3000 
    165 H165        4.0093  -19.6216  -41.6132 H         1 UNK         0.0600 
    166 H166        6.3534  -18.8161  -41.6303 H         1 UNK         0.0600 
    167 H167        6.0921  -19.9337  -42.9596 H         1 UNK         0.0600 
    168 H168        6.1646  -18.2038  -43.2737 H         1 UNK         0.0600 
    169 H169        4.6818  -16.8454  -41.8247 H         1 UNK         0.3000 
    170 H170        1.4916  -15.5198  -40.9844 H         1 UNK         0.0600 
    171 H171        2.4188  -16.2313  -38.7754 H         1 UNK         0.0600 
    172 H172        4.0289  -15.7295  -39.2773 H         1 UNK         0.0600 
    173 H173        2.7441  -14.5349  -39.0911 H         1 UNK         0.0600 
    174 H174        3.9898  -14.2364  -41.2738 H         1 UNK         0.3000 
    175 H175        4.0709  -12.7253  -43.1459 H         1 UNK         0.0600 
    176 H176        5.4051  -15.1338  -44.4996 H         1 UNK         0.0600 
    177 H177        6.0814  -13.5091  -44.4121 H         1 UNK         0.0600 
    178 H178        5.8564  -14.4429  -42.9453 H         1 UNK         0.0600 
    179 H179        3.8504  -13.8875  -45.8336 H         1 UNK         0.3000 
    180 H180        1.7805  -11.9986  -43.4611 H         1 UNK         0.0600 
    181 H181        3.0470   -9.6456  -45.0075 H         1 UNK         0.0600 
    182 H182        3.8808  -10.5601  -43.7637 H         1 UNK         0.0600 
    183 H183        2.4806   -9.5922  -43.3408 H         1 UNK         0.0600 
    184 H184        0.6526  -11.0011  -45.9183 H         1 UNK         0.3000 
    185 H185       -2.4490  -10.1798  -44.3192 H         1 UNK         0.0600 
    186 H186       -1.3322   -7.9737  -44.7766 H         1 UNK         0.0600 
    187 H187       -0.6875   -8.6058  -46.2879 H         1 UNK         0.0600 
    188 H188       -2.4272   -8.4143  -46.0772 H         1 UNK         0.0600 
    189 H189       -1.0051  -11.6930  -46.2782 H         1 UNK         0.3000 
    190 H190       -3.0699  -21.0488  -44.3914 H         1 UNK         0.3000 
    191 H191       -5.7344  -21.9622  -44.2425 H         1 UNK         0.0600 
    192 H192       -5.2703  -22.1284  -41.7990 H         1 UNK         0.0600 
    193 H193       -4.6152  -20.6390  -42.4634 H         1 UNK         0.0600 
    194 H194       -3.5429  -21.9891  -42.0998 H         1 UNK         0.0600 
    195 H195       -2.6769  -23.7807  -44.0051 H         1 UNK         0.3000 
    196 H196       -3.8764  -26.3573  -43.5021 H         1 UNK         0.0600 
    197 H197       -1.5562  -27.1602  -43.9503 H         1 UNK         0.0600 
    198 H198       -1.5339  -25.7766  -42.8687 H         1 UNK         0.0600 
    199 H199       -1.1075  -25.5746  -44.5669 H         1 UNK         0.0600 
    200 H200       -3.8172  -24.4513  -46.3086 H         1 UNK         0.3000 
    201 H201       -4.2314  -24.6645  -48.4403 H         1 UNK         0.0600 
    202 H202       -6.1756  -26.0766  -47.7355 H         1 UNK         0.0600 
    203 H203       -5.1924  -27.5262  -47.9462 H         1 UNK         0.0600 
    204 H204       -5.5726  -26.5079  -49.3264 H         1 UNK         0.0600 
    205 H205       -1.6110  -25.5933  -47.2565 H         1 UNK         0.3000 
    206 H206       -0.4000  -27.3881  -49.2108 H         1 UNK         0.0600 
    207 H207        0.4490  -27.2548  -46.8716 H         1 UNK         0.0600 
    208 H208        1.6973  -26.7673  -48.0085 H         1 UNK         0.0600 
    209 H209        0.8309  -25.5475  -47.0830 H         1 UNK         0.0600 
    210 H210       -0.7672  -23.9135  -48.6857 H         1 UNK         0.3000 
    211 H211        0.6055  -23.2314  -51.2443 H         1 UNK         0.0600 
    212 H212       -0.4917  -21.4116  -49.0489 H         1 UNK         0.0600 
    213 H213        0.4674  -20.9216  -50.4388 H         1 UNK         0.0600 
    214 H214        1.1905  -21.9180  -49.1921 H         1 UNK         0.0600 
    215 H215       -1.9487  -24.7316  -51.0641 H         1 UNK         0.3000 
    216 H216       -3.8547  -24.9917  -52.1234 H         1 UNK         0.0600 
    217 H217       -4.0190  -24.0824  -54.3815 H         1 UNK         0.0600 
    218 H218       -2.3244  -24.4047  -54.0643 H         1 UNK         0.0600 
    219 H219       -2.9389  -22.7517  -53.9999 H         1 UNK         0.0600 
    220 H220       -3.7173  -22.6657  -50.0769 H         1 UNK         0.3000 
    221 H221       -4.9924  -21.1182  -49.1177 H         1 UNK         0.0600 
    222 H222       -7.3605  -22.4177  -50.5592 H         1 UNK         0.0600 
    223 H223       -6.6732  -22.9607  -49.0276 H         1 UNK         0.0600 
    224 H224       -7.4395  -21.3857  -49.1371 H         1 UNK         0.0600 
    225 H225       -3.6620  -20.4265  -51.4956 H         1 UNK         0.3000 
    226 H226       -3.2592  -18.7451  -52.8207 H         1 UNK         0.0600 
    227 H227       -4.3315  -16.5757  -52.6055 H         1 UNK         0.0600 
    228 H228       -5.7046  -17.2665  -51.7544 H         1 UNK         0.0600 
    229 H229       -4.1052  -17.2604  -51.0085 H         1 UNK         0.0600 
    230 H230       -5.7094  -20.8191  -53.3992 H         1 UNK         0.3000 
    231 H231       -6.8098  -19.5532  -55.8403 H         1 UNK         0.0600 
    232 H232       -8.3707  -20.7143  -54.3133 H         1 UNK         0.0600 
    233 H233       -7.4384  -22.2030  -54.4369 H         1 UNK         0.0600 
    234 H234       -8.2671  -21.5623  -55.8496 H         1 UNK         0.0600 
    235 H235       -5.1330  -19.5127  -57.2825 H         1 UNK         0.3000 
    236 H236       -3.6394  -20.1154  -58.8046 H         1 UNK         0.0600 
    237 H237       -5.4273  -21.6456  -59.6496 H         1 UNK         0.0600 
    238 H238       -3.8192  -22.2807  -59.9566 H         1 UNK         0.0600 
    239 H239       -4.7876  -22.9526  -58.6543 H         1 UNK         0.0600 
    240 H240       -2.6552  -19.7790  -56.3813 H         1 UNK         0.3000 
    241 H241       -1.0601  -21.9178  -55.3639 H         1 UNK         0.0600 
    242 H242        1.3824  -20.2820  -58.1030 H         1 UNK         0.3800 
    243 H243       -0.3425  -20.0299  -58.1482 H         1 UNK         0.3800 
    244 H244       -1.9505  -20.2575  -53.8727 H         1 UNK         0.0800 
    245 H245       -0.2221  -20.2101  -53.7682 H         1 UNK         0.0800 
    246 H246        0.6342  -16.6887  -54.2807 H         1 UNK         0.0800 
    247 H247        0.9484  -18.2479  -53.5782 H         1 UNK         0.0800 
@<TRIPOS>BOND
     1    1    2 1    
     2    1  127 1    
     3    1  128 1    
     4    1  129 1    
     5    2    3 2    
     6    2    4 am   BACKBONE|DICT|INTERRES
     7    4    5 1    
     8    4  130 1    
     9    5    6 1    
    10    5   65 1    
    11    5  131 1    
    12    6    7 1    
    13    6  132 1    
    14    6  133 1    
    15    7    8 1    
    16    8    9 1    
    17    8  134 1    
    18    8  135 1    
    19    9   10 ar   
    20    9   14 ar   
    21   10   11 ar   
    22   10  136 1    
    23   11   12 ar   
    24   11  126 1    
    25   12   13 ar   
    26   12  137 1    
    27   13   14 ar   
    28   13   15 1    
    29   14  138 1    
    30   15   16 1    
    31   15  139 1    
    32   15  140 1    
    33   16   17 1    
    34   17   18 1    
    35   17  141 1    
    36   17  142 1    
    37   18   19 1    
    38   18   67 1    
    39   18  143 1    
    40   19   20 am   BACKBONE|DICT|INTERRES
    41   19  144 1    
    42   20   21 2    
    43   20   22 1    
    44   22   23 1    
    45   22   24 1    
    46   22  145 1    
    47   23  146 1    
    48   23  147 1    
    49   23  148 1    
    50   24   25 am   BACKBONE|DICT|INTERRES
    51   24  149 1    
    52   25   26 2    
    53   25   27 1    
    54   27   28 1    
    55   27   29 1    
    56   27  150 1    
    57   28  151 1    
    58   28  152 1    
    59   28  153 1    
    60   29   30 am   BACKBONE|DICT|INTERRES
    61   29  154 1    
    62   30   31 2    
    63   30   32 1    
    64   32   33 1    
    65   32   34 1    
    66   32  155 1    
    67   33  156 1    
    68   33  157 1    
    69   33  158 1    
    70   34   35 am   BACKBONE|DICT|INTERRES
    71   34  159 1    
    72   35   36 2    
    73   35   37 1    
    74   37   38 1    
    75   37   39 1    
    76   37  160 1    
    77   38  161 1    
    78   38  162 1    
    79   38  163 1    
    80   39   40 am   BACKBONE|DICT|INTERRES
    81   39  164 1    
    82   40   41 2    
    83   40   42 1    
    84   42   43 1    
    85   42   44 1    
    86   42  165 1    
    87   43  166 1    
    88   43  167 1    
    89   43  168 1    
    90   44   45 am   BACKBONE|DICT|INTERRES
    91   44  169 1    
    92   45   46 2    
    93   45   47 1    
    94   47   48 1    
    95   47   49 1    
    96   47  170 1    
    97   48  171 1    
    98   48  172 1    
    99   48  173 1    
   100   49   50 am   BACKBONE|DICT|INTERRES
   101   49  174 1    
   102   50   51 2    
   103   50   52 1    
   104   52   53 1    
   105   52   54 1    
   106   52  175 1    
   107   53  176 1    
   108   53  177 1    
   109   53  178 1    
   110   54   55 am   BACKBONE|DICT|INTERRES
   111   54  179 1    
   112   55   56 2    
   113   55   57 1    
   114   57   58 1    
   115   57   59 1    
   116   57  180 1    
   117   58  181 1    
   118   58  182 1    
   119   58  183 1    
   120   59   60 am   BACKBONE|DICT|INTERRES
   121   59  184 1    
   122   60   61 2    
   123   60   62 1    
   124   62   63 1    
   125   62   64 1    
   126   62  185 1    
   127   63  186 1    
   128   63  187 1    
   129   63  188 1    
   130   64   65 am   BACKBONE|DICT|INTERRES
   131   64  189 1    
   132   65   66 2    
   133   67   68 2    
   134   67   69 am   BACKBONE|DICT|INTERRES
   135   69   70 1    
   136   69  190 1    
   137   70   71 1    
   138   70   72 1    
   139   70  191 1    
   140   71  192 1    
   141   71  193 1    
   142   71  194 1    
   143   72   73 2    
   144   72   74 am   BACKBONE|DICT|INTERRES
   145   74   75 1    
   146   74  195 1    
   147   75   76 1    
   148   75   77 1    
   149   75  196 1    
   150   76  197 1    
   151   76  198 1    
   152   76  199 1    
   153   77   78 2    
   154   77   79 am   BACKBONE|DICT|INTERRES
   155   79   80 1    
   156   79  200 1    
   157   80   81 1    
   158   80   82 1    
   159   80  201 1    
   160   81  202 1    
   161   81  203 1    
   162   81  204 1    
   163   82   83 2    
   164   82   84 am   BACKBONE|DICT|INTERRES
   165   84   85 1    
   166   84  205 1    
   167   85   86 1    
   168   85   87 1    
   169   85  206 1    
   170   86  207 1    
   171   86  208 1    
   172   86  209 1    
   173   87   88 2    
   174   87   89 am   BACKBONE|DICT|INTERRES
   175   89   90 1    
   176   89  210 1    
   177   90   91 1    
   178   90   92 1    
   179   90  211 1    
   180   91  212 1    
   181   91  213 1    
   182   91  214 1    
   183   92   93 2    
   184   92   94 am   BACKBONE|DICT|INTERRES
   185   94   95 1    
   186   94  215 1    
   187   95   96 1    
   188   95   97 1    
   189   95  216 1    
   190   96  217 1    
   191   96  218 1    
   192   96  219 1    
   193   97   98 2    
   194   97   99 am   BACKBONE|DICT|INTERRES
   195   99  100 1    
   196   99  220 1    
   197  100  101 1    
   198  100  102 1    
   199  100  221 1    
   200  101  222 1    
   201  101  223 1    
   202  101  224 1    
   203  102  103 2    
   204  102  104 am   BACKBONE|DICT|INTERRES
   205  104  105 1    
   206  104  225 1    
   207  105  106 1    
   208  105  107 1    
   209  105  226 1    
   210  106  227 1    
   211  106  228 1    
   212  106  229 1    
   213  107  108 2    
   214  107  109 am   BACKBONE|DICT|INTERRES
   215  109  110 1    
   216  109  230 1    
   217  110  111 1    
   218  110  112 1    
   219  110  231 1    
   220  111  232 1    
   221  111  233 1    
   222  111  234 1    
   223  112  113 2    
   224  112  114 am   BACKBONE|DICT|INTERRES
   225  114  115 1    
   226  114  235 1    
   227  115  116 1    
   228  115  117 1    
   229  115  236 1    
   230  116  237 1    
   231  116  238 1    
   232  116  239 1    
   233  117  118 2    
   234  117  119 am   BACKBONE|DICT|INTERRES
   235  119  120 1    
   236  119  240 1    
   237  120  121 1    
   238  120  124 1    
   239  120  241 1    
   240  121  122 am   BACKBONE|DICT|INTERRES
   241  121  123 2    
   242  122  242 1    
   243  122  243 1    
   244  124  125 1    
   245  124  244 1    
   246  124  245 1    
   247  125  126 1    
   248  126  246 1    
   249  126  247 1    
@<TRIPOS>SUBSTRUCTURE
     1 UNK         1 GROUP             0       ****    0 ROOT    
