@<TRIPOS>MOLECULE
3R540
247   249    1
SMALL
USER_CHARGES


@<TRIPOS>ATOM
      1 CA         -0.9924  -12.3094  -45.6322 C.3       0 UNK        -0.1800 
      2 C           0.4532  -12.4989  -46.0678 C.2       0 UNK         0.5000 
      3 O           1.2866  -12.8840  -45.2498 O.2       0 UNK        -0.5000 
      4 N           0.7548  -12.2171  -47.3439 N.am      1 UNK        -0.5000 
      5 CA          2.0503  -12.3636  -48.0379 C.3       1 UNK         0.1400 
      6 C6          2.6149  -13.8113  -48.0408 C.3       23 UNK        -0.0398 
      7 S7          1.4227  -15.0373  -48.6815 S.3       23 UNK        -0.2404 
      8 C8          2.5046  -16.2071  -49.5668 C.3       23 UNK        -0.0205 
      9 C9          1.8110  -17.5343  -49.8654 C.ar      23 UNK        -0.0193 
     10 C10         0.5382  -17.5631  -50.4481 C.ar      23 UNK        -0.1150 
     11 C11        -0.0934  -18.7787  -50.7213 C.ar      23 UNK        -0.0193 
     12 C12         0.5591  -19.9756  -50.4168 C.ar      23 UNK        -0.1150 
     13 C13         1.8361  -19.9686  -49.8494 C.ar      23 UNK        -0.0193 
     14 C14         2.4574  -18.7430  -49.5799 C.ar      23 UNK        -0.1150 
     15 C15         2.5380  -21.2963  -49.5755 C.3       23 UNK        -0.0205 
     16 S16         3.3160  -21.4340  -47.9287 S.3       23 UNK        -0.2404 
     17 C17         1.9876  -20.9384  -46.7819 C.3       23 UNK        -0.0398 
     18 CA          1.0512  -22.0968  -46.3512 C.3       11 UNK         0.1400 
     19 N           0.5195  -21.8906  -45.0000 N.am      11 UNK        -0.5000 
     20 C          -0.2567  -22.7470  -44.3208 C.2       10 UNK         0.5000 
     21 O          -0.5726  -23.8621  -44.7345 O.2       10 UNK        -0.5000 
     22 CA         -0.8198  -22.2528  -42.9738 C.3       10 UNK         0.1400 
     23 CB          0.2084  -22.4212  -41.8455 C.3       10 UNK        -0.1800 
     24 N          -1.2693  -20.8602  -43.0319 N.am      10 UNK        -0.5000 
     25 C          -2.2937  -20.4320  -43.7847 C.2       9 UNK         0.5000 
     26 O          -3.0029  -21.1769  -44.4605 O.2       9 UNK        -0.5000 
     27 CA         -2.5308  -18.9120  -43.8394 C.3       9 UNK         0.1400 
     28 CB         -3.3020  -18.4295  -42.6022 C.3       9 UNK        -0.1800 
     29 N          -1.2856  -18.1556  -43.9758 N.am      9 UNK        -0.5000 
     30 C          -0.4528  -18.2547  -45.0218 C.2       8 UNK         0.5000 
     31 O          -0.6779  -18.9525  -46.0090 O.2       8 UNK        -0.5000 
     32 CA          0.8778  -17.4896  -44.9319 C.3       8 UNK         0.1400 
     33 CB          0.6756  -16.0229  -45.3124 C.3       8 UNK        -0.1800 
     34 N           1.4977  -17.5701  -43.6095 N.am      8 UNK        -0.5000 
     35 C           1.9006  -18.7075  -43.0269 C.2       7 UNK         0.5000 
     36 O           1.8418  -19.8098  -43.5672 O.2       7 UNK        -0.5000 
     37 CA          2.3961  -18.6059  -41.5766 C.3       7 UNK         0.1400 
     38 CB          3.8647  -18.1603  -41.5269 C.3       7 UNK        -0.1800 
     39 N           1.5652  -17.6917  -40.7939 N.am      7 UNK        -0.5000 
     40 C           0.3060  -17.9602  -40.4192 C.2       6 UNK         0.5000 
     41 O          -0.2624  -19.0280  -40.6521 O.2       6 UNK        -0.5000 
     42 CA         -0.4550  -16.8318  -39.6978 C.3       6 UNK         0.1400 
     43 CB         -0.1339  -16.8354  -38.1960 C.3       6 UNK        -0.1800 
     44 N          -0.1617  -15.5088  -40.2542 N.am      6 UNK        -0.5000 
     45 C          -0.5355  -15.1059  -41.4769 C.2       5 UNK         0.5000 
     46 O          -1.2023  -15.7986  -42.2448 O.2       5 UNK        -0.5000 
     47 CA         -0.0517  -13.7163  -41.9360 C.3       5 UNK         0.1400 
     48 CB         -1.0644  -12.6305  -41.5461 C.3       5 UNK        -0.1800 
     49 N           1.2728  -13.3476  -41.4291 N.am      5 UNK        -0.5000 
     50 C           2.4066  -14.0169  -41.6729 C.2       4 UNK         0.5000 
     51 O           2.4462  -15.0700  -42.3124 O.2       4 UNK        -0.5000 
     52 CA          3.6999  -13.4068  -41.0924 C.3       4 UNK         0.1400 
     53 CB          4.9459  -14.2571  -41.3974 C.3       4 UNK        -0.1800 
     54 N           3.9363  -12.0470  -41.5793 N.am      4 UNK        -0.5000 
     55 C           3.3606  -10.9315  -41.1102 C.2       3 UNK         0.5000 
     56 O           2.5111  -10.9308  -40.2179 O.2       3 UNK        -0.5000 
     57 CA          3.8034   -9.5971  -41.7452 C.3       3 UNK         0.1400 
     58 CB          4.9227   -8.9536  -40.9124 C.3       3 UNK        -0.1800 
     59 N           4.2648   -9.7515  -43.1282 N.am      3 UNK        -0.5000 
     60 C           3.4495   -9.9629  -44.1693 C.2       2 UNK         0.5000 
     61 O           2.2200   -9.9583  -44.0703 O.2       2 UNK        -0.5000 
     62 CA          4.0993  -10.2387  -45.5393 C.3       2 UNK         0.1400 
     63 CB          5.5364  -10.7964  -45.4541 C.3       2 UNK        -0.1800 
     64 N           3.2407  -11.1786  -46.2461 N.am      2 UNK        -0.5000 
     65 C           3.1247  -11.3564  -47.5629 C.2       1 UNK         0.5000 
     66 O           3.8063  -10.7546  -48.3941 O.2       1 UNK        -0.5000 
     67 C          -0.0814  -22.3070  -47.3759 C.2       11 UNK         0.5000 
     68 O          -0.0636  -23.2918  -48.1141 O.2       11 UNK        -0.5000 
     69 N          -1.0678  -21.3994  -47.3693 N.am      12 UNK        -0.5000 
     70 CA         -2.2541  -21.4517  -48.2192 C.3       12 UNK         0.1400 
     71 CB         -3.0680  -20.1606  -48.0564 C.3       12 UNK        -0.1800 
     72 C          -3.1224  -22.6915  -47.9536 C.2       12 UNK         0.5000 
     73 O          -3.5767  -23.3151  -48.9112 O.2       12 UNK        -0.5000 
     74 N          -3.3026  -23.0557  -46.6761 N.am      13 UNK        -0.5000 
     75 CA         -4.0102  -24.2659  -46.2561 C.3       13 UNK         0.1400 
     76 CB         -4.1852  -24.2692  -44.7303 C.3       13 UNK        -0.1800 
     77 C          -3.3155  -25.5535  -46.7353 C.2       13 UNK         0.5000 
     78 O          -3.9847  -26.4322  -47.2795 O.2       13 UNK        -0.5000 
     79 N          -1.9856  -25.6223  -46.5759 N.am      14 UNK        -0.5000 
     80 CA         -1.1447  -26.7268  -47.0468 C.3       14 UNK         0.1400 
     81 CB          0.2844  -26.5465  -46.5131 C.3       14 UNK        -0.1800 
     82 C          -1.1398  -26.8693  -48.5813 C.2       14 UNK         0.5000 
     83 O          -1.1383  -27.9908  -49.0897 O.2       14 UNK        -0.5000 
     84 N          -1.1761  -25.7323  -49.2874 N.am      15 UNK        -0.5000 
     85 CA         -1.2823  -25.6453  -50.7442 C.3       15 UNK         0.1400 
     86 CB         -0.7934  -24.2551  -51.1876 C.3       15 UNK        -0.1800 
     87 C          -2.7057  -25.9031  -51.2824 C.2       15 UNK         0.5000 
     88 O          -2.8798  -25.9258  -52.5016 O.2       15 UNK        -0.5000 
     89 N          -3.7049  -26.0296  -50.3926 N.am      16 UNK        -0.5000 
     90 CA         -5.1446  -26.1236  -50.6793 C.3       16 UNK         0.1400 
     91 CB         -5.4808  -27.4792  -51.3330 C.3       16 UNK        -0.1800 
     92 C          -5.6564  -24.9175  -51.4986 C.2       16 UNK         0.5000 
     93 O          -6.4556  -25.0762  -52.4250 O.2       16 UNK        -0.5000 
     94 N          -5.1021  -23.7364  -51.1857 N.am      17 UNK        -0.5000 
     95 CA         -5.2401  -22.4509  -51.8742 C.3       17 UNK         0.1400 
     96 CB         -6.6531  -21.8762  -51.6530 C.3       17 UNK        -0.1800 
     97 C          -4.8519  -22.4916  -53.3685 C.2       17 UNK         0.5000 
     98 O          -5.2816  -21.6178  -54.1208 O.2       17 UNK        -0.5000 
     99 N          -4.0821  -23.5098  -53.7865 N.am      18 UNK        -0.5000 
    100 CA        -3.7517  -23.8578  -55.1727 C.3       18 UNK         0.1400 
    101 CB        -2.7803  -22.8236  -55.7770 C.3       18 UNK        -0.1800 
    102 C         -5.0116  -24.0827  -56.0390 C.2       18 UNK         0.5000 
    103 O         -5.0484  -23.6555  -57.1927 O.2       18 UNK        -0.5000 
    104 N         -6.0439  -24.7042  -55.4442 N.am      19 UNK        -0.5000 
    105 CA        -7.3971  -24.8722  -55.9909 C.3       19 UNK         0.1400 
    106 CB        -7.3934  -25.7905  -57.2313 C.3       19 UNK        -0.1800 
    107 C         -8.0906  -23.5127  -56.2321 C.2       19 UNK         0.5000 
    108 O         -8.7008  -23.2944  -57.2793 O.2       19 UNK        -0.5000 
    109 N         -7.9435  -22.6206  -55.2424 N.am      20 UNK        -0.5000 
    110 CA        -8.4230  -21.2359  -55.1546 C.3       20 UNK         0.1400 
    111 CB        -9.9450  -21.1399  -55.3839 C.3       20 UNK        -0.1800 
    112 C         -7.6414  -20.2174  -56.0111 C.2       20 UNK         0.5000 
    113 O         -7.9201  -19.0212  -55.9075 O.2       20 UNK        -0.5000 
    114 N         -6.6526  -20.6651  -56.7996 N.am      21 UNK        -0.5000 
    115 CA        -5.8065  -19.8054  -57.6345 C.3       21 UNK         0.1400 
    116 CB        -5.0010  -20.6719  -58.6132 C.3       21 UNK        -0.1800 
    117 C         -4.8667  -18.8856  -56.8275 C.2       21 UNK         0.5000 
    118 O         -4.4688  -17.8373  -57.3372 O.2       21 UNK        -0.5000 
    119 N         -4.5434  -19.2778  -55.5886 N.am      22 UNK        -0.5000 
    120 CA        -3.7649  -18.4863  -54.6230 C.3       22 UNK         0.1400 
    121 C         -4.6020  -17.4030  -53.8753 C.2       22 UNK         0.5000 
    122 N         -5.9128  -17.3096  -54.0753 N.am      22 UNK        -0.7600 
    123 O         -4.0535  -16.6215  -53.1040 O.2       22 UNK        -0.5000 
    124 C124       -3.0042  -19.4184  -53.6406 C.3       23 UNK        -0.0398 
    125 S125       -1.3500  -18.8131  -53.1712 S.3       23 UNK        -0.2404 
    126 C126       -1.4739  -18.8063  -51.3569 C.3       23 UNK        -0.0205 
    127 H127       -1.6169  -11.9388  -46.4453 H         1 UNK         0.0600 
    128 H128       -1.0438  -11.5966  -44.8091 H         1 UNK         0.0600 
    129 H129       -1.4058  -13.2579  -45.2889 H         1 UNK         0.0600 
    130 H130        0.0112  -11.8785  -47.9380 H         1 UNK         0.3000 
    131 H131        1.8398  -12.1046  -49.0769 H         1 UNK         0.0600 
    132 H132        3.5199  -13.8544  -48.6494 H         1 UNK         0.0800 
    133 H133        2.9102  -14.1157  -47.0357 H         1 UNK         0.0800 
    134 H134        2.8340  -15.7559  -50.5034 H         1 UNK         0.0800 
    135 H135        3.3999  -16.3784  -48.9671 H         1 UNK         0.0800 
    136 H136        0.0370  -16.6367  -50.6908 H         1 UNK         0.1150 
    137 H137        0.0761  -20.9167  -50.6396 H         1 UNK         0.1150 
    138 H138        3.4485  -18.7334  -49.1485 H         1 UNK         0.1150 
    139 H139        1.8445  -22.1294  -49.6975 H         1 UNK         0.0800 
    140 H140        3.3099  -21.4375  -50.3328 H         1 UNK         0.0800 
    141 H141        1.4352  -20.0852  -47.1765 H         1 UNK         0.0800 
    142 H142        2.5122  -20.5519  -45.9090 H         1 UNK         0.0800 
    143 H143        1.6342  -23.0192  -46.3104 H         1 UNK         0.0600 
    144 H144        0.7784  -21.0192  -44.5449 H         1 UNK         0.3000 
    145 H145       -1.6865  -22.8710  -42.7316 H         1 UNK         0.0600 
    146 H146       -0.2093  -22.1206  -40.8844 H         1 UNK         0.0600 
    147 H147        0.5187  -23.4629  -41.7549 H         1 UNK         0.0600 
    148 H148        1.1050  -21.8269  -42.0192 H         1 UNK         0.0600 
    149 H149       -0.7472  -20.1853  -42.4859 H         1 UNK         0.3000 
    150 H150       -3.1416  -18.7046  -44.7205 H         1 UNK         0.0600 
    151 H151       -3.5419  -17.3687  -42.6772 H         1 UNK         0.0600 
    152 H152       -4.2437  -18.9692  -42.4945 H         1 UNK         0.0600 
    153 H153       -2.7312  -18.5785  -41.6857 H         1 UNK         0.0600 
    154 H154       -1.0645  -17.5003  -43.2323 H         1 UNK         0.3000 
    155 H155        1.5655  -17.9352  -45.6534 H         1 UNK         0.0600 
    156 H156        0.0778  -15.4911  -44.5748 H         1 UNK         0.0600 
    157 H157        0.1587  -15.9347  -46.2675 H         1 UNK         0.0600 
    158 H158        1.6332  -15.5115  -45.4032 H         1 UNK         0.0600 
    159 H159        1.6301  -16.6955  -43.1102 H         1 UNK         0.3000 
    160 H160        2.3293  -19.5987  -41.1263 H         1 UNK         0.0600 
    161 H161        4.0165  -17.2081  -42.0344 H         1 UNK         0.0600 
    162 H162        4.5063  -18.8934  -42.0170 H         1 UNK         0.0600 
    163 H163        4.2144  -18.0566  -40.4997 H         1 UNK         0.0600 
    164 H164        1.9393  -16.7696  -40.6246 H         1 UNK         0.3000 
    165 H165       -1.5236  -17.0228  -39.8182 H         1 UNK         0.0600 
    166 H166       -0.7262  -16.0903  -37.6646 H         1 UNK         0.0600 
    167 H167       -0.3599  -17.8057  -37.7516 H         1 UNK         0.0600 
    168 H168        0.9195  -16.6249  -38.0069 H         1 UNK         0.0600 
    169 H169        0.3820  -14.8782  -39.6836 H         1 UNK         0.3000 
    170 H170        0.0129  -13.7382  -43.0241 H         1 UNK         0.0600 
    171 H171       -2.0567  -12.8647  -41.9340 H         1 UNK         0.0600 
    172 H172       -1.1484  -12.5279  -40.4636 H         1 UNK         0.0600 
    173 H173       -0.7775  -11.6613  -41.9551 H         1 UNK         0.0600 
    174 H174        1.3432  -12.4802  -40.9083 H         1 UNK         0.3000 
    175 H175        3.5818  -13.3752  -40.0072 H         1 UNK         0.0600 
    176 H176        5.1029  -14.3749  -42.4705 H         1 UNK         0.0600 
    177 H177        5.8442  -13.8075  -40.9741 H         1 UNK         0.0600 
    178 H178        4.8529  -15.2529  -40.9640 H         1 UNK         0.0600 
    179 H179        4.5909  -11.9561  -42.3412 H         1 UNK         0.3000 
    180 H180        2.9434   -8.9239  -41.7348 H         1 UNK         0.0600 
    181 H181        5.8183   -9.5758  -40.8903 H         1 UNK         0.0600 
    182 H182        4.6032   -8.8016  -39.8805 H         1 UNK         0.0600 
    183 H183        5.2004   -7.9781  -41.3119 H         1 UNK         0.0600 
    184 H184        5.2633   -9.7495  -43.2793 H         1 UNK         0.3000 
    185 H185        4.1140   -9.2935  -46.0851 H         1 UNK         0.0600 
    186 H186        6.2190  -10.0759  -45.0026 H         1 UNK         0.0600 
    187 H187        5.5773  -11.7149  -44.8672 H         1 UNK         0.0600 
    188 H188        5.9305  -11.0217  -46.4452 H         1 UNK         0.0600 
    189 H189        2.5882  -11.6912  -45.6524 H         1 UNK         0.3000 
    190 H190       -0.9888  -20.5929  -46.7523 H         1 UNK         0.3000 
    191 H191       -1.9136  -21.5074  -49.2543 H         1 UNK         0.0600 
    192 H192       -2.4724  -19.2856  -48.3185 H         1 UNK         0.0600 
    193 H193       -3.9446  -20.1657  -48.7054 H         1 UNK         0.0600 
    194 H194       -3.4158  -20.0314  -47.0310 H         1 UNK         0.0600 
    195 H195       -2.9416  -22.4584  -45.9377 H         1 UNK         0.3000 
    196 H196       -5.0041  -24.2398  -46.7078 H         1 UNK         0.0600 
    197 H197       -4.7276  -25.1563  -44.4012 H         1 UNK         0.0600 
    198 H198       -4.7521  -23.3996  -44.3976 H         1 UNK         0.0600 
    199 H199       -3.2260  -24.2600  -44.2131 H         1 UNK         0.0600 
    200 H200       -1.5095  -24.8674  -46.0885 H         1 UNK         0.3000 
    201 H201       -1.5482  -27.6522  -46.6309 H         1 UNK         0.0600 
    202 H202        0.2981  -26.5302  -45.4231 H         1 UNK         0.0600 
    203 H203        0.7318  -25.6167  -46.8659 H         1 UNK         0.0600 
    204 H204        0.9290  -27.3653  -46.8348 H         1 UNK         0.0600 
    205 H205       -1.0979  -24.8511  -48.7878 H         1 UNK         0.3000 
    206 H206       -0.6255  -26.3960  -51.1880 H         1 UNK         0.0600 
    207 H207        0.2292  -24.0725  -50.8571 H         1 UNK         0.0600 
    208 H208       -0.8036  -24.1595  -52.2742 H         1 UNK         0.0600 
    209 H209       -1.4218  -23.4613  -50.7829 H         1 UNK         0.0600 
    210 H210       -3.4670  -25.9727  -49.4101 H         1 UNK         0.3000 
    211 H211       -5.6550  -26.0800  -49.7163 H         1 UNK         0.0600 
    212 H212       -5.0415  -27.5712  -52.3267 H         1 UNK         0.0600 
    213 H213       -6.5589  -27.6049  -51.4393 H         1 UNK         0.0600 
    214 H214       -5.1161  -28.3085  -50.7270 H         1 UNK         0.0600 
    215 H215       -4.4687  -23.7180  -50.3858 H         1 UNK         0.3000 
    216 H216       -4.5283  -21.7754  -51.3982 H         1 UNK         0.0600 
    217 H217       -6.7340  -20.8632  -52.0493 H         1 UNK         0.0600 
    218 H218       -6.8921  -21.8242  -50.5908 H         1 UNK         0.0600 
    219 H219       -7.4180  -22.4834  -52.1375 H         1 UNK         0.0600 
    220 H220       -3.7853  -24.1979  -53.1026 H         1 UNK         0.3000 
    221 H221       -3.2327  -24.8165  -55.1332 H         1 UNK         0.0600 
    222 H222       -3.2600  -21.8574  -55.9275 H         1 UNK         0.0600 
    223 H223       -1.9130  -22.6732  -55.1342 H         1 UNK         0.0600 
    224 H224       -2.4112  -23.1567  -56.7475 H         1 UNK         0.0600 
    225 H225       -5.9366  -24.9832  -54.4743 H         1 UNK         0.3000 
    226 H226       -7.9768  -25.3748  -55.2152 H         1 UNK         0.0600 
    227 H227       -6.8977  -26.7376  -57.0185 H         1 UNK         0.0600 
    228 H228       -8.4117  -26.0211  -57.5461 H         1 UNK         0.0600 
    229 H229       -6.8881  -25.3304  -58.0807 H         1 UNK         0.0600 
    230 H230       -7.3610  -22.9035  -54.4671 H         1 UNK         0.3000 
    231 H231       -8.2393  -20.9389  -54.1216 H         1 UNK         0.0600 
    232 H232      -10.2147  -21.3330  -56.4223 H         1 UNK         0.0600 
    233 H233      -10.3132  -20.1437  -55.1364 H         1 UNK         0.0600 
    234 H234      -10.4853  -21.8489  -54.7566 H         1 UNK         0.0600 
    235 H235       -6.4489  -21.6554  -56.8106 H         1 UNK         0.3000 
    236 H236       -6.4663  -19.1628  -58.2211 H         1 UNK         0.0600 
    237 H237       -5.6508  -21.3328  -59.1872 H         1 UNK         0.0600 
    238 H238       -4.4571  -20.0502  -59.3253 H         1 UNK         0.0600 
    239 H239       -4.2672  -21.2885  -58.0948 H         1 UNK         0.0600 
    240 H240       -4.9279  -20.1499  -55.2324 H         1 UNK         0.3000 
    241 H241       -3.0200  -17.9341  -55.1989 H         1 UNK         0.0600 
    242 H242       -6.3905  -17.9249  -54.7203 H         1 UNK         0.3800 
    243 H243       -6.4346  -16.5987  -53.5878 H         1 UNK         0.3800 
    244 H244       -3.6076  -19.6329  -52.7573 H         1 UNK         0.0800 
    245 H245       -2.8227  -20.3856  -54.1077 H         1 UNK         0.0800 
    246 H246       -2.0615  -17.9448  -51.0353 H         1 UNK         0.0800 
    247 H247       -2.0115  -19.6931  -51.0190 H         1 UNK         0.0800 
@<TRIPOS>BOND
     1    1    2 1    
     2    1  127 1    
     3    1  128 1    
     4    1  129 1    
     5    2    3 2    
     6    2    4 am   BACKBONE|DICT|INTERRES
     7    4    5 1    
     8    4  130 1    
     9    5    6 1    
    10    5   65 1    
    11    5  131 1    
    12    6    7 1    
    13    6  132 1    
    14    6  133 1    
    15    7    8 1    
    16    8    9 1    
    17    8  134 1    
    18    8  135 1    
    19    9   10 ar   
    20    9   14 ar   
    21   10   11 ar   
    22   10  136 1    
    23   11   12 ar   
    24   11  126 1    
    25   12   13 ar   
    26   12  137 1    
    27   13   14 ar   
    28   13   15 1    
    29   14  138 1    
    30   15   16 1    
    31   15  139 1    
    32   15  140 1    
    33   16   17 1    
    34   17   18 1    
    35   17  141 1    
    36   17  142 1    
    37   18   19 1    
    38   18   67 1    
    39   18  143 1    
    40   19   20 am   BACKBONE|DICT|INTERRES
    41   19  144 1    
    42   20   21 2    
    43   20   22 1    
    44   22   23 1    
    45   22   24 1    
    46   22  145 1    
    47   23  146 1    
    48   23  147 1    
    49   23  148 1    
    50   24   25 am   BACKBONE|DICT|INTERRES
    51   24  149 1    
    52   25   26 2    
    53   25   27 1    
    54   27   28 1    
    55   27   29 1    
    56   27  150 1    
    57   28  151 1    
    58   28  152 1    
    59   28  153 1    
    60   29   30 am   BACKBONE|DICT|INTERRES
    61   29  154 1    
    62   30   31 2    
    63   30   32 1    
    64   32   33 1    
    65   32   34 1    
    66   32  155 1    
    67   33  156 1    
    68   33  157 1    
    69   33  158 1    
    70   34   35 am   BACKBONE|DICT|INTERRES
    71   34  159 1    
    72   35   36 2    
    73   35   37 1    
    74   37   38 1    
    75   37   39 1    
    76   37  160 1    
    77   38  161 1    
    78   38  162 1    
    79   38  163 1    
    80   39   40 am   BACKBONE|DICT|INTERRES
    81   39  164 1    
    82   40   41 2    
    83   40   42 1    
    84   42   43 1    
    85   42   44 1    
    86   42  165 1    
    87   43  166 1    
    88   43  167 1    
    89   43  168 1    
    90   44   45 am   BACKBONE|DICT|INTERRES
    91   44  169 1    
    92   45   46 2    
    93   45   47 1    
    94   47   48 1    
    95   47   49 1    
    96   47  170 1    
    97   48  171 1    
    98   48  172 1    
    99   48  173 1    
   100   49   50 am   BACKBONE|DICT|INTERRES
   101   49  174 1    
   102   50   51 2    
   103   50   52 1    
   104   52   53 1    
   105   52   54 1    
   106   52  175 1    
   107   53  176 1    
   108   53  177 1    
   109   53  178 1    
   110   54   55 am   BACKBONE|DICT|INTERRES
   111   54  179 1    
   112   55   56 2    
   113   55   57 1    
   114   57   58 1    
   115   57   59 1    
   116   57  180 1    
   117   58  181 1    
   118   58  182 1    
   119   58  183 1    
   120   59   60 am   BACKBONE|DICT|INTERRES
   121   59  184 1    
   122   60   61 2    
   123   60   62 1    
   124   62   63 1    
   125   62   64 1    
   126   62  185 1    
   127   63  186 1    
   128   63  187 1    
   129   63  188 1    
   130   64   65 am   BACKBONE|DICT|INTERRES
   131   64  189 1    
   132   65   66 2    
   133   67   68 2    
   134   67   69 am   BACKBONE|DICT|INTERRES
   135   69   70 1    
   136   69  190 1    
   137   70   71 1    
   138   70   72 1    
   139   70  191 1    
   140   71  192 1    
   141   71  193 1    
   142   71  194 1    
   143   72   73 2    
   144   72   74 am   BACKBONE|DICT|INTERRES
   145   74   75 1    
   146   74  195 1    
   147   75   76 1    
   148   75   77 1    
   149   75  196 1    
   150   76  197 1    
   151   76  198 1    
   152   76  199 1    
   153   77   78 2    
   154   77   79 am   BACKBONE|DICT|INTERRES
   155   79   80 1    
   156   79  200 1    
   157   80   81 1    
   158   80   82 1    
   159   80  201 1    
   160   81  202 1    
   161   81  203 1    
   162   81  204 1    
   163   82   83 2    
   164   82   84 am   BACKBONE|DICT|INTERRES
   165   84   85 1    
   166   84  205 1    
   167   85   86 1    
   168   85   87 1    
   169   85  206 1    
   170   86  207 1    
   171   86  208 1    
   172   86  209 1    
   173   87   88 2    
   174   87   89 am   BACKBONE|DICT|INTERRES
   175   89   90 1    
   176   89  210 1    
   177   90   91 1    
   178   90   92 1    
   179   90  211 1    
   180   91  212 1    
   181   91  213 1    
   182   91  214 1    
   183   92   93 2    
   184   92   94 am   BACKBONE|DICT|INTERRES
   185   94   95 1    
   186   94  215 1    
   187   95   96 1    
   188   95   97 1    
   189   95  216 1    
   190   96  217 1    
   191   96  218 1    
   192   96  219 1    
   193   97   98 2    
   194   97   99 am   BACKBONE|DICT|INTERRES
   195   99  100 1    
   196   99  220 1    
   197  100  101 1    
   198  100  102 1    
   199  100  221 1    
   200  101  222 1    
   201  101  223 1    
   202  101  224 1    
   203  102  103 2    
   204  102  104 am   BACKBONE|DICT|INTERRES
   205  104  105 1    
   206  104  225 1    
   207  105  106 1    
   208  105  107 1    
   209  105  226 1    
   210  106  227 1    
   211  106  228 1    
   212  106  229 1    
   213  107  108 2    
   214  107  109 am   BACKBONE|DICT|INTERRES
   215  109  110 1    
   216  109  230 1    
   217  110  111 1    
   218  110  112 1    
   219  110  231 1    
   220  111  232 1    
   221  111  233 1    
   222  111  234 1    
   223  112  113 2    
   224  112  114 am   BACKBONE|DICT|INTERRES
   225  114  115 1    
   226  114  235 1    
   227  115  116 1    
   228  115  117 1    
   229  115  236 1    
   230  116  237 1    
   231  116  238 1    
   232  116  239 1    
   233  117  118 2    
   234  117  119 am   BACKBONE|DICT|INTERRES
   235  119  120 1    
   236  119  240 1    
   237  120  121 1    
   238  120  124 1    
   239  120  241 1    
   240  121  122 am   BACKBONE|DICT|INTERRES
   241  121  123 2    
   242  122  242 1    
   243  122  243 1    
   244  124  125 1    
   245  124  244 1    
   246  124  245 1    
   247  125  126 1    
   248  126  246 1    
   249  126  247 1    
@<TRIPOS>SUBSTRUCTURE
     1 UNK         1 GROUP             0       ****    0 ROOT    
