@<TRIPOS>MOLECULE
3R540
247   249    1
SMALL
USER_CHARGES


@<TRIPOS>ATOM
      1 CA         -6.9999  -16.0351  -47.5261 C.3       0 UNK        -0.1800 
      2 C          -5.8750  -15.0099  -47.5675 C.2       0 UNK         0.5000 
      3 O          -6.1148  -13.8470  -47.8939 O.2       0 UNK        -0.5000 
      4 N          -4.6497  -15.4413  -47.2488 N.am      1 UNK        -0.5000 
      5 CA         -3.4442  -14.6085  -47.1933 C.3       1 UNK         0.1400 
      6 C6         -2.1595  -15.4673  -47.0596 C.3       23 UNK        -0.0398 
      7 S7         -1.9746  -16.6911  -48.3958 S.3       23 UNK        -0.2404 
      8 C8         -0.3900  -16.2024  -49.1406 C.3       23 UNK        -0.0205 
      9 C9          0.0340  -17.2329  -50.1716 C.ar      23 UNK        -0.0193 
     10 C10        -0.3285  -17.0847  -51.5127 C.ar      23 UNK        -0.1150 
     11 C11         0.0003  -18.0698  -52.4482 C.ar      23 UNK        -0.0193 
     12 C12         0.6951  -19.2102  -52.0310 C.ar      23 UNK        -0.1150 
     13 C13         1.0634  -19.3682  -50.6906 C.ar      23 UNK        -0.0193 
     14 C14         0.7498  -18.3633  -49.7717 C.ar      23 UNK        -0.1150 
     15 C15         1.7887  -20.6265  -50.2353 C.3       23 UNK        -0.0205 
     16 S16         0.6377  -21.8739  -49.5680 S.3       23 UNK        -0.2404 
     17 C17         0.4650  -21.3203  -47.8397 C.3       23 UNK        -0.0398 
     18 CA         -0.4731  -22.2143  -46.9894 C.3       11 UNK         0.1400 
     19 N          -0.0858  -22.2130  -45.5736 N.am      11 UNK        -0.5000 
     20 C          -0.6551  -22.9560  -44.6127 C.2       10 UNK         0.5000 
     21 O          -1.5543  -23.7699  -44.8178 O.2       10 UNK        -0.5000 
     22 CA         -0.1770  -22.7151  -43.1699 C.3       10 UNK         0.1400 
     23 CB          1.1270  -23.4770  -42.8918 C.3       10 UNK        -0.1800 
     24 N          -0.0011  -21.2943  -42.8648 N.am      10 UNK        -0.5000 
     25 C          -0.9934  -20.3920  -42.8559 C.2       9 UNK         0.5000 
     26 O          -2.1744  -20.6761  -43.0516 O.2       9 UNK        -0.5000 
     27 CA         -0.5974  -18.9175  -42.6552 C.3       9 UNK         0.1400 
     28 CB         -0.3544  -18.6053  -41.1717 C.3       9 UNK        -0.1800 
     29 N           0.5822  -18.5461  -43.4354 N.am      9 UNK        -0.5000 
     30 C           0.6434  -18.5731  -44.7747 C.2       8 UNK         0.5000 
     31 O          -0.3074  -18.8617  -45.5017 O.2       8 UNK        -0.5000 
     32 CA          2.0158  -18.2817  -45.4030 C.3       8 UNK         0.1400 
     33 CB          2.2662  -16.7715  -45.5030 C.3       8 UNK        -0.1800 
     34 N           3.1066  -18.9111  -44.6586 N.am      8 UNK        -0.5000 
     35 C           3.3163  -20.2337  -44.6063 C.2       7 UNK         0.5000 
     36 O           2.6170  -21.0604  -45.1900 O.2       7 UNK        -0.5000 
     37 CA          4.4762  -20.7128  -43.7166 C.3       7 UNK         0.1400 
     38 CB          5.8230  -20.5355  -44.4335 C.3       7 UNK        -0.1800 
     39 N           4.5141  -20.0221  -42.4273 N.am      7 UNK        -0.5000 
     40 C           3.5666  -20.1291  -41.4854 C.2       6 UNK         0.5000 
     41 O           2.5623  -20.8297  -41.6005 O.2       6 UNK        -0.5000 
     42 CA          3.7526  -19.2796  -40.2167 C.3       6 UNK         0.1400 
     43 CB          4.6228  -20.0233  -39.1925 C.3       6 UNK        -0.1800 
     44 N           4.3274  -17.9567  -40.4750 N.am      6 UNK        -0.5000 
     45 C           3.7472  -17.0088  -41.2208 C.2       5 UNK         0.5000 
     46 O           2.6949  -17.1687  -41.8481 O.2       5 UNK        -0.5000 
     47 CA          4.4630  -15.6561  -41.2890 C.3       5 UNK         0.1400 
     48 CB          5.3117  -15.5458  -42.5669 C.3       5 UNK        -0.1800 
     49 N           3.4309  -14.6318  -41.2817 N.am      5 UNK        -0.5000 
     50 C           3.5548  -13.3631  -40.8766 C.2       4 UNK         0.5000 
     51 O           4.6122  -12.8769  -40.4720 O.2       4 UNK        -0.5000 
     52 CA          2.2656  -12.5096  -40.9154 C.3       4 UNK         0.1400 
     53 CB          2.5409  -11.0003  -41.0832 C.3       4 UNK        -0.1800 
     54 N           1.2947  -12.9976  -41.9055 N.am      4 UNK        -0.5000 
     55 C           1.4397  -13.0199  -43.2390 C.2       3 UNK         0.5000 
     56 O           2.3718  -12.4915  -43.8455 O.2       3 UNK        -0.5000 
     57 CA          0.3968  -13.8198  -44.0391 C.3       3 UNK         0.1400 
     58 CB         -0.2843  -14.9532  -43.2379 C.3       3 UNK        -0.1800 
     59 N          -0.5975  -12.9714  -44.6897 N.am      3 UNK        -0.5000 
     60 C          -1.4852  -12.1398  -44.1230 C.2       2 UNK         0.5000 
     61 O          -1.5374  -11.8871  -42.9193 O.2       2 UNK        -0.5000 
     62 CA         -2.5340  -11.5343  -45.0809 C.3       2 UNK         0.1400 
     63 CB         -2.0378  -10.1993  -45.6565 C.3       2 UNK        -0.1800 
     64 N          -2.8565  -12.4515  -46.1819 N.am      2 UNK        -0.5000 
     65 C          -3.5056  -13.6135  -46.0160 C.2       1 UNK         0.5000 
     66 O          -4.0572  -13.9427  -44.9624 O.2       1 UNK        -0.5000 
     67 C          -1.9540  -21.8192  -47.1806 C.2       11 UNK         0.5000 
     68 O          -2.6721  -22.4780  -47.9357 O.2       11 UNK        -0.5000 
     69 N          -2.3905  -20.7756  -46.4608 N.am      12 UNK        -0.5000 
     70 CA         -3.7787  -20.3226  -46.4165 C.3       12 UNK         0.1400 
     71 CB         -3.8574  -18.9636  -45.7045 C.3       12 UNK        -0.1800 
     72 C          -4.7111  -21.3506  -45.7518 C.2       12 UNK         0.5000 
     73 O          -5.7448  -21.6874  -46.3292 O.2       12 UNK        -0.5000 
     74 N          -4.3212  -21.8484  -44.5691 N.am      13 UNK        -0.5000 
     75 CA         -5.0866  -22.8070  -43.7661 C.3       13 UNK         0.1400 
     76 CB         -4.3983  -23.0025  -42.4070 C.3       13 UNK        -0.1800 
     77 C          -5.3039  -24.1647  -44.4591 C.2       13 UNK         0.5000 
     78 O          -6.3886  -24.7369  -44.3470 O.2       13 UNK        -0.5000 
     79 N          -4.2835  -24.6421  -45.1830 N.am      14 UNK        -0.5000 
     80 CA         -4.3289  -25.8706  -45.9783 C.3       14 UNK         0.1400 
     81 CB         -2.8872  -26.3255  -46.2592 C.3       14 UNK        -0.1800 
     82 C          -5.1004  -25.7180  -47.3051 C.2       14 UNK         0.5000 
     83 O          -5.3495  -26.7258  -47.9671 O.2       14 UNK        -0.5000 
     84 N          -5.4167  -24.4717  -47.6927 N.am      15 UNK        -0.5000 
     85 CA         -5.9819  -24.0456  -48.9798 C.3       15 UNK         0.1400 
     86 CB         -7.3758  -24.6585  -49.2225 C.3       15 UNK        -0.1800 
     87 C          -5.0221  -24.2600  -50.1705 C.2       15 UNK         0.5000 
     88 O          -5.4432  -24.1831  -51.3259 O.2       15 UNK        -0.5000 
     89 N          -3.7320  -24.4678  -49.8753 N.am      16 UNK        -0.5000 
     90 CA         -2.6503  -24.5727  -50.8500 C.3       16 UNK         0.1400 
     91 CB         -1.3804  -25.0726  -50.1476 C.3       16 UNK        -0.1800 
     92 C          -2.4005  -23.2363  -51.5672 C.2       16 UNK         0.5000 
     93 O          -2.0752  -23.2397  -52.7524 O.2       16 UNK        -0.5000 
     94 N          -2.6233  -22.1207  -50.8580 N.am      17 UNK        -0.5000 
     95 CA         -2.5652  -20.7656  -51.4017 C.3       17 UNK         0.1400 
     96 CB         -2.7070  -19.7493  -50.2617 C.3       17 UNK        -0.1800 
     97 C          -3.6319  -20.5129  -52.4799 C.2       17 UNK         0.5000 
     98 O          -3.3367  -19.8763  -53.4902 O.2       17 UNK        -0.5000 
     99 N          -4.8411  -21.0497  -52.2644 N.am      18 UNK        -0.5000 
    100 CA        -5.9500  -20.9863  -53.2159 C.3       18 UNK         0.1400 
    101 CB        -7.2596  -21.3644  -52.5070 C.3       18 UNK        -0.1800 
    102 C         -5.7098  -21.8785  -54.4467 C.2       18 UNK         0.5000 
    103 O         -6.0653  -21.4831  -55.5569 O.2       18 UNK        -0.5000 
    104 N         -5.0905  -23.0486  -54.2318 N.am      19 UNK        -0.5000 
    105 CA        -4.6858  -23.9768  -55.2881 C.3       19 UNK         0.1400 
    106 CB        -4.2954  -25.3260  -54.6656 C.3       19 UNK        -0.1800 
    107 C         -3.5435  -23.4163  -56.1573 C.2       19 UNK         0.5000 
    108 O         -3.6014  -23.5319  -57.3821 O.2       19 UNK        -0.5000 
    109 N         -2.5384  -22.8066  -55.5122 N.am      20 UNK        -0.5000 
    110 CA        -1.4121  -22.1337  -56.1611 C.3       20 UNK         0.1400 
    111 CB        -0.3313  -21.8236  -55.1133 C.3       20 UNK        -0.1800 
    112 C         -1.8315  -20.8502  -56.8994 C.2       20 UNK         0.5000 
    113 O         -1.2997  -20.5688  -57.9742 O.2       20 UNK        -0.5000 
    114 N         -2.7705  -20.1000  -56.3052 N.am      21 UNK        -0.5000 
    115 CA        -3.4144  -18.8636  -56.7653 C.3       21 UNK         0.1400 
    116 CB        -4.1554  -19.0801  -58.0978 C.3       21 UNK        -0.1800 
    117 C         -2.4897  -17.6318  -56.8324 C.2       21 UNK         0.5000 
    118 O         -2.9195  -16.5430  -56.4508 O.2       21 UNK        -0.5000 
    119 N         -1.2483  -17.8186  -57.2973 N.am      22 UNK        -0.5000 
    120 CA        -0.1904  -16.8005  -57.4366 C.3       22 UNK         0.1400 
    121 C         -0.4844  -15.6974  -58.5020 C.2       22 UNK         0.5000 
    122 N         -1.4142  -15.9020  -59.4274 N.am      22 UNK        -0.7600 
    123 O          0.1595  -14.6514  -58.5180 O.2       22 UNK        -0.5000 
    124 C124        0.2676  -16.2101  -56.0716 C.3       23 UNK        -0.0398 
    125 S125        0.9914  -17.4625  -54.9553 S.3       23 UNK        -0.2404 
    126 C126       -0.4221  -17.9120  -53.9003 C.3       23 UNK        -0.0205 
    127 H127       -7.7592  -15.7296  -46.8062 H         1 UNK         0.0600 
    128 H128       -7.4702  -16.1162  -48.5060 H         1 UNK         0.0600 
    129 H129       -6.6383  -17.0233  -47.2402 H         1 UNK         0.0600 
    130 H130       -4.5171  -16.4069  -46.9893 H         1 UNK         0.3000 
    131 H131       -3.3875  -14.0404  -48.1245 H         1 UNK         0.0600 
    132 H132       -2.1541  -16.0101  -46.1122 H         1 UNK         0.0800 
    133 H133       -1.2746  -14.8297  -47.0434 H         1 UNK         0.0800 
    134 H134        0.3732  -16.1181  -48.3657 H         1 UNK         0.0800 
    135 H135       -0.4862  -15.2171  -49.5993 H         1 UNK         0.0800 
    136 H136       -0.8862  -16.2120  -51.8224 H         1 UNK         0.1150 
    137 H137        0.9368  -19.9805  -52.7498 H         1 UNK         0.1150 
    138 H138        1.0332  -18.4705  -48.7354 H         1 UNK         0.1150 
    139 H139        2.3258  -21.0665  -51.0767 H         1 UNK         0.0800 
    140 H140        2.5464  -20.3787  -49.4904 H         1 UNK         0.0800 
    141 H141        1.4714  -21.3338  -47.4242 H         1 UNK         0.0800 
    142 H142        0.1426  -20.2801  -47.8096 H         1 UNK         0.0800 
    143 H143       -0.3656  -23.2473  -47.3255 H         1 UNK         0.0600 
    144 H144        0.6853  -21.6049  -45.3176 H         1 UNK         0.3000 
    145 H145       -0.9433  -23.1059  -42.4979 H         1 UNK         0.0600 
    146 H146        1.9511  -23.1042  -43.5001 H         1 UNK         0.0600 
    147 H147        1.4181  -23.3885  -41.8451 H         1 UNK         0.0600 
    148 H148        1.0124  -24.5399  -43.1084 H         1 UNK         0.0600 
    149 H149        0.9422  -20.9935  -42.6362 H         1 UNK         0.3000 
    150 H150       -1.4298  -18.3003  -42.9998 H         1 UNK         0.0600 
    151 H151       -0.1293  -17.5491  -41.0228 H         1 UNK         0.0600 
    152 H152        0.4769  -19.1837  -40.7691 H         1 UNK         0.0600 
    153 H153       -1.2369  -18.8384  -40.5748 H         1 UNK         0.0600 
    154 H154        1.4053  -18.2652  -42.9117 H         1 UNK         0.3000 
    155 H155        2.0114  -18.6925  -46.4148 H         1 UNK         0.0600 
    156 H156        1.4664  -16.2840  -46.0612 H         1 UNK         0.0600 
    157 H157        3.2003  -16.5608  -46.0239 H         1 UNK         0.0600 
    158 H158        2.3202  -16.3065  -44.5182 H         1 UNK         0.0600 
    159 H159        3.6953  -18.3039  -44.1085 H         1 UNK         0.3000 
    160 H160        4.3296  -21.7780  -43.5253 H         1 UNK         0.0600 
    161 H161        6.0454  -19.4850  -44.6246 H         1 UNK         0.0600 
    162 H162        5.8237  -21.0516  -45.3946 H         1 UNK         0.0600 
    163 H163        6.6406  -20.9497  -43.8434 H         1 UNK         0.0600 
    164 H164        5.3043  -19.4200  -42.2501 H         1 UNK         0.3000 
    165 H165        2.7649  -19.1300  -39.7759 H         1 UNK         0.0600 
    166 H166        5.6390  -20.1733  -39.5591 H         1 UNK         0.0600 
    167 H167        4.6819  -19.4745  -38.2524 H         1 UNK         0.0600 
    168 H168        4.2065  -21.0062  -38.9672 H         1 UNK         0.0600 
    169 H169        5.1950  -17.7460  -40.0029 H         1 UNK         0.3000 
    170 H170        5.0993  -15.5391  -40.4092 H         1 UNK         0.0600 
    171 H171        6.0756  -16.3234  -42.5982 H         1 UNK         0.0600 
    172 H172        4.7007  -15.6455  -43.4650 H         1 UNK         0.0600 
    173 H173        5.8239  -14.5849  -42.6182 H         1 UNK         0.0600 
    174 H174        2.5212  -14.9717  -41.5641 H         1 UNK         0.3000 
    175 H175        1.7917  -12.6447  -39.9423 H         1 UNK         0.0600 
    176 H176        1.6113  -10.4332  -41.1331 H         1 UNK         0.0600 
    177 H177        3.1116  -10.6128  -40.2385 H         1 UNK         0.0600 
    178 H178        3.1142  -10.7869  -41.9854 H         1 UNK         0.0600 
    179 H179        0.4616  -13.4228  -41.5226 H         1 UNK         0.3000 
    180 H180        0.9511  -14.2912  -44.8500 H         1 UNK         0.0600 
    181 H181       -0.8830  -15.5856  -43.8934 H         1 UNK         0.0600 
    182 H182        0.4546  -15.5996  -42.7628 H         1 UNK         0.0600 
    183 H183       -0.9450  -14.5739  -42.4582 H         1 UNK         0.0600 
    184 H184       -0.6174  -13.0357  -45.6958 H         1 UNK         0.3000 
    185 H185       -3.4440  -11.3450  -44.5075 H         1 UNK         0.0600 
    186 H186       -2.7947   -9.7381  -46.2911 H         1 UNK         0.0600 
    187 H187       -1.8100   -9.4921  -44.8577 H         1 UNK         0.0600 
    188 H188       -1.1319  -10.3259  -46.2506 H         1 UNK         0.0600 
    189 H189       -2.4603  -12.2287  -47.0840 H         1 UNK         0.3000 
    190 H190       -1.7236  -20.2572  -45.8974 H         1 UNK         0.3000 
    191 H191       -4.1182  -20.1825  -47.4439 H         1 UNK         0.0600 
    192 H192       -4.8769  -18.5766  -45.7122 H         1 UNK         0.0600 
    193 H193       -3.2225  -18.2293  -46.1963 H         1 UNK         0.0600 
    194 H194       -3.5384  -19.0291  -44.6645 H         1 UNK         0.0600 
    195 H195       -3.4635  -21.4959  -44.1502 H         1 UNK         0.3000 
    196 H196       -6.0710  -22.3703  -43.5865 H         1 UNK         0.0600 
    197 H197       -4.9592  -23.6959  -41.7793 H         1 UNK         0.0600 
    198 H198       -4.3232  -22.0605  -41.8637 H         1 UNK         0.0600 
    199 H199       -3.3912  -23.4039  -42.5227 H         1 UNK         0.0600 
    200 H200       -3.3969  -24.1430  -45.1716 H         1 UNK         0.3000 
    201 H201       -4.8264  -26.6483  -45.3954 H         1 UNK         0.0600 
    202 H202       -2.3389  -26.4920  -45.3318 H         1 UNK         0.0600 
    203 H203       -2.3391  -25.5842  -46.8428 H         1 UNK         0.0600 
    204 H204       -2.8700  -27.2621  -46.8179 H         1 UNK         0.0600 
    205 H205       -5.1840  -23.7136  -47.0624 H         1 UNK         0.3000 
    206 H206       -6.1124  -22.9657  -48.8984 H         1 UNK         0.0600 
    207 H207       -8.0311  -24.4986  -48.3663 H         1 UNK         0.0600 
    208 H208       -7.8566  -24.2011  -50.0880 H         1 UNK         0.0600 
    209 H209       -7.3231  -25.7308  -49.4116 H         1 UNK         0.0600 
    210 H210       -3.4592  -24.4154  -48.9035 H         1 UNK         0.3000 
    211 H211       -2.9389  -25.3088  -51.6026 H         1 UNK         0.0600 
    212 H212       -0.5487  -25.1466  -50.8493 H         1 UNK         0.0600 
    213 H213       -1.5330  -26.0619  -49.7158 H         1 UNK         0.0600 
    214 H214       -1.0747  -24.4019  -49.3453 H         1 UNK         0.0600 
    215 H215       -2.8308  -22.2154  -49.8685 H         1 UNK         0.3000 
    216 H216       -1.5878  -20.6378  -51.8661 H         1 UNK         0.0600 
    217 H217       -2.6651  -18.7294  -50.6449 H         1 UNK         0.0600 
    218 H218       -1.9012  -19.8526  -49.5356 H         1 UNK         0.0600 
    219 H219       -3.6545  -19.8623  -49.7356 H         1 UNK         0.0600 
    220 H220       -4.9880  -21.5943  -51.4283 H         1 UNK         0.3000 
    221 H221       -6.0407  -19.9553  -53.5650 H         1 UNK         0.0600 
    222 H222       -7.2422  -22.3904  -52.1392 H         1 UNK         0.0600 
    223 H223       -7.4540  -20.7070  -51.6594 H         1 UNK         0.0600 
    224 H224       -8.1078  -21.2766  -53.1870 H         1 UNK         0.0600 
    225 H225       -4.8794  -23.3179  -53.2788 H         1 UNK         0.3000 
    226 H226       -5.5484  -24.1432  -55.9369 H         1 UNK         0.0600 
    227 H227       -4.0587  -26.0567  -55.4398 H         1 UNK         0.0600 
    228 H228       -3.4204  -25.2374  -54.0223 H         1 UNK         0.0600 
    229 H229       -5.1100  -25.7359  -54.0679 H         1 UNK         0.0600 
    230 H230       -2.5262  -22.8266  -54.4947 H         1 UNK         0.3000 
    231 H231       -0.9858  -22.8164  -56.8990 H         1 UNK         0.0600 
    232 H232        0.5032  -21.2771  -55.5546 H         1 UNK         0.0600 
    233 H233        0.0705  -22.7403  -54.6815 H         1 UNK         0.0600 
    234 H234       -0.7268  -21.2202  -54.2961 H         1 UNK         0.0600 
    235 H235       -3.0589  -20.3790  -55.3723 H         1 UNK         0.3000 
    236 H236       -4.1688  -18.6402  -56.0091 H         1 UNK         0.0600 
    237 H237       -3.4705  -19.3000  -58.9169 H         1 UNK         0.0600 
    238 H238       -4.8637  -19.9056  -58.0217 H         1 UNK         0.0600 
    239 H239       -4.7214  -18.1904  -58.3763 H         1 UNK         0.0600 
    240 H240       -1.0130  -18.7548  -57.6154 H         1 UNK         0.3000 
    241 H241        0.6638  -17.3380  -57.8494 H         1 UNK         0.0600 
    242 H242       -1.5914  -15.1909  -60.1196 H         1 UNK         0.3800 
    243 H243       -1.9417  -16.7600  -59.4419 H         1 UNK         0.3800 
    244 H244       -0.5466  -15.6796  -55.5776 H         1 UNK         0.0800 
    245 H245        1.0475  -15.4633  -56.2275 H         1 UNK         0.0800 
    246 H246       -1.2134  -17.1656  -53.9782 H         1 UNK         0.0800 
    247 H247       -0.8552  -18.8439  -54.2629 H         1 UNK         0.0800 
@<TRIPOS>BOND
     1    1    2 1    
     2    1  127 1    
     3    1  128 1    
     4    1  129 1    
     5    2    3 2    
     6    2    4 am   BACKBONE|DICT|INTERRES
     7    4    5 1    
     8    4  130 1    
     9    5    6 1    
    10    5   65 1    
    11    5  131 1    
    12    6    7 1    
    13    6  132 1    
    14    6  133 1    
    15    7    8 1    
    16    8    9 1    
    17    8  134 1    
    18    8  135 1    
    19    9   10 ar   
    20    9   14 ar   
    21   10   11 ar   
    22   10  136 1    
    23   11   12 ar   
    24   11  126 1    
    25   12   13 ar   
    26   12  137 1    
    27   13   14 ar   
    28   13   15 1    
    29   14  138 1    
    30   15   16 1    
    31   15  139 1    
    32   15  140 1    
    33   16   17 1    
    34   17   18 1    
    35   17  141 1    
    36   17  142 1    
    37   18   19 1    
    38   18   67 1    
    39   18  143 1    
    40   19   20 am   BACKBONE|DICT|INTERRES
    41   19  144 1    
    42   20   21 2    
    43   20   22 1    
    44   22   23 1    
    45   22   24 1    
    46   22  145 1    
    47   23  146 1    
    48   23  147 1    
    49   23  148 1    
    50   24   25 am   BACKBONE|DICT|INTERRES
    51   24  149 1    
    52   25   26 2    
    53   25   27 1    
    54   27   28 1    
    55   27   29 1    
    56   27  150 1    
    57   28  151 1    
    58   28  152 1    
    59   28  153 1    
    60   29   30 am   BACKBONE|DICT|INTERRES
    61   29  154 1    
    62   30   31 2    
    63   30   32 1    
    64   32   33 1    
    65   32   34 1    
    66   32  155 1    
    67   33  156 1    
    68   33  157 1    
    69   33  158 1    
    70   34   35 am   BACKBONE|DICT|INTERRES
    71   34  159 1    
    72   35   36 2    
    73   35   37 1    
    74   37   38 1    
    75   37   39 1    
    76   37  160 1    
    77   38  161 1    
    78   38  162 1    
    79   38  163 1    
    80   39   40 am   BACKBONE|DICT|INTERRES
    81   39  164 1    
    82   40   41 2    
    83   40   42 1    
    84   42   43 1    
    85   42   44 1    
    86   42  165 1    
    87   43  166 1    
    88   43  167 1    
    89   43  168 1    
    90   44   45 am   BACKBONE|DICT|INTERRES
    91   44  169 1    
    92   45   46 2    
    93   45   47 1    
    94   47   48 1    
    95   47   49 1    
    96   47  170 1    
    97   48  171 1    
    98   48  172 1    
    99   48  173 1    
   100   49   50 am   BACKBONE|DICT|INTERRES
   101   49  174 1    
   102   50   51 2    
   103   50   52 1    
   104   52   53 1    
   105   52   54 1    
   106   52  175 1    
   107   53  176 1    
   108   53  177 1    
   109   53  178 1    
   110   54   55 am   BACKBONE|DICT|INTERRES
   111   54  179 1    
   112   55   56 2    
   113   55   57 1    
   114   57   58 1    
   115   57   59 1    
   116   57  180 1    
   117   58  181 1    
   118   58  182 1    
   119   58  183 1    
   120   59   60 am   BACKBONE|DICT|INTERRES
   121   59  184 1    
   122   60   61 2    
   123   60   62 1    
   124   62   63 1    
   125   62   64 1    
   126   62  185 1    
   127   63  186 1    
   128   63  187 1    
   129   63  188 1    
   130   64   65 am   BACKBONE|DICT|INTERRES
   131   64  189 1    
   132   65   66 2    
   133   67   68 2    
   134   67   69 am   BACKBONE|DICT|INTERRES
   135   69   70 1    
   136   69  190 1    
   137   70   71 1    
   138   70   72 1    
   139   70  191 1    
   140   71  192 1    
   141   71  193 1    
   142   71  194 1    
   143   72   73 2    
   144   72   74 am   BACKBONE|DICT|INTERRES
   145   74   75 1    
   146   74  195 1    
   147   75   76 1    
   148   75   77 1    
   149   75  196 1    
   150   76  197 1    
   151   76  198 1    
   152   76  199 1    
   153   77   78 2    
   154   77   79 am   BACKBONE|DICT|INTERRES
   155   79   80 1    
   156   79  200 1    
   157   80   81 1    
   158   80   82 1    
   159   80  201 1    
   160   81  202 1    
   161   81  203 1    
   162   81  204 1    
   163   82   83 2    
   164   82   84 am   BACKBONE|DICT|INTERRES
   165   84   85 1    
   166   84  205 1    
   167   85   86 1    
   168   85   87 1    
   169   85  206 1    
   170   86  207 1    
   171   86  208 1    
   172   86  209 1    
   173   87   88 2    
   174   87   89 am   BACKBONE|DICT|INTERRES
   175   89   90 1    
   176   89  210 1    
   177   90   91 1    
   178   90   92 1    
   179   90  211 1    
   180   91  212 1    
   181   91  213 1    
   182   91  214 1    
   183   92   93 2    
   184   92   94 am   BACKBONE|DICT|INTERRES
   185   94   95 1    
   186   94  215 1    
   187   95   96 1    
   188   95   97 1    
   189   95  216 1    
   190   96  217 1    
   191   96  218 1    
   192   96  219 1    
   193   97   98 2    
   194   97   99 am   BACKBONE|DICT|INTERRES
   195   99  100 1    
   196   99  220 1    
   197  100  101 1    
   198  100  102 1    
   199  100  221 1    
   200  101  222 1    
   201  101  223 1    
   202  101  224 1    
   203  102  103 2    
   204  102  104 am   BACKBONE|DICT|INTERRES
   205  104  105 1    
   206  104  225 1    
   207  105  106 1    
   208  105  107 1    
   209  105  226 1    
   210  106  227 1    
   211  106  228 1    
   212  106  229 1    
   213  107  108 2    
   214  107  109 am   BACKBONE|DICT|INTERRES
   215  109  110 1    
   216  109  230 1    
   217  110  111 1    
   218  110  112 1    
   219  110  231 1    
   220  111  232 1    
   221  111  233 1    
   222  111  234 1    
   223  112  113 2    
   224  112  114 am   BACKBONE|DICT|INTERRES
   225  114  115 1    
   226  114  235 1    
   227  115  116 1    
   228  115  117 1    
   229  115  236 1    
   230  116  237 1    
   231  116  238 1    
   232  116  239 1    
   233  117  118 2    
   234  117  119 am   BACKBONE|DICT|INTERRES
   235  119  120 1    
   236  119  240 1    
   237  120  121 1    
   238  120  124 1    
   239  120  241 1    
   240  121  122 am   BACKBONE|DICT|INTERRES
   241  121  123 2    
   242  122  242 1    
   243  122  243 1    
   244  124  125 1    
   245  124  244 1    
   246  124  245 1    
   247  125  126 1    
   248  126  246 1    
   249  126  247 1    
@<TRIPOS>SUBSTRUCTURE
     1 UNK         1 GROUP             0       ****    0 ROOT    
