@<TRIPOS>MOLECULE
3R540
247   249    1
SMALL
USER_CHARGES


@<TRIPOS>ATOM
      1 CA          5.3747  -11.3047  -48.9256 C.3       0 UNK        -0.1800 
      2 C           4.3141  -12.1307  -48.2122 C.2       0 UNK         0.5000 
      3 O           4.3926  -12.3145  -46.9965 O.2       0 UNK        -0.5000 
      4 N           3.3202  -12.6294  -48.9578 N.am      1 UNK        -0.5000 
      5 CA          2.2056  -13.4341  -48.4497 C.3       1 UNK         0.1400 
      6 C6          1.5792  -14.3302  -49.5455 C.3       23 UNK        -0.0398 
      7 S7          2.7154  -15.6657  -50.0497 S.3       23 UNK        -0.2404 
      8 C8          2.2165  -17.0159  -48.9299 C.3       23 UNK        -0.0205 
      9 C9          0.8819  -17.6274  -49.3295 C.ar      23 UNK        -0.0193 
     10 C10         0.8183  -18.5215  -50.4017 C.ar      23 UNK        -0.1150 
     11 C11        -0.4005  -19.0911  -50.7776 C.ar      23 UNK        -0.0193 
     12 C12        -1.5638  -18.7540  -50.0814 C.ar      23 UNK        -0.1150 
     13 C13        -1.5119  -17.8704  -49.0002 C.ar      23 UNK        -0.0193 
     14 C14        -0.2848  -17.3143  -48.6246 C.ar      23 UNK        -0.1150 
     15 C15        -2.7800  -17.5361  -48.2279 C.3       23 UNK        -0.0205 
     16 S16        -3.4186  -18.9731  -47.3068 S.3       23 UNK        -0.2404 
     17 C17        -2.0013  -19.3755  -46.2332 C.3       23 UNK        -0.0398 
     18 CA         -1.1520  -20.5530  -46.7811 C.3       11 UNK         0.1400 
     19 N           0.2478  -20.4712  -46.3581 N.am      11 UNK        -0.5000 
     20 C           1.2286  -21.2811  -46.7840 C.2       10 UNK         0.5000 
     21 O           1.0772  -22.1552  -47.6370 O.2       10 UNK        -0.5000 
     22 CA          2.6006  -21.1245  -46.1017 C.3       10 UNK         0.1400 
     23 CB          3.3884  -19.9651  -46.7286 C.3       10 UNK        -0.1800 
     24 N           2.4921  -20.9271  -44.6539 N.am      10 UNK        -0.5000 
     25 C           1.9681  -21.8222  -43.8023 C.2       9 UNK         0.5000 
     26 O           1.5832  -22.9416  -44.1387 O.2       9 UNK        -0.5000 
     27 CA          1.7772  -21.3674  -42.3430 C.3       9 UNK         0.1400 
     28 CB          3.0896  -21.4656  -41.5517 C.3       9 UNK        -0.1800 
     29 N           1.2411  -20.0087  -42.2515 N.am      9 UNK        -0.5000 
     30 C           0.0425  -19.6359  -42.7239 C.2       8 UNK         0.5000 
     31 O          -0.7704  -20.4128  -43.2227 O.2       8 UNK        -0.5000 
     32 CA         -0.2770  -18.1337  -42.6892 C.3       8 UNK         0.1400 
     33 CB         -0.8251  -17.7286  -41.3131 C.3       8 UNK        -0.1800 
     34 N           0.8965  -17.3300  -43.0432 N.am      8 UNK        -0.5000 
     35 C           1.3980  -17.2604  -44.2858 C.2       7 UNK         0.5000 
     36 O           0.8576  -17.7722  -45.2636 O.2       7 UNK        -0.5000 
     37 CA          2.7396  -16.5333  -44.4761 C.3       7 UNK         0.1400 
     38 CB          2.5212  -15.0672  -44.8689 C.3       7 UNK        -0.1800 
     39 N           3.5948  -16.6211  -43.2938 N.am      7 UNK        -0.5000 
     40 C           4.2556  -17.7361  -42.9493 C.2       6 UNK         0.5000 
     41 O           4.2256  -18.7714  -43.6144 O.2       6 UNK        -0.5000 
     42 CA          5.0417  -17.7140  -41.6243 C.3       6 UNK         0.1400 
     43 CB          6.4858  -17.2506  -41.8644 C.3       6 UNK        -0.1800 
     44 N           4.4302  -16.8728  -40.5937 N.am      6 UNK        -0.5000 
     45 C           3.2142  -17.0665  -40.0658 C.2       5 UNK         0.5000 
     46 O           2.4771  -17.9974  -40.3957 O.2       5 UNK        -0.5000 
     47 CA          2.7096  -16.0332  -39.0329 C.3       5 UNK         0.1400 
     48 CB          3.7802  -15.0097  -38.5913 C.3       5 UNK        -0.1800 
     49 N           1.5055  -15.3299  -39.4943 N.am      5 UNK        -0.5000 
     50 C           1.3626  -14.6613  -40.6468 C.2       4 UNK         0.5000 
     51 O           2.2464  -14.5655  -41.5030 O.2       4 UNK        -0.5000 
     52 CA          0.0053  -13.9888  -40.8935 C.3       4 UNK         0.1400 
     53 CB          0.0140  -12.5357  -40.3942 C.3       4 UNK        -0.1800 
     54 N          -0.2459  -14.0036  -42.3295 N.am      4 UNK        -0.5000 
     55 C          -1.4169  -14.2511  -42.9270 C.2       3 UNK         0.5000 
     56 O          -2.4710  -14.4304  -42.3154 O.2       3 UNK        -0.5000 
     57 CA         -1.3841  -14.3314  -44.4694 C.3       3 UNK         0.1400 
     58 CB         -2.7796  -14.2336  -45.1189 C.3       3 UNK        -0.1800 
     59 N          -0.4519  -13.3702  -45.0719 N.am      3 UNK        -0.5000 
     60 C          -0.5017  -12.0299  -45.0091 C.2       2 UNK         0.5000 
     61 O          -1.3954  -11.3998  -44.4436 O.2       2 UNK        -0.5000 
     62 CA          0.6606  -11.2559  -45.6683 C.3       2 UNK         0.1400 
     63 CB          1.5556  -10.6261  -44.5888 C.3       2 UNK        -0.1800 
     64 N           1.5038  -12.0769  -46.5425 N.am      2 UNK        -0.5000 
     65 C           1.1597  -12.5398  -47.7507 C.2       1 UNK         0.5000 
     66 O           0.0854  -12.2882  -48.2977 O.2       1 UNK        -0.5000 
     67 C          -1.7709  -21.9183  -46.4237 C.2       11 UNK         0.5000 
     68 O          -2.3137  -22.5877  -47.3017 O.2       11 UNK        -0.5000 
     69 N          -1.6272  -22.3285  -45.1553 N.am      12 UNK        -0.5000 
     70 CA         -2.1057  -23.6051  -44.6242 C.3       12 UNK         0.1400 
     71 CB         -1.8697  -23.6495  -43.1075 C.3       12 UNK        -0.1800 
     72 C          -1.4714  -24.8262  -45.3144 C.2       12 UNK         0.5000 
     73 O          -2.1866  -25.7752  -45.6364 O.2       12 UNK        -0.5000 
     74 N          -0.1589  -24.7632  -45.5809 N.am      13 UNK        -0.5000 
     75 CA          0.5930  -25.7805  -46.3224 C.3       13 UNK         0.1400 
     76 CB          2.0916  -25.4489  -46.2651 C.3       13 UNK        -0.1800 
     77 C           0.1287  -25.9404  -47.7843 C.2       13 UNK         0.5000 
     78 O           0.1915  -27.0452  -48.3241 O.2       13 UNK        -0.5000 
     79 N          -0.3614  -24.8475  -48.3824 N.am      14 UNK        -0.5000 
     80 CA         -0.9555  -24.8036  -49.7186 C.3       14 UNK         0.1400 
     81 CB         -0.6790  -23.4180  -50.3217 C.3       14 UNK        -0.1800 
     82 C          -2.4685  -25.1196  -49.7189 C.2       14 UNK         0.5000 
     83 O          -3.1022  -25.0126  -50.7696 O.2       14 UNK        -0.5000 
     84 N          -3.0291  -25.4804  -48.5538 N.am      15 UNK        -0.5000 
     85 CA         -4.4399  -25.7894  -48.2855 C.3       15 UNK         0.1400 
     86 CB         -4.9282  -26.9772  -49.1413 C.3       15 UNK        -0.1800 
     87 C          -5.3864  -24.5715  -48.3690 C.2       15 UNK         0.5000 
     88 O          -6.6046  -24.7542  -48.3553 O.2       15 UNK        -0.5000 
     89 N          -4.8140  -23.3594  -48.4115 N.am      16 UNK        -0.5000 
     90 CA         -5.4570  -22.0441  -48.3719 C.3       16 UNK         0.1400 
     91 CB         -5.9256  -21.7407  -46.9342 C.3       16 UNK        -0.1800 
     92 C          -6.5662  -21.8359  -49.4247 C.2       16 UNK         0.5000 
     93 O          -7.5900  -21.2184  -49.1233 O.2       16 UNK        -0.5000 
     94 N          -6.3529  -22.3571  -50.6413 N.am      17 UNK        -0.5000 
     95 CA         -7.2818  -22.2059  -51.7625 C.3       17 UNK         0.1400 
     96 CB         -6.9617  -23.2377  -52.8543 C.3       17 UNK        -0.1800 
     97 C          -7.2785  -20.7679  -52.3124 C.2       17 UNK         0.5000 
     98 O          -8.3520  -20.1963  -52.5058 O.2       17 UNK        -0.5000 
     99 N          -6.0705  -20.2092  -52.4932 N.am      18 UNK        -0.5000 
    100 CA        -5.7588  -18.8168  -52.8378 C.3       18 UNK         0.1400 
    101 CB        -5.8948  -17.9412  -51.5757 C.3       18 UNK        -0.1800 
    102 C         -6.5442  -18.2565  -54.0476 C.2       18 UNK         0.5000 
    103 O         -6.9989  -17.1108  -54.0084 O.2       18 UNK        -0.5000 
    104 N         -6.7055  -19.0757  -55.0931 N.am      19 UNK        -0.5000 
    105 CA        -7.4808  -18.7652  -56.2919 C.3       19 UNK         0.1400 
    106 CB        -8.8734  -19.4186  -56.1697 C.3       19 UNK        -0.1800 
    107 C         -6.6791  -19.1991  -57.5312 C.2       19 UNK         0.5000 
    108 O         -5.5038  -18.8428  -57.6397 O.2       19 UNK        -0.5000 
    109 N         -7.3052  -19.9644  -58.4390 N.am      20 UNK        -0.5000 
    110 CA        -6.6690  -20.5609  -59.6206 C.3       20 UNK         0.1400 
    111 CB        -7.7477  -21.2004  -60.5081 C.3       20 UNK        -0.1800 
    112 C         -5.5821  -21.5921  -59.2544 C.2       20 UNK         0.5000 
    113 O         -4.5918  -21.7217  -59.9751 O.2       20 UNK        -0.5000 
    114 N         -5.7738  -22.2610  -58.1125 N.am      21 UNK        -0.5000 
    115 CA        -4.7446  -22.9690  -57.3651 C.3       21 UNK         0.1400 
    116 CB        -5.2281  -24.3947  -57.0587 C.3       21 UNK        -0.1800 
    117 C         -4.5285  -22.1821  -56.0653 C.2       21 UNK         0.5000 
    118 O         -5.5034  -21.6948  -55.4832 O.2       21 UNK        -0.5000 
    119 N         -3.2694  -22.0582  -55.6352 N.am      22 UNK        -0.5000 
    120 CA        -2.9109  -21.3691  -54.3869 C.3       22 UNK         0.1400 
    121 C         -3.2203  -22.2077  -53.1142 C.2       22 UNK         0.5000 
    122 N         -3.1004  -23.5278  -53.1636 N.am      22 UNK        -0.7600 
    123 O         -3.6081  -21.6590  -52.0867 O.2       22 UNK        -0.5000 
    124 C124       -1.4414  -20.8748  -54.4127 C.3       23 UNK        -0.0398 
    125 S125       -1.1894  -19.3703  -53.4124 S.3       23 UNK        -0.2404 
    126 C126       -0.4646  -20.0959  -51.9127 C.3       23 UNK        -0.0205 
    127 H127        5.1790  -11.2303  -49.9956 H         1 UNK         0.0600 
    128 H128        6.3565  -11.7582  -48.7901 H         1 UNK         0.0600 
    129 H129        5.4038  -10.2960  -48.5137 H         1 UNK         0.0600 
    130 H130        3.3022  -12.4359  -49.9491 H         1 UNK         0.3000 
    131 H131        2.6021  -14.1042  -47.6858 H         1 UNK         0.0600 
    132 H132        0.6437  -14.7737  -49.2041 H         1 UNK         0.0800 
    133 H133        1.3218  -13.7386  -50.4255 H         1 UNK         0.0800 
    134 H134        2.1842  -16.6538  -47.9012 H         1 UNK         0.0800 
    135 H135        2.9853  -17.7893  -48.9537 H         1 UNK         0.0800 
    136 H136        1.7205  -18.7743  -50.9409 H         1 UNK         0.1150 
    137 H137       -2.5073  -19.1980  -50.3688 H         1 UNK         0.1150 
    138 H138       -0.2366  -16.6405  -47.7807 H         1 UNK         0.1150 
    139 H139       -2.6078  -16.7123  -47.5334 H         1 UNK         0.0800 
    140 H140       -3.5452  -17.1943  -48.9261 H         1 UNK         0.0800 
    141 H141       -1.3941  -18.4767  -46.1433 H         1 UNK         0.0800 
    142 H142       -2.3689  -19.5749  -45.2256 H         1 UNK         0.0800 
    143 H143       -1.1331  -20.4890  -47.8705 H         1 UNK         0.0600 
    144 H144        0.4775  -19.7356  -45.6999 H         1 UNK         0.3000 
    145 H145        3.1624  -22.0458  -46.2682 H         1 UNK         0.0600 
    146 H146        4.3772  -19.8693  -46.2797 H         1 UNK         0.0600 
    147 H147        3.5292  -20.1251  -47.7983 H         1 UNK         0.0600 
    148 H148        2.8703  -19.0148  -46.6065 H         1 UNK         0.0600 
    149 H149        2.8542  -20.0545  -44.2832 H         1 UNK         0.3000 
    150 H150        1.0528  -22.0394  -41.8783 H         1 UNK         0.0600 
    151 H151        3.4649  -22.4896  -41.5492 H         1 UNK         0.0600 
    152 H152        2.9472  -21.1678  -40.5126 H         1 UNK         0.0600 
    153 H153        3.8689  -20.8341  -41.9766 H         1 UNK         0.0600 
    154 H154        1.8240  -19.3115  -41.8006 H         1 UNK         0.3000 
    155 H155       -1.0598  -17.9439  -43.4269 H         1 UNK         0.0600 
    156 H156       -1.1603  -16.6946  -41.3096 H         1 UNK         0.0600 
    157 H157       -0.0866  -17.8474  -40.5217 H         1 UNK         0.0600 
    158 H158       -1.6870  -18.3412  -41.0455 H         1 UNK         0.0600 
    159 H159        1.4322  -16.9377  -42.2817 H         1 UNK         0.3000 
    160 H160        3.2534  -17.0171  -45.3092 H         1 UNK         0.0600 
    161 H161        2.0884  -14.4834  -44.0595 H         1 UNK         0.0600 
    162 H162        1.8463  -15.0023  -45.7210 H         1 UNK         0.0600 
    163 H163        3.4603  -14.5936  -45.1565 H         1 UNK         0.0600 
    164 H164        3.6054  -15.8211  -42.6715 H         1 UNK         0.3000 
    165 H165        5.0707  -18.7367  -41.2432 H         1 UNK         0.0600 
    166 H166        6.5242  -16.2200  -42.2198 H         1 UNK         0.0600 
    167 H167        7.0779  -17.3141  -40.9512 H         1 UNK         0.0600 
    168 H168        6.9768  -17.8746  -42.6125 H         1 UNK         0.0600 
    169 H169        4.9618  -16.0697  -40.2909 H         1 UNK         0.3000 
    170 H170        2.4180  -16.6071  -38.1522 H         1 UNK         0.0600 
    171 H171        4.6591  -15.5078  -38.1797 H         1 UNK         0.0600 
    172 H172        4.1078  -14.3729  -39.4140 H         1 UNK         0.0600 
    173 H173        3.3912  -14.3572  -37.8096 H         1 UNK         0.0600 
    174 H174        0.7154  -15.3776  -38.8663 H         1 UNK         0.3000 
    175 H175       -0.7684  -14.5484  -40.3643 H         1 UNK         0.0600 
    176 H176       -0.9467  -12.0530  -40.5747 H         1 UNK         0.0600 
    177 H177        0.2057  -12.4907  -39.3215 H         1 UNK         0.0600 
    178 H178        0.7834  -11.9441  -40.8926 H         1 UNK         0.0600 
    179 H179        0.5862  -13.8977  -42.8925 H         1 UNK         0.3000 
    180 H180       -0.9918  -15.3215  -44.7056 H         1 UNK         0.0600 
    181 H181       -2.7143  -14.3045  -46.2047 H         1 UNK         0.0600 
    182 H182       -3.4256  -15.0445  -44.7805 H         1 UNK         0.0600 
    183 H183       -3.2772  -13.2952  -44.8730 H         1 UNK         0.0600 
    184 H184        0.3251  -13.7681  -45.5751 H         1 UNK         0.3000 
    185 H185        0.2229  -10.4534  -46.2656 H         1 UNK         0.0600 
    186 H186        2.3470  -10.0232  -45.0348 H         1 UNK         0.0600 
    187 H187        0.9800   -9.9704  -43.9340 H         1 UNK         0.0600 
    188 H188        2.0249  -11.3858  -43.9621 H         1 UNK         0.0600 
    189 H189        2.4513  -12.2543  -46.2256 H         1 UNK         0.3000 
    190 H190       -1.1774  -21.7036  -44.4897 H         1 UNK         0.3000 
    191 H191       -3.1821  -23.6491  -44.8024 H         1 UNK         0.0600 
    192 H192       -2.2450  -24.5802  -42.6802 H         1 UNK         0.0600 
    193 H193       -2.3832  -22.8296  -42.6050 H         1 UNK         0.0600 
    194 H194       -0.8096  -23.5786  -42.8627 H         1 UNK         0.0600 
    195 H195        0.3727  -23.9681  -45.2357 H         1 UNK         0.3000 
    196 H196        0.4371  -26.7383  -45.8220 H         1 UNK         0.0600 
    197 H197        2.6800  -26.2020  -46.7906 H         1 UNK         0.0600 
    198 H198        2.4493  -25.4168  -45.2359 H         1 UNK         0.0600 
    199 H199        2.3067  -24.4837  -46.7244 H         1 UNK         0.0600 
    200 H200       -0.3560  -23.9725  -47.8711 H         1 UNK         0.3000 
    201 H201       -0.4694  -25.5482  -50.3519 H         1 UNK         0.0600 
    202 H202        0.3819  -23.1707  -50.2797 H         1 UNK         0.0600 
    203 H203       -1.2254  -22.6337  -49.7966 H         1 UNK         0.0600 
    204 H204       -0.9741  -23.3838  -51.3696 H         1 UNK         0.0600 
    205 H205       -2.4314  -25.5093  -47.7360 H         1 UNK         0.3000 
    206 H206       -4.4714  -26.1103  -47.2436 H         1 UNK         0.0600 
    207 H207       -4.2438  -27.8226  -49.0710 H         1 UNK         0.0600 
    208 H208       -5.9056  -27.3245  -48.8049 H         1 UNK         0.0600 
    209 H209       -5.0259  -26.7086  -50.1933 H         1 UNK         0.0600 
    210 H210       -3.8008  -23.3249  -48.3479 H         1 UNK         0.3000 
    211 H211       -4.6754  -21.3269  -48.6240 H         1 UNK         0.0600 
    212 H212       -6.7278  -22.4105  -46.6229 H         1 UNK         0.0600 
    213 H213       -6.2950  -20.7182  -46.8483 H         1 UNK         0.0600 
    214 H214       -5.1048  -21.8453  -46.2243 H         1 UNK         0.0600 
    215 H215       -5.4727  -22.8191  -50.8266 H         1 UNK         0.3000 
    216 H216       -8.2901  -22.4173  -51.3999 H         1 UNK         0.0600 
    217 H217       -5.9440  -23.1345  -53.2253 H         1 UNK         0.0600 
    218 H218       -7.6318  -23.1243  -53.7074 H         1 UNK         0.0600 
    219 H219       -7.0772  -24.2549  -52.4799 H         1 UNK         0.0600 
    220 H220       -5.2591  -20.7900  -52.2953 H         1 UNK         0.3000 
    221 H221       -4.7081  -18.8013  -53.1291 H         1 UNK         0.0600 
    222 H222       -6.9282  -17.8944  -51.2304 H         1 UNK         0.0600 
    223 H223       -5.2867  -18.3316  -50.7591 H         1 UNK         0.0600 
    224 H224       -5.5619  -16.9201  -51.7650 H         1 UNK         0.0600 
    225 H225       -6.2692  -19.9954  -55.0785 H         1 UNK         0.3000 
    226 H226       -7.6169  -17.6863  -56.3869 H         1 UNK         0.0600 
    227 H227       -9.3879  -19.0663  -55.2752 H         1 UNK         0.0600 
    228 H228       -9.5097  -19.1690  -57.0195 H         1 UNK         0.0600 
    229 H229       -8.8062  -20.5052  -56.0995 H         1 UNK         0.0600 
    230 H230       -8.2748  -20.1995  -58.2829 H         1 UNK         0.3000 
    231 H231       -6.1886  -19.7598  -60.1862 H         1 UNK         0.0600 
    232 H232       -7.3066  -21.6331  -61.4071 H         1 UNK         0.0600 
    233 H233       -8.4820  -20.4621  -60.8310 H         1 UNK         0.0600 
    234 H234       -8.2784  -21.9978  -59.9865 H         1 UNK         0.0600 
    235 H235       -6.5945  -22.0295  -57.5702 H         1 UNK         0.3000 
    236 H236       -3.8090  -23.0163  -57.9261 H         1 UNK         0.0600 
    237 H237       -5.4234  -24.9487  -57.9769 H         1 UNK         0.0600 
    238 H238       -4.4759  -24.9490  -56.4963 H         1 UNK         0.0600 
    239 H239       -6.1451  -24.3925  -56.4674 H         1 UNK         0.0600 
    240 H240       -2.5164  -22.4835  -56.1563 H         1 UNK         0.3000 
    241 H241       -3.5453  -20.4827  -54.3339 H         1 UNK         0.0600 
    242 H242       -2.8127  -23.9956  -54.0066 H         1 UNK         0.3800 
    243 H243       -3.2577  -24.0722  -52.3178 H         1 UNK         0.3800 
    244 H244       -0.7451  -21.6606  -54.1136 H         1 UNK         0.0800 
    245 H245       -1.1592  -20.6065  -55.4318 H         1 UNK         0.0800 
    246 H246        0.5270  -20.4901  -52.1401 H         1 UNK         0.0800 
    247 H247       -1.0678  -20.9422  -51.5893 H         1 UNK         0.0800 
@<TRIPOS>BOND
     1    1    2 1    
     2    1  127 1    
     3    1  128 1    
     4    1  129 1    
     5    2    3 2    
     6    2    4 am   BACKBONE|DICT|INTERRES
     7    4    5 1    
     8    4  130 1    
     9    5    6 1    
    10    5   65 1    
    11    5  131 1    
    12    6    7 1    
    13    6  132 1    
    14    6  133 1    
    15    7    8 1    
    16    8    9 1    
    17    8  134 1    
    18    8  135 1    
    19    9   10 ar   
    20    9   14 ar   
    21   10   11 ar   
    22   10  136 1    
    23   11   12 ar   
    24   11  126 1    
    25   12   13 ar   
    26   12  137 1    
    27   13   14 ar   
    28   13   15 1    
    29   14  138 1    
    30   15   16 1    
    31   15  139 1    
    32   15  140 1    
    33   16   17 1    
    34   17   18 1    
    35   17  141 1    
    36   17  142 1    
    37   18   19 1    
    38   18   67 1    
    39   18  143 1    
    40   19   20 am   BACKBONE|DICT|INTERRES
    41   19  144 1    
    42   20   21 2    
    43   20   22 1    
    44   22   23 1    
    45   22   24 1    
    46   22  145 1    
    47   23  146 1    
    48   23  147 1    
    49   23  148 1    
    50   24   25 am   BACKBONE|DICT|INTERRES
    51   24  149 1    
    52   25   26 2    
    53   25   27 1    
    54   27   28 1    
    55   27   29 1    
    56   27  150 1    
    57   28  151 1    
    58   28  152 1    
    59   28  153 1    
    60   29   30 am   BACKBONE|DICT|INTERRES
    61   29  154 1    
    62   30   31 2    
    63   30   32 1    
    64   32   33 1    
    65   32   34 1    
    66   32  155 1    
    67   33  156 1    
    68   33  157 1    
    69   33  158 1    
    70   34   35 am   BACKBONE|DICT|INTERRES
    71   34  159 1    
    72   35   36 2    
    73   35   37 1    
    74   37   38 1    
    75   37   39 1    
    76   37  160 1    
    77   38  161 1    
    78   38  162 1    
    79   38  163 1    
    80   39   40 am   BACKBONE|DICT|INTERRES
    81   39  164 1    
    82   40   41 2    
    83   40   42 1    
    84   42   43 1    
    85   42   44 1    
    86   42  165 1    
    87   43  166 1    
    88   43  167 1    
    89   43  168 1    
    90   44   45 am   BACKBONE|DICT|INTERRES
    91   44  169 1    
    92   45   46 2    
    93   45   47 1    
    94   47   48 1    
    95   47   49 1    
    96   47  170 1    
    97   48  171 1    
    98   48  172 1    
    99   48  173 1    
   100   49   50 am   BACKBONE|DICT|INTERRES
   101   49  174 1    
   102   50   51 2    
   103   50   52 1    
   104   52   53 1    
   105   52   54 1    
   106   52  175 1    
   107   53  176 1    
   108   53  177 1    
   109   53  178 1    
   110   54   55 am   BACKBONE|DICT|INTERRES
   111   54  179 1    
   112   55   56 2    
   113   55   57 1    
   114   57   58 1    
   115   57   59 1    
   116   57  180 1    
   117   58  181 1    
   118   58  182 1    
   119   58  183 1    
   120   59   60 am   BACKBONE|DICT|INTERRES
   121   59  184 1    
   122   60   61 2    
   123   60   62 1    
   124   62   63 1    
   125   62   64 1    
   126   62  185 1    
   127   63  186 1    
   128   63  187 1    
   129   63  188 1    
   130   64   65 am   BACKBONE|DICT|INTERRES
   131   64  189 1    
   132   65   66 2    
   133   67   68 2    
   134   67   69 am   BACKBONE|DICT|INTERRES
   135   69   70 1    
   136   69  190 1    
   137   70   71 1    
   138   70   72 1    
   139   70  191 1    
   140   71  192 1    
   141   71  193 1    
   142   71  194 1    
   143   72   73 2    
   144   72   74 am   BACKBONE|DICT|INTERRES
   145   74   75 1    
   146   74  195 1    
   147   75   76 1    
   148   75   77 1    
   149   75  196 1    
   150   76  197 1    
   151   76  198 1    
   152   76  199 1    
   153   77   78 2    
   154   77   79 am   BACKBONE|DICT|INTERRES
   155   79   80 1    
   156   79  200 1    
   157   80   81 1    
   158   80   82 1    
   159   80  201 1    
   160   81  202 1    
   161   81  203 1    
   162   81  204 1    
   163   82   83 2    
   164   82   84 am   BACKBONE|DICT|INTERRES
   165   84   85 1    
   166   84  205 1    
   167   85   86 1    
   168   85   87 1    
   169   85  206 1    
   170   86  207 1    
   171   86  208 1    
   172   86  209 1    
   173   87   88 2    
   174   87   89 am   BACKBONE|DICT|INTERRES
   175   89   90 1    
   176   89  210 1    
   177   90   91 1    
   178   90   92 1    
   179   90  211 1    
   180   91  212 1    
   181   91  213 1    
   182   91  214 1    
   183   92   93 2    
   184   92   94 am   BACKBONE|DICT|INTERRES
   185   94   95 1    
   186   94  215 1    
   187   95   96 1    
   188   95   97 1    
   189   95  216 1    
   190   96  217 1    
   191   96  218 1    
   192   96  219 1    
   193   97   98 2    
   194   97   99 am   BACKBONE|DICT|INTERRES
   195   99  100 1    
   196   99  220 1    
   197  100  101 1    
   198  100  102 1    
   199  100  221 1    
   200  101  222 1    
   201  101  223 1    
   202  101  224 1    
   203  102  103 2    
   204  102  104 am   BACKBONE|DICT|INTERRES
   205  104  105 1    
   206  104  225 1    
   207  105  106 1    
   208  105  107 1    
   209  105  226 1    
   210  106  227 1    
   211  106  228 1    
   212  106  229 1    
   213  107  108 2    
   214  107  109 am   BACKBONE|DICT|INTERRES
   215  109  110 1    
   216  109  230 1    
   217  110  111 1    
   218  110  112 1    
   219  110  231 1    
   220  111  232 1    
   221  111  233 1    
   222  111  234 1    
   223  112  113 2    
   224  112  114 am   BACKBONE|DICT|INTERRES
   225  114  115 1    
   226  114  235 1    
   227  115  116 1    
   228  115  117 1    
   229  115  236 1    
   230  116  237 1    
   231  116  238 1    
   232  116  239 1    
   233  117  118 2    
   234  117  119 am   BACKBONE|DICT|INTERRES
   235  119  120 1    
   236  119  240 1    
   237  120  121 1    
   238  120  124 1    
   239  120  241 1    
   240  121  122 am   BACKBONE|DICT|INTERRES
   241  121  123 2    
   242  122  242 1    
   243  122  243 1    
   244  124  125 1    
   245  124  244 1    
   246  124  245 1    
   247  125  126 1    
   248  126  246 1    
   249  126  247 1    
@<TRIPOS>SUBSTRUCTURE
     1 UNK         1 GROUP             0       ****    0 ROOT    
