@<TRIPOS>MOLECULE
3R540
247   249    1
SMALL
USER_CHARGES


@<TRIPOS>ATOM
      1 CA          4.5978  -14.2559  -45.5678 C.3       0 UNK        -0.1800 
      2 C           5.0544  -15.2642  -46.6122 C.2       0 UNK         0.5000 
      3 O           5.9534  -14.9699  -47.3998 O.2       0 UNK        -0.5000 
      4 N           4.4393  -16.4481  -46.6213 N.am      1 UNK        -0.5000 
      5 CA          4.7012  -17.5469  -47.5440 C.3       1 UNK         0.1400 
      6 C6          4.1445  -17.2812  -48.9704 C.3       23 UNK        -0.0398 
      7 S7          2.3266  -17.0933  -49.0571 S.3       23 UNK        -0.2404 
      8 C8          2.1486  -15.6144  -50.0935 C.3       23 UNK        -0.0205 
      9 C9          0.7550  -15.5365  -50.6979 C.ar      23 UNK        -0.0193 
     10 C10         0.4859  -16.1801  -51.9106 C.ar      23 UNK        -0.1150 
     11 C11        -0.7771  -16.0862  -52.5016 C.ar      23 UNK        -0.0193 
     12 C12        -1.7738  -15.3416  -51.8670 C.ar      23 UNK        -0.1150 
     13 C13        -1.5269  -14.7123  -50.6446 C.ar      23 UNK        -0.0193 
     14 C14        -0.2584  -14.8104  -50.0630 C.ar      23 UNK        -0.1150 
     15 C15        -2.6361  -13.9138  -49.9775 C.3       23 UNK        -0.0205 
     16 S16        -3.9201  -15.0005  -49.2779 S.3       23 UNK        -0.2404 
     17 C17        -3.1888  -15.4657  -47.6758 C.3       23 UNK        -0.0398 
     18 CA         -2.3767  -16.7831  -47.7072 C.3       11 UNK         0.1400 
     19 N          -1.4940  -16.8505  -46.5429 N.am      11 UNK        -0.5000 
     20 C          -0.5319  -17.7622  -46.3505 C.2       10 UNK         0.5000 
     21 O          -0.2870  -18.6803  -47.1287 O.2       10 UNK        -0.5000 
     22 CA          0.2523  -17.6456  -45.0318 C.3       10 UNK         0.1400 
     23 CB          1.2546  -16.4897  -45.1501 C.3       10 UNK        -0.1800 
     24 N          -0.5927  -17.3937  -43.8627 N.am      10 UNK        -0.5000 
     25 C          -1.7324  -18.0240  -43.5382 C.2       9 UNK         0.5000 
     26 O          -2.1433  -19.0284  -44.1169 O.2       9 UNK        -0.5000 
     27 CA         -2.5990  -17.4036  -42.4223 C.3       9 UNK         0.1400 
     28 CB         -2.5144  -18.2461  -41.1412 C.3       9 UNK        -0.1800 
     29 N          -2.2619  -16.0160  -42.0966 N.am      9 UNK        -0.5000 
     30 C          -2.2639  -14.9684  -42.9359 C.2       8 UNK         0.5000 
     31 O          -2.6567  -15.0258  -44.1029 O.2       8 UNK        -0.5000 
     32 CA         -1.6597  -13.6548  -42.3932 C.3       8 UNK         0.1400 
     33 CB         -2.7739  -12.6685  -42.0128 C.3       8 UNK        -0.1800 
     34 N          -0.7742  -13.8486  -41.2356 N.am      8 UNK        -0.5000 
     35 C           0.3797  -14.5329  -41.2516 C.2       7 UNK         0.5000 
     36 O           0.8582  -15.0287  -42.2725 O.2       7 UNK        -0.5000 
     37 CA          1.0629  -14.7360  -39.8901 C.3       7 UNK         0.1400 
     38 CB          0.2035  -15.6230  -38.9700 C.3       7 UNK        -0.1800 
     39 N           2.3707  -15.3702  -40.0473 N.am      7 UNK        -0.5000 
     40 C           3.4661  -15.0437  -39.3479 C.2       6 UNK         0.5000 
     41 O           3.4942  -14.1225  -38.5298 O.2       6 UNK        -0.5000 
     42 CA          4.7449  -15.8857  -39.5519 C.3       6 UNK         0.1400 
     43 CB          5.0304  -16.7367  -38.3037 C.3       6 UNK        -0.1800 
     44 N           4.7008  -16.7737  -40.7124 N.am      6 UNK        -0.5000 
     45 C           4.8123  -16.3811  -41.9865 C.2       5 UNK         0.5000 
     46 O           5.0185  -15.2146  -42.3204 O.2       5 UNK        -0.5000 
     47 CA          4.6764  -17.4662  -43.0753 C.3       5 UNK         0.1400 
     48 CB          6.0582  -17.8155  -43.6493 C.3       5 UNK        -0.1800 
     49 N           4.0071  -18.7096  -42.6706 N.am      5 UNK        -0.5000 
     50 C           2.7758  -18.8265  -42.1508 C.2       4 UNK         0.5000 
     51 O           2.0733  -17.8637  -41.8438 O.2       4 UNK        -0.5000 
     52 CA          2.2552  -20.2572  -41.9159 C.3       4 UNK         0.1400 
     53 CB          0.7215  -20.3423  -41.9850 C.3       4 UNK        -0.1800 
     54 N           2.8178  -21.2058  -42.8790 N.am      4 UNK        -0.5000 
     55 C           3.6585  -22.2044  -42.5817 C.2       3 UNK         0.5000 
     56 O           4.1262  -22.3913  -41.4581 O.2       3 UNK        -0.5000 
     57 CA          4.0326  -23.1740  -43.7209 C.3       3 UNK         0.1400 
     58 CB          3.2689  -24.4983  -43.5619 C.3       3 UNK        -0.1800 
     59 N           3.7722  -22.6463  -45.0629 N.am      3 UNK        -0.5000 
     60 C           4.5160  -21.7173  -45.6762 C.2       2 UNK         0.5000 
     61 O           5.5038  -21.1938  -45.1555 O.2       2 UNK        -0.5000 
     62 CA          4.1122  -21.3419  -47.1216 C.3       2 UNK         0.1400 
     63 CB          2.6061  -21.5312  -47.4186 C.3       2 UNK        -0.1800 
     64 N           4.5348  -19.9898  -47.5008 N.am      2 UNK        -0.5000 
     65 C           4.1504  -18.8446  -46.9204 C.2       1 UNK         0.5000 
     66 O           3.3925  -18.7837  -45.9473 O.2       1 UNK        -0.5000 
     67 C          -3.2756  -18.0349  -47.8208 C.2       11 UNK         0.5000 
     68 O          -3.3946  -18.6129  -48.9018 O.2       11 UNK        -0.5000 
     69 N          -3.8453  -18.4656  -46.6856 N.am      12 UNK        -0.5000 
     70 CA         -4.6628  -19.6737  -46.5800 C.3       12 UNK         0.1400 
     71 CB         -5.4187  -19.6704  -45.2427 C.3       12 UNK        -0.1800 
     72 C          -3.8300  -20.9574  -46.7395 C.2       12 UNK         0.5000 
     73 O          -4.2772  -21.8877  -47.4101 O.2       12 UNK        -0.5000 
     74 N          -2.6258  -20.9739  -46.1520 N.am      13 UNK        -0.5000 
     75 CA         -1.6576  -22.0652  -46.2622 C.3       13 UNK         0.1400 
     76 CB         -0.5094  -21.8352  -45.2674 C.3       13 UNK        -0.1800 
     77 C          -1.1258  -22.2535  -47.6956 C.2       13 UNK         0.5000 
     78 O          -0.9415  -23.3929  -48.1229 O.2       13 UNK        -0.5000 
     79 N          -0.9153  -21.1441  -48.4175 N.am      14 UNK        -0.5000 
     80 CA         -0.5488  -21.1326  -49.8329 C.3       14 UNK         0.1400 
     81 CB         -0.0952  -19.7244  -50.2408 C.3       14 UNK        -0.1800 
     82 C          -1.6899  -21.6203  -50.7409 C.2       14 UNK         0.5000 
     83 O          -1.4253  -22.3610  -51.6880 O.2       14 UNK        -0.5000 
     84 N          -2.9304  -21.2151  -50.4292 N.am      15 UNK        -0.5000 
     85 CA         -4.1367  -21.6489  -51.1313 C.3       15 UNK         0.1400 
     86 CB         -5.3372  -20.7926  -50.6976 C.3       15 UNK        -0.1800 
     87 C          -4.4269  -23.1442  -50.9274 C.2       15 UNK         0.5000 
     88 O          -4.6498  -23.8593  -51.9048 O.2       15 UNK        -0.5000 
     89 N          -4.4454  -23.5862  -49.6607 N.am      16 UNK        -0.5000 
     90 CA         -4.6617  -24.9665  -49.2011 C.3       16 UNK         0.1400 
     91 CB         -3.4446  -25.8376  -49.5736 C.3       16 UNK        -0.1800 
     92 C          -5.9916  -25.6013  -49.6751 C.2       16 UNK         0.5000 
     93 O          -6.1094  -26.8274  -49.6961 O.2       16 UNK        -0.5000 
     94 N          -6.9536  -24.7539  -50.0749 N.am      17 UNK        -0.5000 
     95 CA         -8.2138  -25.0811  -50.7519 C.3       17 UNK         0.1400 
     96 CB         -9.1628  -25.8426  -49.8027 C.3       17 UNK        -0.1800 
     97 C          -8.0191  -25.7963  -52.1116 C.2       17 UNK         0.5000 
     98 O          -8.8991  -26.5509  -52.5308 O.2       17 UNK        -0.5000 
     99 N          -6.8800  -25.5522  -52.7766 N.am      18 UNK        -0.5000 
    100 CA        -6.4949  -26.1901  -54.0363 C.3       18 UNK         0.1400 
    101 CB        -5.4421  -27.2750  -53.7549 C.3       18 UNK        -0.1800 
    102 C         -5.9703  -25.1673  -55.0553 C.2       18 UNK         0.5000 
    103 O         -6.4007  -25.1862  -56.2096 O.2       18 UNK        -0.5000 
    104 N         -5.0623  -24.2840  -54.6223 N.am      19 UNK        -0.5000 
    105 CA        -4.4761  -23.2210  -55.4326 C.3       19 UNK         0.1400 
    106 CB        -3.0415  -22.9453  -54.9517 C.3       19 UNK        -0.1800 
    107 C         -5.3725  -21.9755  -55.3635 C.2       19 UNK         0.5000 
    108 O         -5.1145  -21.0603  -54.5785 O.2       19 UNK        -0.5000 
    109 N         -6.4286  -21.9779  -56.1881 N.am      20 UNK        -0.5000 
    110 CA        -7.4609  -20.9388  -56.2736 C.3       20 UNK         0.1400 
    111 CB        -8.5145  -21.3680  -57.3055 C.3       20 UNK        -0.1800 
    112 C         -6.9312  -19.5273  -56.5986 C.2       20 UNK         0.5000 
    113 O         -7.5790  -18.5437  -56.2391 O.2       20 UNK        -0.5000 
    114 N         -5.7448  -19.4466  -57.2184 N.am      21 UNK        -0.5000 
    115 CA        -4.9983  -18.2129  -57.4785 C.3       21 UNK         0.1400 
    116 CB        -3.7297  -18.5588  -58.2730 C.3       21 UNK        -0.1800 
    117 C         -4.6335  -17.4195  -56.2052 C.2       21 UNK         0.5000 
    118 O         -4.4962  -16.1979  -56.2819 O.2       21 UNK        -0.5000 
    119 N         -4.5094  -18.1137  -55.0659 N.am      22 UNK        -0.5000 
    120 CA        -4.3271  -17.5150  -53.7346 C.3       22 UNK         0.1400 
    121 C         -5.6646  -17.3276  -52.9569 C.2       22 UNK         0.5000 
    122 N         -6.8308  -17.5912  -53.5357 N.am      22 UNK        -0.7600 
    123 O         -5.6534  -16.9097  -51.8043 O.2       22 UNK        -0.5000 
    124 C124       -3.2759  -18.2827  -52.8879 C.3       23 UNK        -0.0398 
    125 S125       -1.6386  -18.4706  -53.6789 S.3       23 UNK        -0.2404 
    126 C126       -1.0525  -16.7518  -53.8430 C.3       23 UNK        -0.0205 
    127 H127        4.2539  -13.3424  -46.0527 H         1 UNK         0.0600 
    128 H128        5.4250  -14.0017  -44.9051 H         1 UNK         0.0600 
    129 H129        3.7816  -14.6432  -44.9572 H         1 UNK         0.0600 
    130 H130        3.7232  -16.6741  -45.9431 H         1 UNK         0.3000 
    131 H131        5.7842  -17.6692  -47.6121 H         1 UNK         0.0600 
    132 H132        4.6188  -16.3889  -49.3801 H         1 UNK         0.0800 
    133 H133        4.4290  -18.0905  -49.6441 H         1 UNK         0.0800 
    134 H134        2.3604  -14.7262  -49.4964 H         1 UNK         0.0800 
    135 H135        2.8891  -15.6344  -50.8946 H         1 UNK         0.0800 
    136 H136        1.2649  -16.7478  -52.4000 H         1 UNK         0.1150 
    137 H137       -2.7513  -15.2526  -52.3180 H         1 UNK         0.1150 
    138 H138       -0.0569  -14.3192  -49.1214 H         1 UNK         0.1150 
    139 H139       -2.2378  -13.2506  -49.2084 H         1 UNK         0.0800 
    140 H140       -3.0997  -13.2650  -50.7221 H         1 UNK         0.0800 
    141 H141       -2.5515  -14.6432  -47.3480 H         1 UNK         0.0800 
    142 H142       -3.9872  -15.5211  -46.9337 H         1 UNK         0.0800 
    143 H143       -1.7309  -16.7722  -48.5873 H         1 UNK         0.0600 
    144 H144       -1.6546  -16.1648  -45.8155 H         1 UNK         0.3000 
    145 H145        0.7979  -18.5767  -44.8725 H         1 UNK         0.0600 
    146 H146        1.9458  -16.4848  -44.3101 H         1 UNK         0.0600 
    147 H147        1.8345  -16.5710  -46.0673 H         1 UNK         0.0600 
    148 H148        0.7544  -15.5207  -45.1713 H         1 UNK         0.0600 
    149 H149       -0.3011  -16.6143  -43.2847 H         1 UNK         0.3000 
    150 H150       -3.6315  -17.4182  -42.7766 H         1 UNK         0.0600 
    151 H151       -2.7405  -19.2942  -41.3430 H         1 UNK         0.0600 
    152 H152       -3.2285  -17.8994  -40.3940 H         1 UNK         0.0600 
    153 H153       -1.5192  -18.2029  -40.6983 H         1 UNK         0.0600 
    154 H154       -1.9196  -15.8547  -41.1617 H         1 UNK         0.3000 
    155 H155       -1.0685  -13.2133  -43.1981 H         1 UNK         0.0600 
    156 H156       -2.3621  -11.7073  -41.7044 H         1 UNK         0.0600 
    157 H157       -3.3878  -13.0500  -41.1959 H         1 UNK         0.0600 
    158 H158       -3.4349  -12.4799  -42.8599 H         1 UNK         0.0600 
    159 H159       -1.0993  -13.4641  -40.3599 H         1 UNK         0.3000 
    160 H160        1.1712  -13.7480  -39.4381 H         1 UNK         0.0600 
    161 H161        0.0519  -16.6141  -39.3999 H         1 UNK         0.0600 
    162 H162       -0.7789  -15.1855  -38.7899 H         1 UNK         0.0600 
    163 H163        0.6776  -15.7532  -37.9970 H         1 UNK         0.0600 
    164 H164        2.4140  -16.1026  -40.7506 H         1 UNK         0.3000 
    165 H165        5.5742  -15.1877  -39.6839 H         1 UNK         0.0600 
    166 H166        4.2346  -17.4598  -38.1203 H         1 UNK         0.0600 
    167 H167        5.9672  -17.2850  -38.4049 H         1 UNK         0.0600 
    168 H168        5.1173  -16.1120  -37.4137 H         1 UNK         0.0600 
    169 H169        4.5190  -17.7494  -40.5310 H         1 UNK         0.3000 
    170 H170        4.0821  -17.0306  -43.8761 H         1 UNK         0.0600 
    171 H171        6.5699  -16.9233  -44.0129 H         1 UNK         0.0600 
    172 H172        6.6981  -18.2803  -42.8984 H         1 UNK         0.0600 
    173 H173        5.9756  -18.5031  -44.4905 H         1 UNK         0.0600 
    174 H174        4.4955  -19.5637  -42.8985 H         1 UNK         0.3000 
    175 H175        2.5515  -20.5231  -40.8995 H         1 UNK         0.0600 
    176 H176        0.2567  -19.6896  -41.2464 H         1 UNK         0.0600 
    177 H177        0.3505  -20.0518  -42.9665 H         1 UNK         0.0600 
    178 H178        0.3733  -21.3553  -41.7835 H         1 UNK         0.0600 
    179 H179        2.5297  -21.0927  -43.8402 H         1 UNK         0.3000 
    180 H180        5.1007  -23.3844  -43.6328 H         1 UNK         0.0600 
    181 H181        2.1912  -24.3545  -43.6502 H         1 UNK         0.0600 
    182 H182        3.4610  -24.9469  -42.5863 H         1 UNK         0.0600 
    183 H183        3.5748  -25.2239  -44.3159 H         1 UNK         0.0600 
    184 H184        2.9874  -23.0438  -45.5576 H         1 UNK         0.3000 
    185 H185        4.6634  -22.0230  -47.7712 H         1 UNK         0.0600 
    186 H186        2.3694  -21.2244  -48.4374 H         1 UNK         0.0600 
    187 H187        2.2999  -22.5734  -47.3261 H         1 UNK         0.0600 
    188 H188        1.9832  -20.9374  -46.7497 H         1 UNK         0.0600 
    189 H189        5.1948  -19.9468  -48.2638 H         1 UNK         0.3000 
    190 H190       -3.6345  -17.9858  -45.8231 H         1 UNK         0.3000 
    191 H191       -5.4010  -19.6542  -47.3846 H         1 UNK         0.0600 
    192 H192       -6.0642  -20.5456  -45.1599 H         1 UNK         0.0600 
    193 H193       -6.0536  -18.7891  -45.1508 H         1 UNK         0.0600 
    194 H194       -4.7388  -19.6846  -44.3905 H         1 UNK         0.0600 
    195 H195       -2.3591  -20.1836  -45.5695 H         1 UNK         0.3000 
    196 H196       -2.1665  -22.9893  -45.9801 H         1 UNK         0.0600 
    197 H197        0.2412  -22.6228  -45.3418 H         1 UNK         0.0600 
    198 H198       -0.8782  -21.8327  -44.2417 H         1 UNK         0.0600 
    199 H199       -0.0112  -20.8824  -45.4436 H         1 UNK         0.0600 
    200 H200       -0.9903  -20.2381  -47.9617 H         1 UNK         0.3000 
    201 H201        0.2966  -21.8104  -49.9678 H         1 UNK         0.0600 
    202 H202        0.7778  -19.4235  -49.6647 H         1 UNK         0.0600 
    203 H203       -0.8762  -18.9802  -50.0798 H         1 UNK         0.0600 
    204 H204        0.1817  -19.6877  -51.2950 H         1 UNK         0.0600 
    205 H205       -3.0534  -20.5587  -49.6662 H         1 UNK         0.3000 
    206 H206       -3.9791  -21.4886  -52.1973 H         1 UNK         0.0600 
    207 H207       -5.1516  -19.7321  -50.8663 H         1 UNK         0.0600 
    208 H208       -6.2290  -21.0585  -51.2665 H         1 UNK         0.0600 
    209 H209       -5.5690  -20.9203  -49.6403 H         1 UNK         0.0600 
    210 H210       -4.2922  -22.9085  -48.9148 H         1 UNK         0.3000 
    211 H211       -4.7178  -24.9179  -48.1129 H         1 UNK         0.0600 
    212 H212       -3.3666  -25.9807  -50.6519 H         1 UNK         0.0600 
    213 H213       -3.5101  -26.8249  -49.1153 H         1 UNK         0.0600 
    214 H214       -2.5155  -25.3839  -49.2290 H         1 UNK         0.0600 
    215 H215       -6.7462  -23.7686  -50.0002 H         1 UNK         0.3000 
    216 H216       -8.6852  -24.1257  -50.9860 H         1 UNK         0.0600 
    217 H217       -9.2828  -25.3137  -48.8572 H         1 UNK         0.0600 
    218 H218      -10.1557  -25.9469  -50.2416 H         1 UNK         0.0600 
    219 H219       -8.7972  -26.8458  -49.5821 H         1 UNK         0.0600 
    220 H220       -6.2020  -24.9146  -52.3698 H         1 UNK         0.3000 
    221 H221       -7.3603  -26.6717  -54.4961 H         1 UNK         0.0600 
    222 H222       -5.1182  -27.7569  -54.6782 H         1 UNK         0.0600 
    223 H223       -4.5574  -26.8614  -53.2687 H         1 UNK         0.0600 
    224 H224       -5.8451  -28.0522  -53.1052 H         1 UNK         0.0600 
    225 H225       -4.8027  -24.2757  -53.6380 H         1 UNK         0.3000 
    226 H226       -4.4130  -23.5388  -56.4756 H         1 UNK         0.0600 
    227 H227       -3.0083  -22.6836  -53.8955 H         1 UNK         0.0600 
    228 H228       -2.4061  -23.8193  -55.0941 H         1 UNK         0.0600 
    229 H229       -2.5929  -22.1212  -55.5078 H         1 UNK         0.0600 
    230 H230       -6.5734  -22.7965  -56.7644 H         1 UNK         0.3000 
    231 H231       -7.9434  -20.8813  -55.2958 H         1 UNK         0.0600 
    232 H232       -9.3178  -20.6331  -57.3745 H         1 UNK         0.0600 
    233 H233       -8.9702  -22.3199  -57.0322 H         1 UNK         0.0600 
    234 H234       -8.0812  -21.4756  -58.3007 H         1 UNK         0.0600 
    235 H235       -5.2883  -20.3096  -57.4731 H         1 UNK         0.3000 
    236 H236       -5.6279  -17.5694  -58.0962 H         1 UNK         0.0600 
    237 H237       -3.9743  -19.0466  -59.2168 H         1 UNK         0.0600 
    238 H238       -3.1607  -17.6592  -58.5116 H         1 UNK         0.0600 
    239 H239       -3.0724  -19.2229  -57.7100 H         1 UNK         0.0600 
    240 H240       -4.6578  -19.1174  -55.0757 H         1 UNK         0.3000 
    241 H241       -3.9548  -16.4992  -53.8594 H         1 UNK         0.0600 
    242 H242       -6.8926  -17.8972  -54.5001 H         1 UNK         0.3800 
    243 H243       -7.6772  -17.4492  -53.0084 H         1 UNK         0.3800 
    244 H244       -3.6445  -19.2857  -52.6845 H         1 UNK         0.0800 
    245 H245       -3.1350  -17.8150  -51.9118 H         1 UNK         0.0800 
    246 H246       -0.1365  -16.7600  -54.4355 H         1 UNK         0.0800 
    247 H247       -1.7674  -16.1663  -54.4218 H         1 UNK         0.0800 
@<TRIPOS>BOND
     1    1    2 1    
     2    1  127 1    
     3    1  128 1    
     4    1  129 1    
     5    2    3 2    
     6    2    4 am   BACKBONE|DICT|INTERRES
     7    4    5 1    
     8    4  130 1    
     9    5    6 1    
    10    5   65 1    
    11    5  131 1    
    12    6    7 1    
    13    6  132 1    
    14    6  133 1    
    15    7    8 1    
    16    8    9 1    
    17    8  134 1    
    18    8  135 1    
    19    9   10 ar   
    20    9   14 ar   
    21   10   11 ar   
    22   10  136 1    
    23   11   12 ar   
    24   11  126 1    
    25   12   13 ar   
    26   12  137 1    
    27   13   14 ar   
    28   13   15 1    
    29   14  138 1    
    30   15   16 1    
    31   15  139 1    
    32   15  140 1    
    33   16   17 1    
    34   17   18 1    
    35   17  141 1    
    36   17  142 1    
    37   18   19 1    
    38   18   67 1    
    39   18  143 1    
    40   19   20 am   BACKBONE|DICT|INTERRES
    41   19  144 1    
    42   20   21 2    
    43   20   22 1    
    44   22   23 1    
    45   22   24 1    
    46   22  145 1    
    47   23  146 1    
    48   23  147 1    
    49   23  148 1    
    50   24   25 am   BACKBONE|DICT|INTERRES
    51   24  149 1    
    52   25   26 2    
    53   25   27 1    
    54   27   28 1    
    55   27   29 1    
    56   27  150 1    
    57   28  151 1    
    58   28  152 1    
    59   28  153 1    
    60   29   30 am   BACKBONE|DICT|INTERRES
    61   29  154 1    
    62   30   31 2    
    63   30   32 1    
    64   32   33 1    
    65   32   34 1    
    66   32  155 1    
    67   33  156 1    
    68   33  157 1    
    69   33  158 1    
    70   34   35 am   BACKBONE|DICT|INTERRES
    71   34  159 1    
    72   35   36 2    
    73   35   37 1    
    74   37   38 1    
    75   37   39 1    
    76   37  160 1    
    77   38  161 1    
    78   38  162 1    
    79   38  163 1    
    80   39   40 am   BACKBONE|DICT|INTERRES
    81   39  164 1    
    82   40   41 2    
    83   40   42 1    
    84   42   43 1    
    85   42   44 1    
    86   42  165 1    
    87   43  166 1    
    88   43  167 1    
    89   43  168 1    
    90   44   45 am   BACKBONE|DICT|INTERRES
    91   44  169 1    
    92   45   46 2    
    93   45   47 1    
    94   47   48 1    
    95   47   49 1    
    96   47  170 1    
    97   48  171 1    
    98   48  172 1    
    99   48  173 1    
   100   49   50 am   BACKBONE|DICT|INTERRES
   101   49  174 1    
   102   50   51 2    
   103   50   52 1    
   104   52   53 1    
   105   52   54 1    
   106   52  175 1    
   107   53  176 1    
   108   53  177 1    
   109   53  178 1    
   110   54   55 am   BACKBONE|DICT|INTERRES
   111   54  179 1    
   112   55   56 2    
   113   55   57 1    
   114   57   58 1    
   115   57   59 1    
   116   57  180 1    
   117   58  181 1    
   118   58  182 1    
   119   58  183 1    
   120   59   60 am   BACKBONE|DICT|INTERRES
   121   59  184 1    
   122   60   61 2    
   123   60   62 1    
   124   62   63 1    
   125   62   64 1    
   126   62  185 1    
   127   63  186 1    
   128   63  187 1    
   129   63  188 1    
   130   64   65 am   BACKBONE|DICT|INTERRES
   131   64  189 1    
   132   65   66 2    
   133   67   68 2    
   134   67   69 am   BACKBONE|DICT|INTERRES
   135   69   70 1    
   136   69  190 1    
   137   70   71 1    
   138   70   72 1    
   139   70  191 1    
   140   71  192 1    
   141   71  193 1    
   142   71  194 1    
   143   72   73 2    
   144   72   74 am   BACKBONE|DICT|INTERRES
   145   74   75 1    
   146   74  195 1    
   147   75   76 1    
   148   75   77 1    
   149   75  196 1    
   150   76  197 1    
   151   76  198 1    
   152   76  199 1    
   153   77   78 2    
   154   77   79 am   BACKBONE|DICT|INTERRES
   155   79   80 1    
   156   79  200 1    
   157   80   81 1    
   158   80   82 1    
   159   80  201 1    
   160   81  202 1    
   161   81  203 1    
   162   81  204 1    
   163   82   83 2    
   164   82   84 am   BACKBONE|DICT|INTERRES
   165   84   85 1    
   166   84  205 1    
   167   85   86 1    
   168   85   87 1    
   169   85  206 1    
   170   86  207 1    
   171   86  208 1    
   172   86  209 1    
   173   87   88 2    
   174   87   89 am   BACKBONE|DICT|INTERRES
   175   89   90 1    
   176   89  210 1    
   177   90   91 1    
   178   90   92 1    
   179   90  211 1    
   180   91  212 1    
   181   91  213 1    
   182   91  214 1    
   183   92   93 2    
   184   92   94 am   BACKBONE|DICT|INTERRES
   185   94   95 1    
   186   94  215 1    
   187   95   96 1    
   188   95   97 1    
   189   95  216 1    
   190   96  217 1    
   191   96  218 1    
   192   96  219 1    
   193   97   98 2    
   194   97   99 am   BACKBONE|DICT|INTERRES
   195   99  100 1    
   196   99  220 1    
   197  100  101 1    
   198  100  102 1    
   199  100  221 1    
   200  101  222 1    
   201  101  223 1    
   202  101  224 1    
   203  102  103 2    
   204  102  104 am   BACKBONE|DICT|INTERRES
   205  104  105 1    
   206  104  225 1    
   207  105  106 1    
   208  105  107 1    
   209  105  226 1    
   210  106  227 1    
   211  106  228 1    
   212  106  229 1    
   213  107  108 2    
   214  107  109 am   BACKBONE|DICT|INTERRES
   215  109  110 1    
   216  109  230 1    
   217  110  111 1    
   218  110  112 1    
   219  110  231 1    
   220  111  232 1    
   221  111  233 1    
   222  111  234 1    
   223  112  113 2    
   224  112  114 am   BACKBONE|DICT|INTERRES
   225  114  115 1    
   226  114  235 1    
   227  115  116 1    
   228  115  117 1    
   229  115  236 1    
   230  116  237 1    
   231  116  238 1    
   232  116  239 1    
   233  117  118 2    
   234  117  119 am   BACKBONE|DICT|INTERRES
   235  119  120 1    
   236  119  240 1    
   237  120  121 1    
   238  120  124 1    
   239  120  241 1    
   240  121  122 am   BACKBONE|DICT|INTERRES
   241  121  123 2    
   242  122  242 1    
   243  122  243 1    
   244  124  125 1    
   245  124  244 1    
   246  124  245 1    
   247  125  126 1    
   248  126  246 1    
   249  126  247 1    
@<TRIPOS>SUBSTRUCTURE
     1 UNK         1 GROUP             0       ****    0 ROOT    
