@<TRIPOS>MOLECULE
3R540
247   249    1
SMALL
USER_CHARGES


@<TRIPOS>ATOM
      1 CA          2.1441   -9.5315  -48.6841 C.3       0 UNK        -0.1800 
      2 C           2.0949  -10.9919  -48.2599 C.2       0 UNK         0.5000 
      3 O           2.9764  -11.4500  -47.5345 O.2       0 UNK        -0.5000 
      4 N           1.0601  -11.7235  -48.6932 N.am      1 UNK        -0.5000 
      5 CA          0.8600  -13.1566  -48.4246 C.3       1 UNK         0.1400 
      6 C6         -0.3073  -13.7497  -49.2544 C.3       23 UNK        -0.0398 
      7 S7         -0.2382  -13.3667  -51.0429 S.3       23 UNK        -0.2404 
      8 C8          0.8780  -14.6471  -51.7076 C.3       23 UNK        -0.0205 
      9 C9          0.4266  -16.0605  -51.3697 C.ar      23 UNK        -0.0193 
     10 C10        -0.7778  -16.5650  -51.8698 C.ar      23 UNK        -0.1150 
     11 C11        -1.2171  -17.8436  -51.5103 C.ar      23 UNK        -0.0193 
     12 C12        -0.4300  -18.6257  -50.6596 C.ar      23 UNK        -0.1150 
     13 C13         0.7875  -18.1383  -50.1722 C.ar      23 UNK        -0.0193 
     14 C14         1.2102  -16.8577  -50.5330 C.ar      23 UNK        -0.1150 
     15 C15         1.6474  -18.9818  -49.2443 C.3       23 UNK        -0.0205 
     16 S16         1.6734  -18.3325  -47.5391 S.3       23 UNK        -0.2404 
     17 C17        -0.0865  -18.4203  -47.0622 C.3       23 UNK        -0.0398 
     18 CA         -0.5380  -19.8682  -46.7712 C.3       11 UNK         0.1400 
     19 N           0.0852  -20.4375  -45.5750 N.am      11 UNK        -0.5000 
     20 C           0.0560  -21.7357  -45.2477 C.2       10 UNK         0.5000 
     21 O          -0.5088  -22.5929  -45.9271 O.2       10 UNK        -0.5000 
     22 CA          0.7235  -22.1339  -43.9198 C.3       10 UNK         0.1400 
     23 CB          2.2485  -22.2386  -44.0719 C.3       10 UNK        -0.1800 
     24 N           0.3932  -21.1974  -42.8454 N.am      10 UNK        -0.5000 
     25 C          -0.8192  -21.1037  -42.2816 C.2       9 UNK         0.5000 
     26 O          -1.7597  -21.8478  -42.5615 O.2       9 UNK        -0.5000 
     27 CA         -1.0286  -19.9698  -41.2595 C.3       9 UNK         0.1400 
     28 CB         -0.5473  -20.4008  -39.8662 C.3       9 UNK        -0.1800 
     29 N          -0.3629  -18.7225  -41.6391 N.am      9 UNK        -0.5000 
     30 C          -0.6557  -18.0038  -42.7328 C.2       8 UNK         0.5000 
     31 O          -1.5531  -18.2947  -43.5219 O.2       8 UNK        -0.5000 
     32 CA          0.2390  -16.7857  -43.0252 C.3       8 UNK         0.1400 
     33 CB         -0.2066  -15.5778  -42.1894 C.3       8 UNK        -0.1800 
     34 N           1.6588  -17.0519  -42.7892 N.am      8 UNK        -0.5000 
     35 C           2.3720  -18.0090  -43.3993 C.2       7 UNK         0.5000 
     36 O           1.9045  -18.7786  -44.2341 O.2       7 UNK        -0.5000 
     37 CA          3.8317  -18.1863  -42.9561 C.3       7 UNK         0.1400 
     38 CB          4.7462  -17.1492  -43.6212 C.3       7 UNK        -0.1800 
     39 N           3.9568  -18.1055  -41.5030 N.am      7 UNK        -0.5000 
     40 C           3.5572  -19.0698  -40.6625 C.2       6 UNK         0.5000 
     41 O           3.0995  -20.1527  -41.0296 O.2       6 UNK        -0.5000 
     42 CA          3.6565  -18.7543  -39.1587 C.3       6 UNK         0.1400 
     43 CB          5.0687  -19.0531  -38.6335 C.3       6 UNK        -0.1800 
     44 N           3.3069  -17.3663  -38.8483 N.am      6 UNK        -0.5000 
     45 C           2.0771  -16.8516  -38.9843 C.2       5 UNK         0.5000 
     46 O           1.1042  -17.4996  -39.3707 O.2       5 UNK        -0.5000 
     47 CA          1.9140  -15.3519  -38.6710 C.3       5 UNK         0.1400 
     48 CB          1.6716  -15.1406  -37.1691 C.3       5 UNK        -0.1800 
     49 N           3.0388  -14.5136  -39.1040 N.am      5 UNK        -0.5000 
     50 C           3.4706  -14.4014  -40.3677 C.2       4 UNK         0.5000 
     51 O           3.0363  -15.0895  -41.2906 O.2       4 UNK        -0.5000 
     52 CA          4.5770  -13.3613  -40.6290 C.3       4 UNK         0.1400 
     53 CB          5.9161  -14.0344  -40.9890 C.3       4 UNK        -0.1800 
     54 N           4.1651  -12.3614  -41.6239 N.am      4 UNK        -0.5000 
     55 C           3.9705  -12.5151  -42.9429 C.2       3 UNK         0.5000 
     56 O           4.2573  -13.5233  -43.5898 O.2       3 UNK        -0.5000 
     57 CA          3.3503  -11.3113  -43.6779 C.3       3 UNK         0.1400 
     58 CB          4.3639  -10.6675  -44.6364 C.3       3 UNK        -0.1800 
     59 N           2.1550  -11.7122  -44.4227 N.am      3 UNK        -0.5000 
     60 C           1.0052  -12.0882  -43.8418 C.2       2 UNK         0.5000 
     61 O           0.8281  -12.0478  -42.6232 O.2       2 UNK        -0.5000 
     62 CA         -0.1548  -12.5608  -44.7434 C.3       2 UNK         0.1400 
     63 CB         -1.4291  -11.7433  -44.4714 C.3       2 UNK        -0.1800 
     64 N           0.1479  -12.4751  -46.1715 N.am      2 UNK        -0.5000 
     65 C           0.6406  -13.4680  -46.9245 C.2       1 UNK         0.5000 
     66 O           0.9082  -14.5870  -46.4880 O.2       1 UNK        -0.5000 
     67 C          -2.0735  -19.9899  -46.7651 C.2       11 UNK         0.5000 
     68 O          -2.6555  -20.1823  -47.8307 O.2       11 UNK        -0.5000 
     69 N          -2.7031  -19.9383  -45.5834 N.am      12 UNK        -0.5000 
     70 CA         -4.1344  -20.1878  -45.3991 C.3       12 UNK         0.1400 
     71 CB         -4.5328  -19.8535  -43.9541 C.3       12 UNK        -0.1800 
     72 C          -4.5485  -21.6284  -45.7610 C.2       12 UNK         0.5000 
     73 O          -5.6445  -21.8259  -46.2858 O.2       12 UNK        -0.5000 
     74 N          -3.6611  -22.6016  -45.5085 N.am      13 UNK        -0.5000 
     75 CA         -3.8292  -23.9896  -45.9390 C.3       13 UNK         0.1400 
     76 CB         -2.9464  -24.9143  -45.0875 C.3       13 UNK        -0.1800 
     77 C          -3.5230  -24.1497  -47.4383 C.2       13 UNK         0.5000 
     78 O          -4.2893  -24.8031  -48.1486 O.2       13 UNK        -0.5000 
     79 N          -2.4382  -23.5132  -47.9074 N.am      14 UNK        -0.5000 
     80 CA         -2.0195  -23.5007  -49.3131 C.3       14 UNK         0.1400 
     81 CB         -0.6814  -22.7661  -49.4631 C.3       14 UNK        -0.1800 
     82 C          -3.0736  -22.8943  -50.2569 C.2       14 UNK         0.5000 
     83 O          -3.2276  -23.3802  -51.3742 O.2       14 UNK        -0.5000 
     84 N          -3.8223  -21.8932  -49.7755 N.am      15 UNK        -0.5000 
     85 CA         -4.9495  -21.2737  -50.4721 C.3       15 UNK         0.1400 
     86 CB         -5.4866  -20.1044  -49.6331 C.3       15 UNK        -0.1800 
     87 C          -6.0886  -22.2519  -50.8193 C.2       15 UNK         0.5000 
     88 O          -6.7823  -22.0307  -51.8114 O.2       15 UNK        -0.5000 
     89 N          -6.2543  -23.3085  -50.0123 N.am      16 UNK        -0.5000 
     90 CA         -7.2011  -24.3924  -50.2576 C.3       16 UNK         0.1400 
     91 CB         -7.7545  -24.8992  -48.9165 C.3       16 UNK        -0.1800 
     92 C          -6.5406  -25.5365  -51.0446 C.2       16 UNK         0.5000 
     93 O          -7.1380  -26.0397  -51.9963 O.2       16 UNK        -0.5000 
     94 N          -5.3248  -25.9313  -50.6384 N.am      17 UNK        -0.5000 
     95 CA         -4.5845  -27.0581  -51.2136 C.3       17 UNK         0.1400 
     96 CB         -3.3854  -27.3901  -50.3135 C.3       17 UNK        -0.1800 
     97 C          -4.1243  -26.8272  -52.6661 C.2       17 UNK         0.5000 
     98 O          -4.1268  -27.7701  -53.4583 O.2       17 UNK        -0.5000 
     99 N          -3.7549  -25.5837  -52.9900 N.am      18 UNK        -0.5000 
    100 CA        -3.3181  -25.1301  -54.3071 C.3       18 UNK         0.1400 
    101 CB        -1.8445  -24.6903  -54.2321 C.3       18 UNK        -0.1800 
    102 C         -4.2465  -24.0077  -54.8011 C.2       18 UNK         0.5000 
    103 O         -3.7799  -23.0098  -55.3549 O.2       18 UNK        -0.5000 
    104 N         -5.5620  -24.1980  -54.6198 N.am      19 UNK        -0.5000 
    105 CA        -6.6213  -23.2686  -55.0306 C.3       19 UNK         0.1400 
    106 CB        -7.9831  -23.8274  -54.5935 C.3       19 UNK        -0.1800 
    107 C         -6.6342  -22.9461  -56.5385 C.2       19 UNK         0.5000 
    108 O         -7.0654  -21.8589  -56.9196 O.2       19 UNK        -0.5000 
    109 N         -6.1200  -23.8659  -57.3665 N.am      20 UNK        -0.5000 
    110 CA        -5.9150  -23.6734  -58.8036 C.3       20 UNK         0.1400 
    111 CB        -5.5103  -25.0153  -59.4326 C.3       20 UNK        -0.1800 
    112 C         -4.8729  -22.5845  -59.1387 C.2       20 UNK         0.5000 
    113 O         -4.9637  -21.9783  -60.2071 O.2       20 UNK        -0.5000 
    114 N         -3.9149  -22.3529  -58.2302 N.am      21 UNK        -0.5000 
    115 CA        -2.9017  -21.3052  -58.3375 C.3       21 UNK         0.1400 
    116 CB        -1.5518  -21.8509  -57.8430 C.3       21 UNK        -0.1800 
    117 C         -3.3130  -20.0608  -57.5337 C.2       21 UNK         0.5000 
    118 O         -3.2036  -18.9459  -58.0459 O.2       21 UNK        -0.5000 
    119 N         -3.7717  -20.2715  -56.2932 N.am      22 UNK        -0.5000 
    120 CA        -4.1737  -19.2078  -55.3586 C.3       22 UNK         0.1400 
    121 C         -5.5344  -18.5228  -55.6768 C.2       22 UNK         0.5000 
    122 N         -6.4301  -19.1159  -56.4537 N.am      22 UNK        -0.7600 
    123 O         -5.7780  -17.4120  -55.2137 O.2       22 UNK        -0.5000 
    124 C124       -4.1205  -19.7044  -53.8909 C.3       23 UNK        -0.0398 
    125 S125       -2.4156  -19.6813  -53.2337 S.3       23 UNK        -0.2404 
    126 C126       -2.5664  -18.3532  -51.9953 C.3       23 UNK        -0.0205 
    127 H127        2.1407   -8.8861  -47.8057 H         1 UNK         0.0600 
    128 H128        1.2923   -9.2618  -49.3089 H         1 UNK         0.0600 
    129 H129        3.0559   -9.3363  -49.2485 H         1 UNK         0.0600 
    130 H130        0.3735  -11.2988  -49.3010 H         1 UNK         0.3000 
    131 H131        1.7759  -13.6710  -48.7236 H         1 UNK         0.0600 
    132 H132       -0.3649  -14.8300  -49.1141 H         1 UNK         0.0800 
    133 H133       -1.2588  -13.3589  -48.8889 H         1 UNK         0.0800 
    134 H134        0.9305  -14.5408  -52.7919 H         1 UNK         0.0800 
    135 H135        1.8862  -14.4611  -51.3340 H         1 UNK         0.0800 
    136 H136       -1.3862  -15.9457  -52.5141 H         1 UNK         0.1150 
    137 H137       -0.7751  -19.6085  -50.3733 H         1 UNK         0.1150 
    138 H138        2.1428  -16.4764  -50.1408 H         1 UNK         0.1150 
    139 H139        1.3169  -20.0208  -49.2436 H         1 UNK         0.0800 
    140 H140        2.6695  -18.9957  -49.6252 H         1 UNK         0.0800 
    141 H141       -0.6833  -17.9677  -47.8556 H         1 UNK         0.0800 
    142 H142       -0.2369  -17.7928  -46.1827 H         1 UNK         0.0800 
    143 H143       -0.2015  -20.4846  -47.6017 H         1 UNK         0.0600 
    144 H144        0.6304  -19.7972  -44.9995 H         1 UNK         0.3000 
    145 H145        0.3467  -23.1204  -43.6411 H         1 UNK         0.0600 
    146 H146        2.5127  -22.9727  -44.8339 H         1 UNK         0.0600 
    147 H147        2.6964  -21.2891  -44.3645 H         1 UNK         0.0600 
    148 H148        2.7163  -22.5538  -43.1390 H         1 UNK         0.0600 
    149 H149        1.1125  -20.5406  -42.5731 H         1 UNK         0.3000 
    150 H150       -2.1007  -19.7705  -41.2034 H         1 UNK         0.0600 
    151 H151       -1.0322  -21.3262  -39.5528 H         1 UNK         0.0600 
    152 H152       -0.7791  -19.6427  -39.1179 H         1 UNK         0.0600 
    153 H153        0.5301  -20.5697  -39.8474 H         1 UNK         0.0600 
    154 H154        0.3560  -18.3800  -41.0090 H         1 UNK         0.3000 
    155 H155        0.1290  -16.5291  -44.0807 H         1 UNK         0.0600 
    156 H156       -0.1970  -15.8003  -41.1229 H         1 UNK         0.0600 
    157 H157        0.4460  -14.7218  -42.3547 H         1 UNK         0.0600 
    158 H158       -1.2206  -15.2747  -42.4522 H         1 UNK         0.0600 
    159 H159        2.1388  -16.4258  -42.1453 H         1 UNK         0.3000 
    160 H160        4.1613  -19.1769  -43.2774 H         1 UNK         0.0600 
    161 H161        4.4670  -16.1335  -43.3452 H         1 UNK         0.0600 
    162 H162        4.6871  -17.2196  -44.7080 H         1 UNK         0.0600 
    163 H163        5.7881  -17.3002  -43.3391 H         1 UNK         0.0600 
    164 H164        4.2538  -17.2189  -41.1222 H         1 UNK         0.3000 
    165 H165        2.9530  -19.4065  -38.6364 H         1 UNK         0.0600 
    166 H166        5.1271  -18.9076  -37.5547 H         1 UNK         0.0600 
    167 H167        5.3491  -20.0876  -38.8364 H         1 UNK         0.0600 
    168 H168        5.8175  -18.4122  -39.1005 H         1 UNK         0.0600 
    169 H169        4.0509  -16.7634  -38.5293 H         1 UNK         0.3000 
    170 H170        1.0281  -15.0039  -39.2053 H         1 UNK         0.0600 
    171 H171        0.8265  -15.7369  -36.8220 H         1 UNK         0.0600 
    172 H172        2.5410  -15.4270  -36.5761 H         1 UNK         0.0600 
    173 H173        1.4426  -14.0978  -36.9487 H         1 UNK         0.0600 
    174 H174        3.4550  -13.9290  -38.3934 H         1 UNK         0.3000 
    175 H175        4.7376  -12.8022  -39.7060 H         1 UNK         0.0600 
    176 H176        5.8339  -14.6744  -41.8673 H         1 UNK         0.0600 
    177 H177        6.6902  -13.2928  -41.1855 H         1 UNK         0.0600 
    178 H178        6.2659  -14.6608  -40.1677 H         1 UNK         0.0600 
    179 H179        3.8760  -11.4801  -41.2229 H         1 UNK         0.3000 
    180 H180        3.0554  -10.5557  -42.9464 H         1 UNK         0.0600 
    181 H181        4.7085  -11.3750  -45.3916 H         1 UNK         0.0600 
    182 H182        5.2417  -10.3138  -44.0944 H         1 UNK         0.0600 
    183 H183        3.9313   -9.8106  -45.1532 H         1 UNK         0.0600 
    184 H184        2.2556  -11.7999  -45.4262 H         1 UNK         0.3000 
    185 H185       -0.3623  -13.5993  -44.4787 H         1 UNK         0.0600 
    186 H186       -1.7367  -11.8279  -43.4283 H         1 UNK         0.0600 
    187 H187       -1.2810  -10.6842  -44.6857 H         1 UNK         0.0600 
    188 H188       -2.2614  -12.0965  -45.0805 H         1 UNK         0.0600 
    189 H189       -0.0252  -11.5845  -46.6151 H         1 UNK         0.3000 
    190 H190       -2.1728  -19.6811  -44.7561 H         1 UNK         0.3000 
    191 H191       -4.6770  -19.5137  -46.0652 H         1 UNK         0.0600 
    192 H192       -4.0007  -20.4763  -43.2349 H         1 UNK         0.0600 
    193 H193       -5.6008  -20.0095  -43.7972 H         1 UNK         0.0600 
    194 H194       -4.3187  -18.8112  -43.7172 H         1 UNK         0.0600 
    195 H195       -2.7756  -22.3573  -45.0855 H         1 UNK         0.3000 
    196 H196       -4.8688  -24.2830  -45.7776 H         1 UNK         0.0600 
    197 H197       -3.1006  -25.9582  -45.3631 H         1 UNK         0.0600 
    198 H198       -3.1843  -24.8187  -44.0280 H         1 UNK         0.0600 
    199 H199       -1.8856  -24.6981  -45.2115 H         1 UNK         0.0600 
    200 H200       -1.8328  -23.0364  -47.2449 H         1 UNK         0.3000 
    201 H201       -1.8631  -24.5381  -49.6095 H         1 UNK         0.0600 
    202 H202        0.0566  -23.1195  -48.7427 H         1 UNK         0.0600 
    203 H203       -0.8036  -21.6937  -49.3314 H         1 UNK         0.0600 
    204 H204       -0.2674  -22.9208  -50.4602 H         1 UNK         0.0600 
    205 H205       -3.5643  -21.4861  -48.8807 H         1 UNK         0.3000 
    206 H206       -4.5670  -20.8752  -51.4100 H         1 UNK         0.0600 
    207 H207       -4.7123  -19.3623  -49.4404 H         1 UNK         0.0600 
    208 H208       -6.3020  -19.5955  -50.1486 H         1 UNK         0.0600 
    209 H209       -5.8679  -20.4452  -48.6702 H         1 UNK         0.0600 
    210 H210       -5.6178  -23.4306  -49.2347 H         1 UNK         0.3000 
    211 H211       -8.0441  -24.0225  -50.8452 H         1 UNK         0.0600 
    212 H212       -6.9671  -25.2893  -48.2709 H         1 UNK         0.0600 
    213 H213       -8.4783  -25.7002  -49.0718 H         1 UNK         0.0600 
    214 H214       -8.2634  -24.1012  -48.3756 H         1 UNK         0.0600 
    215 H215       -4.9118  -25.4841  -49.8246 H         1 UNK         0.3000 
    216 H216       -5.2513  -27.9230  -51.2153 H         1 UNK         0.0600 
    217 H217       -3.7017  -27.5911  -49.2896 H         1 UNK         0.0600 
    218 H218       -2.6651  -26.5737  -50.2882 H         1 UNK         0.0600 
    219 H219       -2.8620  -28.2768  -50.6732 H         1 UNK         0.0600 
    220 H220       -3.7672  -24.8575  -52.2749 H         1 UNK         0.3000 
    221 H221       -3.3923  -25.9389  -55.0362 H         1 UNK         0.0600 
    222 H222       -1.7134  -23.8309  -53.5735 H         1 UNK         0.0600 
    223 H223       -1.2113  -25.4962  -53.8613 H         1 UNK         0.0600 
    224 H224       -1.4692  -24.4090  -55.2167 H         1 UNK         0.0600 
    225 H225       -5.8614  -25.0339  -54.1370 H         1 UNK         0.3000 
    226 H226       -6.4528  -22.3269  -54.5052 H         1 UNK         0.0600 
    227 H227       -8.0374  -23.9261  -53.5098 H         1 UNK         0.0600 
    228 H228       -8.7947  -23.1640  -54.8953 H         1 UNK         0.0600 
    229 H229       -8.1767  -24.8072  -55.0316 H         1 UNK         0.0600 
    230 H230       -5.7959  -24.7366  -56.9728 H         1 UNK         0.3000 
    231 H231       -6.8665  -23.3631  -59.2406 H         1 UNK         0.0600 
    232 H232       -5.3756  -24.9166  -60.5106 H         1 UNK         0.0600 
    233 H233       -6.2757  -25.7744  -59.2707 H         1 UNK         0.0600 
    234 H234       -4.5729  -25.3877  -59.0176 H         1 UNK         0.0600 
    235 H235       -3.9386  -22.8593  -57.3524 H         1 UNK         0.3000 
    236 H236       -2.7767  -21.0065  -59.3805 H         1 UNK         0.0600 
    237 H237       -1.2336  -22.7077  -58.4369 H         1 UNK         0.0600 
    238 H238       -0.7726  -21.0919  -57.9227 H         1 UNK         0.0600 
    239 H239       -1.5964  -22.1660  -56.7998 H         1 UNK         0.0600 
    240 H240       -3.7984  -21.2219  -55.9342 H         1 UNK         0.3000 
    241 H241       -3.4404  -18.4044  -55.4580 H         1 UNK         0.0600 
    242 H242       -6.3149  -20.0705  -56.7767 H         1 UNK         0.3800 
    243 H243       -7.2959  -18.6392  -56.6476 H         1 UNK         0.3800 
    244 H244       -4.7527  -19.0985  -53.2390 H         1 UNK         0.0800 
    245 H245       -4.5155  -20.7189  -53.8162 H         1 UNK         0.0800 
    246 H246       -3.1434  -17.5293  -52.4186 H         1 UNK         0.0800 
    247 H247       -3.1363  -18.7223  -51.1425 H         1 UNK         0.0800 
@<TRIPOS>BOND
     1    1    2 1    
     2    1  127 1    
     3    1  128 1    
     4    1  129 1    
     5    2    3 2    
     6    2    4 am   BACKBONE|DICT|INTERRES
     7    4    5 1    
     8    4  130 1    
     9    5    6 1    
    10    5   65 1    
    11    5  131 1    
    12    6    7 1    
    13    6  132 1    
    14    6  133 1    
    15    7    8 1    
    16    8    9 1    
    17    8  134 1    
    18    8  135 1    
    19    9   10 ar   
    20    9   14 ar   
    21   10   11 ar   
    22   10  136 1    
    23   11   12 ar   
    24   11  126 1    
    25   12   13 ar   
    26   12  137 1    
    27   13   14 ar   
    28   13   15 1    
    29   14  138 1    
    30   15   16 1    
    31   15  139 1    
    32   15  140 1    
    33   16   17 1    
    34   17   18 1    
    35   17  141 1    
    36   17  142 1    
    37   18   19 1    
    38   18   67 1    
    39   18  143 1    
    40   19   20 am   BACKBONE|DICT|INTERRES
    41   19  144 1    
    42   20   21 2    
    43   20   22 1    
    44   22   23 1    
    45   22   24 1    
    46   22  145 1    
    47   23  146 1    
    48   23  147 1    
    49   23  148 1    
    50   24   25 am   BACKBONE|DICT|INTERRES
    51   24  149 1    
    52   25   26 2    
    53   25   27 1    
    54   27   28 1    
    55   27   29 1    
    56   27  150 1    
    57   28  151 1    
    58   28  152 1    
    59   28  153 1    
    60   29   30 am   BACKBONE|DICT|INTERRES
    61   29  154 1    
    62   30   31 2    
    63   30   32 1    
    64   32   33 1    
    65   32   34 1    
    66   32  155 1    
    67   33  156 1    
    68   33  157 1    
    69   33  158 1    
    70   34   35 am   BACKBONE|DICT|INTERRES
    71   34  159 1    
    72   35   36 2    
    73   35   37 1    
    74   37   38 1    
    75   37   39 1    
    76   37  160 1    
    77   38  161 1    
    78   38  162 1    
    79   38  163 1    
    80   39   40 am   BACKBONE|DICT|INTERRES
    81   39  164 1    
    82   40   41 2    
    83   40   42 1    
    84   42   43 1    
    85   42   44 1    
    86   42  165 1    
    87   43  166 1    
    88   43  167 1    
    89   43  168 1    
    90   44   45 am   BACKBONE|DICT|INTERRES
    91   44  169 1    
    92   45   46 2    
    93   45   47 1    
    94   47   48 1    
    95   47   49 1    
    96   47  170 1    
    97   48  171 1    
    98   48  172 1    
    99   48  173 1    
   100   49   50 am   BACKBONE|DICT|INTERRES
   101   49  174 1    
   102   50   51 2    
   103   50   52 1    
   104   52   53 1    
   105   52   54 1    
   106   52  175 1    
   107   53  176 1    
   108   53  177 1    
   109   53  178 1    
   110   54   55 am   BACKBONE|DICT|INTERRES
   111   54  179 1    
   112   55   56 2    
   113   55   57 1    
   114   57   58 1    
   115   57   59 1    
   116   57  180 1    
   117   58  181 1    
   118   58  182 1    
   119   58  183 1    
   120   59   60 am   BACKBONE|DICT|INTERRES
   121   59  184 1    
   122   60   61 2    
   123   60   62 1    
   124   62   63 1    
   125   62   64 1    
   126   62  185 1    
   127   63  186 1    
   128   63  187 1    
   129   63  188 1    
   130   64   65 am   BACKBONE|DICT|INTERRES
   131   64  189 1    
   132   65   66 2    
   133   67   68 2    
   134   67   69 am   BACKBONE|DICT|INTERRES
   135   69   70 1    
   136   69  190 1    
   137   70   71 1    
   138   70   72 1    
   139   70  191 1    
   140   71  192 1    
   141   71  193 1    
   142   71  194 1    
   143   72   73 2    
   144   72   74 am   BACKBONE|DICT|INTERRES
   145   74   75 1    
   146   74  195 1    
   147   75   76 1    
   148   75   77 1    
   149   75  196 1    
   150   76  197 1    
   151   76  198 1    
   152   76  199 1    
   153   77   78 2    
   154   77   79 am   BACKBONE|DICT|INTERRES
   155   79   80 1    
   156   79  200 1    
   157   80   81 1    
   158   80   82 1    
   159   80  201 1    
   160   81  202 1    
   161   81  203 1    
   162   81  204 1    
   163   82   83 2    
   164   82   84 am   BACKBONE|DICT|INTERRES
   165   84   85 1    
   166   84  205 1    
   167   85   86 1    
   168   85   87 1    
   169   85  206 1    
   170   86  207 1    
   171   86  208 1    
   172   86  209 1    
   173   87   88 2    
   174   87   89 am   BACKBONE|DICT|INTERRES
   175   89   90 1    
   176   89  210 1    
   177   90   91 1    
   178   90   92 1    
   179   90  211 1    
   180   91  212 1    
   181   91  213 1    
   182   91  214 1    
   183   92   93 2    
   184   92   94 am   BACKBONE|DICT|INTERRES
   185   94   95 1    
   186   94  215 1    
   187   95   96 1    
   188   95   97 1    
   189   95  216 1    
   190   96  217 1    
   191   96  218 1    
   192   96  219 1    
   193   97   98 2    
   194   97   99 am   BACKBONE|DICT|INTERRES
   195   99  100 1    
   196   99  220 1    
   197  100  101 1    
   198  100  102 1    
   199  100  221 1    
   200  101  222 1    
   201  101  223 1    
   202  101  224 1    
   203  102  103 2    
   204  102  104 am   BACKBONE|DICT|INTERRES
   205  104  105 1    
   206  104  225 1    
   207  105  106 1    
   208  105  107 1    
   209  105  226 1    
   210  106  227 1    
   211  106  228 1    
   212  106  229 1    
   213  107  108 2    
   214  107  109 am   BACKBONE|DICT|INTERRES
   215  109  110 1    
   216  109  230 1    
   217  110  111 1    
   218  110  112 1    
   219  110  231 1    
   220  111  232 1    
   221  111  233 1    
   222  111  234 1    
   223  112  113 2    
   224  112  114 am   BACKBONE|DICT|INTERRES
   225  114  115 1    
   226  114  235 1    
   227  115  116 1    
   228  115  117 1    
   229  115  236 1    
   230  116  237 1    
   231  116  238 1    
   232  116  239 1    
   233  117  118 2    
   234  117  119 am   BACKBONE|DICT|INTERRES
   235  119  120 1    
   236  119  240 1    
   237  120  121 1    
   238  120  124 1    
   239  120  241 1    
   240  121  122 am   BACKBONE|DICT|INTERRES
   241  121  123 2    
   242  122  242 1    
   243  122  243 1    
   244  124  125 1    
   245  124  244 1    
   246  124  245 1    
   247  125  126 1    
   248  126  246 1    
   249  126  247 1    
@<TRIPOS>SUBSTRUCTURE
     1 UNK         1 GROUP             0       ****    0 ROOT    
