@<TRIPOS>MOLECULE
3R540
247   249    1
SMALL
USER_CHARGES


@<TRIPOS>ATOM
      1 CA         -5.2563  -12.1852  -47.1673 C.3       0 UNK        -0.1800 
      2 C          -4.0628  -13.0303  -46.7473 C.2       0 UNK         0.5000 
      3 O          -2.9323  -12.7377  -47.1372 O.2       0 UNK        -0.5000 
      4 N          -4.3034  -14.0704  -45.9404 N.am      1 UNK        -0.5000 
      5 CA         -3.3032  -15.0099  -45.4251 C.3       1 UNK         0.1400 
      6 C6         -3.8909  -16.4293  -45.1980 C.3       23 UNK        -0.0398 
      7 S7         -5.3441  -16.5567  -44.0929 S.3       23 UNK        -0.2404 
      8 C8         -6.7720  -16.2434  -45.1833 C.3       23 UNK        -0.0205 
      9 C9         -6.9484  -17.2648  -46.2992 C.ar      23 UNK        -0.0193 
     10 C10        -6.4309  -17.0067  -47.5725 C.ar      23 UNK        -0.1150 
     11 C11        -6.6962  -17.8711  -48.6374 C.ar      23 UNK        -0.0193 
     12 C12        -7.5020  -18.9924  -48.4223 C.ar      23 UNK        -0.1150 
     13 C13        -7.9890  -19.2899  -47.1471 C.ar      23 UNK        -0.0193 
     14 C14        -7.7055  -18.4221  -46.0870 C.ar      23 UNK        -0.1150 
     15 C15        -8.8723  -20.5121  -46.9307 C.3       23 UNK        -0.0205 
     16 S16        -7.9244  -21.9994  -46.4670 S.3       23 UNK        -0.2404 
     17 C17        -7.1879  -22.5225  -48.0636 C.3       23 UNK        -0.0398 
     18 CA         -5.6399  -22.6339  -48.0489 C.3       11 UNK         0.1400 
     19 N          -5.0137  -21.4665  -47.4272 N.am      11 UNK        -0.5000 
     20 C          -3.7056  -21.1869  -47.4384 C.2       10 UNK         0.5000 
     21 O          -2.8972  -21.7648  -48.1659 O.2       10 UNK        -0.5000 
     22 CA         -3.2398  -20.0858  -46.4624 C.3       10 UNK         0.1400 
     23 CB         -4.1265  -20.0032  -45.1979 C.3       10 UNK        -0.1800 
     24 N          -1.8385  -20.2103  -46.0529 N.am      10 UNK        -0.5000 
     25 C          -1.2389  -21.2656  -45.4743 C.2       9 UNK         0.5000 
     26 O          -1.7717  -22.3657  -45.3085 O.2       9 UNK        -0.5000 
     27 CA          0.1878  -21.0259  -44.9262 C.3       9 UNK         0.1400 
     28 CB          1.2557  -21.3326  -45.9859 C.3       9 UNK        -0.1800 
     29 N           0.4011  -19.6539  -44.4634 N.am      9 UNK        -0.5000 
     30 C          -0.2772  -19.0455  -43.4822 C.2       8 UNK         0.5000 
     31 O          -1.0425  -19.6328  -42.7172 O.2       8 UNK        -0.5000 
     32 CA         -0.1033  -17.5180  -43.3521 C.3       8 UNK         0.1400 
     33 CB          0.6682  -17.1607  -42.0728 C.3       8 UNK        -0.1800 
     34 N           0.5318  -16.8476  -44.4969 N.am      8 UNK        -0.5000 
     35 C           0.0848  -16.8230  -45.7626 C.2       7 UNK         0.5000 
     36 O          -0.9180  -17.4294  -46.1376 O.2       7 UNK        -0.5000 
     37 CA          0.8900  -16.0052  -46.7886 C.3       7 UNK         0.1400 
     38 CB          0.0082  -14.9462  -47.4694 C.3       7 UNK        -0.1800 
     39 N           2.0322  -15.3238  -46.1827 N.am      7 UNK        -0.5000 
     40 C           3.3135  -15.6947  -46.3030 C.2       6 UNK         0.5000 
     41 O           3.6720  -16.7277  -46.8705 O.2       6 UNK        -0.5000 
     42 CA          4.3622  -14.7455  -45.6806 C.3       6 UNK         0.1400 
     43 CB          5.7594  -14.8843  -46.3196 C.3       6 UNK        -0.1800 
     44 N           3.9241  -13.3442  -45.6690 N.am      6 UNK        -0.5000 
     45 C           3.6245  -12.5687  -46.7252 C.2       5 UNK         0.5000 
     46 O           3.7916  -12.9116  -47.8960 O.2       5 UNK        -0.5000 
     47 CA          2.9911  -11.1922  -46.4349 C.3       5 UNK         0.1400 
     48 CB          1.5655  -11.1286  -47.0095 C.3       5 UNK        -0.1800 
     49 N           2.9229  -10.8990  -45.0028 N.am      5 UNK        -0.5000 
     50 C           3.8804  -10.2844  -44.2954 C.2       4 UNK         0.5000 
     51 O           4.9087   -9.8221  -44.7900 O.2       4 UNK        -0.5000 
     52 CA          3.6623  -10.1968  -42.7710 C.3       4 UNK         0.1400 
     53 CB          3.0131   -8.8552  -42.3985 C.3       4 UNK        -0.1800 
     54 N           2.8395  -11.2880  -42.2394 N.am      4 UNK        -0.5000 
     55 C           3.1931  -12.5817  -42.2249 C.2       3 UNK         0.5000 
     56 O           4.2733  -12.9989  -42.6404 O.2       3 UNK        -0.5000 
     57 CA          2.1363  -13.5845  -41.7287 C.3       3 UNK         0.1400 
     58 CB          2.2621  -13.8057  -40.2146 C.3       3 UNK        -0.1800 
     59 N           0.7680  -13.1684  -42.0493 N.am      3 UNK        -0.5000 
     60 C           0.2658  -13.1138  -43.2891 C.2       2 UNK         0.5000 
     61 O           0.8977  -13.4412  -44.2977 O.2       2 UNK        -0.5000 
     62 CA         -1.1457  -12.5223  -43.4264 C.3       2 UNK         0.1400 
     63 CB         -1.0607  -11.0451  -43.8394 C.3       2 UNK        -0.1800 
     64 N          -1.9323  -13.2447  -44.4205 N.am      2 UNK        -0.5000 
     65 C          -2.5388  -14.4196  -44.2157 C.2       1 UNK         0.5000 
     66 O          -2.5266  -15.0010  -43.1307 O.2       1 UNK        -0.5000 
     67 C          -5.1830  -23.9523  -47.3855 C.2       11 UNK         0.5000 
     68 O          -5.0020  -24.9495  -48.0864 O.2       11 UNK        -0.5000 
     69 N          -5.0081  -23.9133  -46.0552 N.am      12 UNK        -0.5000 
     70 CA         -4.7705  -25.0468  -45.1613 C.3       12 UNK         0.1400 
     71 CB         -4.6179  -24.5260  -43.7239 C.3       12 UNK        -0.1800 
     72 C          -3.5761  -25.9344  -45.5453 C.2       12 UNK         0.5000 
     73 O          -3.7237  -27.1561  -45.5954 O.2       12 UNK        -0.5000 
     74 N          -2.4271  -25.3179  -45.8485 N.am      13 UNK        -0.5000 
     75 CA         -1.1958  -26.0084  -46.2426 C.3       13 UNK         0.1400 
     76 CB          0.0049  -25.1425  -45.8324 C.3       13 UNK        -0.1800 
     77 C          -1.1773  -26.3620  -47.7457 C.2       13 UNK         0.5000 
     78 O          -0.1742  -26.1216  -48.4196 O.2       13 UNK        -0.5000 
     79 N          -2.2974  -26.8939  -48.2568 N.am      14 UNK        -0.5000 
     80 CA         -2.5507  -27.2610  -49.6551 C.3       14 UNK         0.1400 
     81 CB         -1.7213  -28.5030  -50.0427 C.3       14 UNK        -0.1800 
     82 C          -2.3327  -26.0726  -50.6133 C.2       14 UNK         0.5000 
     83 O          -1.5730  -26.1810  -51.5777 O.2       14 UNK        -0.5000 
     84 N          -2.9583  -24.9329  -50.2820 N.am      15 UNK        -0.5000 
     85 CA         -2.8189  -23.6376  -50.9612 C.3       15 UNK         0.1400 
     86 CB         -3.4169  -23.7065  -52.3804 C.3       15 UNK        -0.1800 
     87 C          -1.3744  -23.0870  -50.9306 C.2       15 UNK         0.5000 
     88 O          -0.9286  -22.4630  -51.8967 O.2       15 UNK        -0.5000 
     89 N          -0.6706  -23.3640  -49.8223 N.am      16 UNK        -0.5000 
     90 CA          0.7533  -23.1225  -49.5723 C.3       16 UNK         0.1400 
     91 CB          1.0557  -21.6119  -49.5451 C.3       16 UNK        -0.1800 
     92 C           1.6326  -23.8969  -50.5724 C.2       16 UNK         0.5000 
     93 O           2.4913  -23.3084  -51.2280 O.2       16 UNK        -0.5000 
     94 N           1.3462  -25.1986  -50.7217 N.am      17 UNK        -0.5000 
     95 CA          1.8801  -26.1034  -51.7492 C.3       17 UNK         0.1400 
     96 CB          3.3604  -26.4312  -51.4669 C.3       17 UNK        -0.1800 
     97 C           1.6381  -25.5630  -53.1781 C.2       17 UNK         0.5000 
     98 O           2.5393  -25.5811  -54.0179 O.2       17 UNK        -0.5000 
     99 N           0.4218  -25.0414  -53.3899 N.am      18 UNK        -0.5000 
    100 CA        -0.0892  -24.3402  -54.5720 C.3       18 UNK         0.1400 
    101 CB        -0.0830  -25.2662  -55.8051 C.3       18 UNK        -0.1800 
    102 C          0.5634  -22.9715  -54.8740 C.2       18 UNK         0.5000 
    103 O          0.1910  -22.3532  -55.8725 O.2       18 UNK        -0.5000 
    104 N          1.4940  -22.4920  -54.0346 N.am      19 UNK        -0.5000 
    105 CA         2.2320  -21.2476  -54.2657 C.3       19 UNK         0.1400 
    106 CB         3.5249  -21.2460  -53.4368 C.3       19 UNK        -0.1800 
    107 C          1.4118  -19.9777  -53.9757 C.2       19 UNK         0.5000 
    108 O          1.6717  -18.9486  -54.6010 O.2       19 UNK        -0.5000 
    109 N          0.4483  -20.0532  -53.0453 N.am      20 UNK        -0.5000 
    110 CA        -0.4091  -18.9201  -52.6796 C.3       20 UNK         0.1400 
    111 CB        -0.8447  -19.0493  -51.2104 C.3       20 UNK        -0.1800 
    112 C         -1.6381  -18.7899  -53.5965 C.2       20 UNK         0.5000 
    113 O         -2.2609  -17.7283  -53.6153 O.2       20 UNK        -0.5000 
    114 N         -1.9742  -19.8718  -54.3181 N.am      21 UNK        -0.5000 
    115 CA        -3.1425  -20.0293  -55.1962 C.3       21 UNK         0.1400 
    116 CB        -3.0657  -19.0690  -56.4010 C.3       21 UNK        -0.1800 
    117 C         -4.4914  -19.9447  -54.4442 C.2       21 UNK         0.5000 
    118 O         -5.5215  -19.6421  -55.0473 O.2       21 UNK        -0.5000 
    119 N         -4.4573  -20.2428  -53.1401 N.am      22 UNK        -0.5000 
    120 CA        -5.5950  -20.2508  -52.2079 C.3       22 UNK         0.1400 
    121 C         -6.5695  -21.4608  -52.3521 C.2       22 UNK         0.5000 
    122 N         -6.4259  -22.3314  -53.3424 N.am      22 UNK        -0.7600 
    123 O         -7.4880  -21.6085  -51.5515 O.2       22 UNK        -0.5000 
    124 C124       -5.0994  -20.0797  -50.7462 C.3       23 UNK        -0.0398 
    125 S125       -4.5668  -18.3768  -50.3730 S.3       23 UNK        -0.2404 
    126 C126       -6.1612  -17.5585  -50.0285 C.3       23 UNK        -0.0205 
    127 H127       -5.3462  -12.1785  -48.2536 H         1 UNK         0.0600 
    128 H128       -5.1257  -11.1576  -46.8283 H         1 UNK         0.0600 
    129 H129       -6.1896  -12.5656  -46.7514 H         1 UNK         0.0600 
    130 H130       -5.2408  -14.2213  -45.5999 H         1 UNK         0.3000 
    131 H131       -2.5498  -15.1361  -46.2029 H         1 UNK         0.0600 
    132 H132       -3.1187  -17.0758  -44.7816 H         1 UNK         0.0800 
    133 H133       -4.1320  -16.8786  -46.1595 H         1 UNK         0.0800 
    134 H134       -7.6702  -16.2385  -44.5637 H         1 UNK         0.0800 
    135 H135       -6.7119  -15.2405  -45.6035 H         1 UNK         0.0800 
    136 H136       -5.8466  -16.1134  -47.7438 H         1 UNK         0.1150 
    137 H137       -7.7649  -19.6280  -49.2546 H         1 UNK         0.1150 
    138 H138       -8.1083  -18.6259  -45.1046 H         1 UNK         0.1150 
    139 H139       -9.5931  -20.3022  -46.1390 H         1 UNK         0.0800 
    140 H140       -9.4642  -20.7179  -47.8241 H         1 UNK         0.0800 
    141 H141       -7.4862  -21.8212  -48.8397 H         1 UNK         0.0800 
    142 H142       -7.6432  -23.4691  -48.3613 H         1 UNK         0.0800 
    143 H143       -5.3090  -22.6757  -49.0873 H         1 UNK         0.0600 
    144 H144       -5.6217  -20.9193  -46.8336 H         1 UNK         0.3000 
    145 H145       -3.3181  -19.1398  -46.9997 H         1 UNK         0.0600 
    146 H146       -3.7039  -19.3213  -44.4609 H         1 UNK         0.0600 
    147 H147       -5.1262  -19.6364  -45.4309 H         1 UNK         0.0600 
    148 H148       -4.2289  -20.9742  -44.7116 H         1 UNK         0.0600 
    149 H149       -1.3057  -19.3499  -46.1344 H         1 UNK         0.3000 
    150 H150        0.3327  -21.6998  -44.0795 H         1 UNK         0.0600 
    151 H151        1.1157  -22.3155  -46.4289 H         1 UNK         0.0600 
    152 H152        2.2550  -21.3159  -45.5506 H         1 UNK         0.0600 
    153 H153        1.2343  -20.6015  -46.7938 H         1 UNK         0.0600 
    154 H154        1.0182  -19.0843  -45.0223 H         1 UNK         0.3000 
    155 H155       -1.1115  -17.1167  -43.2576 H         1 UNK         0.0600 
    156 H156        0.2663  -17.6884  -41.2068 H         1 UNK         0.0600 
    157 H157        0.5868  -16.0966  -41.8577 H         1 UNK         0.0600 
    158 H158        1.7254  -17.4158  -42.1525 H         1 UNK         0.0600 
    159 H159        1.3654  -16.3164  -44.2953 H         1 UNK         0.3000 
    160 H160        1.2280  -16.7038  -47.5565 H         1 UNK         0.0600 
    161 H161       -0.3651  -14.2127  -46.7545 H         1 UNK         0.0600 
    162 H162       -0.8521  -15.4014  -47.9617 H         1 UNK         0.0600 
    163 H163        0.5670  -14.4056  -48.2335 H         1 UNK         0.0600 
    164 H164        1.8103  -14.4857  -45.6511 H         1 UNK         0.3000 
    165 H165        4.4504  -15.0422  -44.6347 H         1 UNK         0.0600 
    166 H166        5.7395  -14.6795  -47.3902 H         1 UNK         0.0600 
    167 H167        6.4721  -14.1999  -45.8595 H         1 UNK         0.0600 
    168 H168        6.1503  -15.8939  -46.1886 H         1 UNK         0.0600 
    169 H169        3.7848  -12.9539  -44.7459 H         1 UNK         0.3000 
    170 H170        3.5968  -10.4361  -46.9385 H         1 UNK         0.0600 
    171 H171        1.5716  -11.2743  -48.0903 H         1 UNK         0.0600 
    172 H172        0.9227  -11.8987  -46.5816 H         1 UNK         0.0600 
    173 H173        1.1040  -10.1600  -46.8169 H         1 UNK         0.0600 
    174 H174        2.1221  -11.2687  -44.5116 H         1 UNK         0.3000 
    175 H175        4.6431  -10.2490  -42.2937 H         1 UNK         0.0600 
    176 H176        2.0171   -8.7554  -42.8321 H         1 UNK         0.0600 
    177 H177        2.9221   -8.7472  -41.3176 H         1 UNK         0.0600 
    178 H178        3.6129   -8.0179  -42.7577 H         1 UNK         0.0600 
    179 H179        1.9335  -11.0346  -41.8740 H         1 UNK         0.3000 
    180 H180        2.3329  -14.5341  -42.2303 H         1 UNK         0.0600 
    181 H181        2.0596  -12.8920  -39.6545 H         1 UNK         0.0600 
    182 H182        3.2675  -14.1369  -39.9508 H         1 UNK         0.0600 
    183 H183        1.5683  -14.5725  -39.8694 H         1 UNK         0.0600 
    184 H184        0.1914  -12.8812  -41.2713 H         1 UNK         0.3000 
    185 H185       -1.6551  -12.5829  -42.4623 H         1 UNK         0.0600 
    186 H186       -0.4866  -10.4654  -43.1156 H         1 UNK         0.0600 
    187 H187       -0.5826  -10.9238  -44.8119 H         1 UNK         0.0600 
    188 H188       -2.0527  -10.5968  -43.8989 H         1 UNK         0.0600 
    189 H189       -1.9884  -12.8384  -45.3485 H         1 UNK         0.3000 
    190 H190       -5.1579  -23.0267  -45.5987 H         1 UNK         0.3000 
    191 H191       -5.6638  -25.6732  -45.1994 H         1 UNK         0.0600 
    192 H192       -3.7767  -23.8370  -43.6332 H         1 UNK         0.0600 
    193 H193       -5.5163  -24.0027  -43.3960 H         1 UNK         0.0600 
    194 H194       -4.4481  -25.3464  -43.0253 H         1 UNK         0.0600 
    195 H195       -2.3810  -24.3047  -45.7902 H         1 UNK         0.3000 
    196 H196       -1.1215  -26.9496  -45.6941 H         1 UNK         0.0600 
    197 H197       -0.0223  -24.9000  -44.7700 H         1 UNK         0.0600 
    198 H198        0.0104  -24.2092  -46.3907 H         1 UNK         0.0600 
    199 H199        0.9487  -25.6531  -46.0278 H         1 UNK         0.0600 
    200 H200       -3.0699  -27.0367  -47.6162 H         1 UNK         0.3000 
    201 H201       -3.6062  -27.5275  -49.7246 H         1 UNK         0.0600 
    202 H202       -1.9684  -28.8377  -51.0509 H         1 UNK         0.0600 
    203 H203       -1.9194  -29.3350  -49.3671 H         1 UNK         0.0600 
    204 H204       -0.6500  -28.3005  -50.0194 H         1 UNK         0.0600 
    205 H205       -3.5666  -24.9477  -49.4682 H         1 UNK         0.3000 
    206 H206       -3.4180  -22.9275  -50.3973 H         1 UNK         0.0600 
    207 H207       -4.4692  -23.9843  -52.3389 H         1 UNK         0.0600 
    208 H208       -2.9135  -24.4430  -53.0037 H         1 UNK         0.0600 
    209 H209       -3.3493  -22.7475  -52.8913 H         1 UNK         0.0600 
    210 H210       -1.1477  -23.8833  -49.1002 H         1 UNK         0.3000 
    211 H211        0.9696  -23.5265  -48.5832 H         1 UNK         0.0600 
    212 H212        0.3307  -21.0743  -48.9341 H         1 UNK         0.0600 
    213 H213        2.0469  -21.4223  -49.1325 H         1 UNK         0.0600 
    214 H214        1.0353  -21.1800  -50.5441 H         1 UNK         0.0600 
    215 H215        0.6393  -25.5956  -50.1079 H         1 UNK         0.3000 
    216 H216        1.3111  -27.0308  -51.6694 H         1 UNK         0.0600 
    217 H217        3.7315  -27.1876  -52.1593 H         1 UNK         0.0600 
    218 H218        3.9975  -25.5523  -51.5703 H         1 UNK         0.0600 
    219 H219        3.4907  -26.8230  -50.4582 H         1 UNK         0.0600 
    220 H220       -0.2472  -25.1371  -52.6312 H         1 UNK         0.3000 
    221 H221       -1.1301  -24.1129  -54.3483 H         1 UNK         0.0600 
    222 H222        0.9297  -25.4865  -56.1431 H         1 UNK         0.0600 
    223 H223       -0.5796  -26.2123  -55.5899 H         1 UNK         0.0600 
    224 H224       -0.6114  -24.8084  -56.6421 H         1 UNK         0.0600 
    225 H225        1.7364  -23.0175  -53.2023 H         1 UNK         0.3000 
    226 H226        2.5194  -21.2191  -55.3190 H         1 UNK         0.0600 
    227 H227        4.0949  -22.1635  -53.5847 H         1 UNK         0.0600 
    228 H228        4.1670  -20.4125  -53.7238 H         1 UNK         0.0600 
    229 H229        3.3205  -21.1425  -52.3709 H         1 UNK         0.0600 
    230 H230        0.2526  -20.9436  -52.5974 H         1 UNK         0.3000 
    231 H231        0.1591  -17.9917  -52.7696 H         1 UNK         0.0600 
    232 H232       -1.4893  -18.2186  -50.9206 H         1 UNK         0.0600 
    233 H233        0.0154  -19.0284  -50.5422 H         1 UNK         0.0600 
    234 H234       -1.3988  -19.9693  -51.0252 H         1 UNK         0.0600 
    235 H235       -1.3743  -20.6814  -54.2382 H         1 UNK         0.3000 
    236 H236       -3.0840  -21.0459  -55.5877 H         1 UNK         0.0600 
    237 H237       -2.1051  -19.1518  -56.9095 H         1 UNK         0.0600 
    238 H238       -3.8399  -19.2983  -57.1340 H         1 UNK         0.0600 
    239 H239       -3.1993  -18.0291  -56.1019 H         1 UNK         0.0600 
    240 H240       -3.5580  -20.4603  -52.7400 H         1 UNK         0.3000 
    241 H241       -6.2133  -19.3865  -52.4545 H         1 UNK         0.0600 
    242 H242       -5.7146  -22.2040  -54.0422 H         1 UNK         0.3800 
    243 H243       -7.0760  -23.0973  -53.4212 H         1 UNK         0.3800 
    244 H244       -5.8534  -20.3662  -50.0196 H         1 UNK         0.0800 
    245 H245       -4.2569  -20.7435  -50.5538 H         1 UNK         0.0800 
    246 H246       -6.0229  -16.4814  -50.1339 H         1 UNK         0.0800 
    247 H247       -6.8967  -17.8374  -50.7838 H         1 UNK         0.0800 
@<TRIPOS>BOND
     1    1    2 1    
     2    1  127 1    
     3    1  128 1    
     4    1  129 1    
     5    2    3 2    
     6    2    4 am   BACKBONE|DICT|INTERRES
     7    4    5 1    
     8    4  130 1    
     9    5    6 1    
    10    5   65 1    
    11    5  131 1    
    12    6    7 1    
    13    6  132 1    
    14    6  133 1    
    15    7    8 1    
    16    8    9 1    
    17    8  134 1    
    18    8  135 1    
    19    9   10 ar   
    20    9   14 ar   
    21   10   11 ar   
    22   10  136 1    
    23   11   12 ar   
    24   11  126 1    
    25   12   13 ar   
    26   12  137 1    
    27   13   14 ar   
    28   13   15 1    
    29   14  138 1    
    30   15   16 1    
    31   15  139 1    
    32   15  140 1    
    33   16   17 1    
    34   17   18 1    
    35   17  141 1    
    36   17  142 1    
    37   18   19 1    
    38   18   67 1    
    39   18  143 1    
    40   19   20 am   BACKBONE|DICT|INTERRES
    41   19  144 1    
    42   20   21 2    
    43   20   22 1    
    44   22   23 1    
    45   22   24 1    
    46   22  145 1    
    47   23  146 1    
    48   23  147 1    
    49   23  148 1    
    50   24   25 am   BACKBONE|DICT|INTERRES
    51   24  149 1    
    52   25   26 2    
    53   25   27 1    
    54   27   28 1    
    55   27   29 1    
    56   27  150 1    
    57   28  151 1    
    58   28  152 1    
    59   28  153 1    
    60   29   30 am   BACKBONE|DICT|INTERRES
    61   29  154 1    
    62   30   31 2    
    63   30   32 1    
    64   32   33 1    
    65   32   34 1    
    66   32  155 1    
    67   33  156 1    
    68   33  157 1    
    69   33  158 1    
    70   34   35 am   BACKBONE|DICT|INTERRES
    71   34  159 1    
    72   35   36 2    
    73   35   37 1    
    74   37   38 1    
    75   37   39 1    
    76   37  160 1    
    77   38  161 1    
    78   38  162 1    
    79   38  163 1    
    80   39   40 am   BACKBONE|DICT|INTERRES
    81   39  164 1    
    82   40   41 2    
    83   40   42 1    
    84   42   43 1    
    85   42   44 1    
    86   42  165 1    
    87   43  166 1    
    88   43  167 1    
    89   43  168 1    
    90   44   45 am   BACKBONE|DICT|INTERRES
    91   44  169 1    
    92   45   46 2    
    93   45   47 1    
    94   47   48 1    
    95   47   49 1    
    96   47  170 1    
    97   48  171 1    
    98   48  172 1    
    99   48  173 1    
   100   49   50 am   BACKBONE|DICT|INTERRES
   101   49  174 1    
   102   50   51 2    
   103   50   52 1    
   104   52   53 1    
   105   52   54 1    
   106   52  175 1    
   107   53  176 1    
   108   53  177 1    
   109   53  178 1    
   110   54   55 am   BACKBONE|DICT|INTERRES
   111   54  179 1    
   112   55   56 2    
   113   55   57 1    
   114   57   58 1    
   115   57   59 1    
   116   57  180 1    
   117   58  181 1    
   118   58  182 1    
   119   58  183 1    
   120   59   60 am   BACKBONE|DICT|INTERRES
   121   59  184 1    
   122   60   61 2    
   123   60   62 1    
   124   62   63 1    
   125   62   64 1    
   126   62  185 1    
   127   63  186 1    
   128   63  187 1    
   129   63  188 1    
   130   64   65 am   BACKBONE|DICT|INTERRES
   131   64  189 1    
   132   65   66 2    
   133   67   68 2    
   134   67   69 am   BACKBONE|DICT|INTERRES
   135   69   70 1    
   136   69  190 1    
   137   70   71 1    
   138   70   72 1    
   139   70  191 1    
   140   71  192 1    
   141   71  193 1    
   142   71  194 1    
   143   72   73 2    
   144   72   74 am   BACKBONE|DICT|INTERRES
   145   74   75 1    
   146   74  195 1    
   147   75   76 1    
   148   75   77 1    
   149   75  196 1    
   150   76  197 1    
   151   76  198 1    
   152   76  199 1    
   153   77   78 2    
   154   77   79 am   BACKBONE|DICT|INTERRES
   155   79   80 1    
   156   79  200 1    
   157   80   81 1    
   158   80   82 1    
   159   80  201 1    
   160   81  202 1    
   161   81  203 1    
   162   81  204 1    
   163   82   83 2    
   164   82   84 am   BACKBONE|DICT|INTERRES
   165   84   85 1    
   166   84  205 1    
   167   85   86 1    
   168   85   87 1    
   169   85  206 1    
   170   86  207 1    
   171   86  208 1    
   172   86  209 1    
   173   87   88 2    
   174   87   89 am   BACKBONE|DICT|INTERRES
   175   89   90 1    
   176   89  210 1    
   177   90   91 1    
   178   90   92 1    
   179   90  211 1    
   180   91  212 1    
   181   91  213 1    
   182   91  214 1    
   183   92   93 2    
   184   92   94 am   BACKBONE|DICT|INTERRES
   185   94   95 1    
   186   94  215 1    
   187   95   96 1    
   188   95   97 1    
   189   95  216 1    
   190   96  217 1    
   191   96  218 1    
   192   96  219 1    
   193   97   98 2    
   194   97   99 am   BACKBONE|DICT|INTERRES
   195   99  100 1    
   196   99  220 1    
   197  100  101 1    
   198  100  102 1    
   199  100  221 1    
   200  101  222 1    
   201  101  223 1    
   202  101  224 1    
   203  102  103 2    
   204  102  104 am   BACKBONE|DICT|INTERRES
   205  104  105 1    
   206  104  225 1    
   207  105  106 1    
   208  105  107 1    
   209  105  226 1    
   210  106  227 1    
   211  106  228 1    
   212  106  229 1    
   213  107  108 2    
   214  107  109 am   BACKBONE|DICT|INTERRES
   215  109  110 1    
   216  109  230 1    
   217  110  111 1    
   218  110  112 1    
   219  110  231 1    
   220  111  232 1    
   221  111  233 1    
   222  111  234 1    
   223  112  113 2    
   224  112  114 am   BACKBONE|DICT|INTERRES
   225  114  115 1    
   226  114  235 1    
   227  115  116 1    
   228  115  117 1    
   229  115  236 1    
   230  116  237 1    
   231  116  238 1    
   232  116  239 1    
   233  117  118 2    
   234  117  119 am   BACKBONE|DICT|INTERRES
   235  119  120 1    
   236  119  240 1    
   237  120  121 1    
   238  120  124 1    
   239  120  241 1    
   240  121  122 am   BACKBONE|DICT|INTERRES
   241  121  123 2    
   242  122  242 1    
   243  122  243 1    
   244  124  125 1    
   245  124  244 1    
   246  124  245 1    
   247  125  126 1    
   248  126  246 1    
   249  126  247 1    
@<TRIPOS>SUBSTRUCTURE
     1 UNK         1 GROUP             0       ****    0 ROOT    
