@<TRIPOS>MOLECULE
3R540
247   249    1
SMALL
USER_CHARGES


@<TRIPOS>ATOM
      1 CA          8.4070  -13.1681  -48.9037 C.3       0 UNK        -0.1800 
      2 C           7.5276  -12.7895  -47.7199 C.2       0 UNK         0.5000 
      3 O           7.9514  -12.0077  -46.8679 O.2       0 UNK        -0.5000 
      4 N           6.3124  -13.3470  -47.6632 N.am      1 UNK        -0.5000 
      5 CA          5.2944  -13.0523  -46.6508 C.3       1 UNK         0.1400 
      6 C6          4.4561  -14.3183  -46.3144 C.3       23 UNK        -0.0398 
      7 S7          3.2303  -14.8247  -47.5731 S.3       23 UNK        -0.2404 
      8 C8          4.1434  -16.1016  -48.5107 C.3       23 UNK        -0.0205 
      9 C9          3.2723  -16.9352  -49.4518 C.ar      23 UNK        -0.0193 
     10 C10         2.1019  -16.4264  -50.0264 C.ar      23 UNK        -0.1150 
     11 C11         1.2939  -17.2240  -50.8392 C.ar      23 UNK        -0.0193 
     12 C12         1.6766  -18.5391  -51.1131 C.ar      23 UNK        -0.1150 
     13 C13         2.8585  -19.0550  -50.5732 C.ar      23 UNK        -0.0193 
     14 C14         3.6501  -18.2486  -49.7481 C.ar      23 UNK        -0.1150 
     15 C15         3.2869  -20.4823  -50.8773 C.3       23 UNK        -0.0205 
     16 S16         3.0987  -21.5709  -49.4311 S.3       23 UNK        -0.2404 
     17 C17         1.2851  -21.7420  -49.3326 C.3       23 UNK        -0.0398 
     18 CA          0.8688  -22.9632  -48.4804 C.3       11 UNK         0.1400 
     19 N           1.4057  -22.9172  -47.1164 N.am      11 UNK        -0.5000 
     20 C           1.4128  -23.9600  -46.2752 C.2       10 UNK         0.5000 
     21 O           0.9739  -25.0727  -46.5618 O.2       10 UNK        -0.5000 
     22 CA          1.9563  -23.7027  -44.8606 C.3       10 UNK         0.1400 
     23 CB          3.4869  -23.8235  -44.8369 C.3       10 UNK        -0.1800 
     24 N           1.5652  -22.3953  -44.3353 N.am      10 UNK        -0.5000 
     25 C           0.3103  -22.0030  -44.0872 C.2       9 UNK         0.5000 
     26 O          -0.6758  -22.7089  -44.2980 O.2       9 UNK        -0.5000 
     27 CA          0.1229  -20.5813  -43.5284 C.3       9 UNK         0.1400 
     28 CB          0.9040  -20.3662  -42.2176 C.3       9 UNK        -0.1800 
     29 N           0.4137  -19.5178  -44.4933 N.am      9 UNK        -0.5000 
     30 C           1.5682  -19.2240  -45.1124 C.2       8 UNK         0.5000 
     31 O           2.6058  -19.8788  -45.0077 O.2       8 UNK        -0.5000 
     32 CA          1.5626  -17.9456  -45.9675 C.3       8 UNK         0.1400 
     33 CB          0.7837  -18.1670  -47.2711 C.3       8 UNK        -0.1800 
     34 N           0.9789  -16.8154  -45.2493 N.am      8 UNK        -0.5000 
     35 C           1.4875  -16.2507  -44.1451 C.2       7 UNK         0.5000 
     36 O           2.5626  -16.5702  -43.6373 O.2       7 UNK        -0.5000 
     37 CA          0.6375  -15.1514  -43.4866 C.3       7 UNK         0.1400 
     38 CB          0.9154  -13.7838  -44.1290 C.3       7 UNK        -0.1800 
     39 N          -0.7905  -15.4568  -43.5801 N.am      7 UNK        -0.5000 
     40 C          -1.4412  -16.2803  -42.7457 C.2       6 UNK         0.5000 
     41 O          -0.9203  -16.8092  -41.7634 O.2       6 UNK        -0.5000 
     42 CA         -2.9235  -16.5682  -43.0571 C.3       6 UNK         0.1400 
     43 CB         -3.8313  -15.5917  -42.2940 C.3       6 UNK        -0.1800 
     44 N          -3.2400  -16.4959  -44.4842 N.am      6 UNK        -0.5000 
     45 C          -2.8267  -17.3818  -45.4006 C.2       5 UNK         0.5000 
     46 O          -2.1532  -18.3772  -45.1344 O.2       5 UNK        -0.5000 
     47 CA         -3.1763  -17.0659  -46.8680 C.3       5 UNK         0.1400 
     48 CB         -4.5498  -17.6432  -47.2426 C.3       5 UNK        -0.1800 
     49 N          -3.1503  -15.6325  -47.1864 N.am      5 UNK        -0.5000 
     50 C          -2.0678  -14.8519  -47.0740 C.2       4 UNK         0.5000 
     51 O          -0.9972  -15.2345  -46.5976 O.2       4 UNK        -0.5000 
     52 CA         -2.2089  -13.3926  -47.5240 C.3       4 UNK         0.1400 
     53 CB         -2.6002  -12.5080  -46.3302 C.3       4 UNK        -0.1800 
     54 N          -0.9157  -12.9492  -48.0323 N.am      4 UNK        -0.5000 
     55 C          -0.6467  -12.5678  -49.2855 C.2       3 UNK         0.5000 
     56 O          -1.4993  -12.4664  -50.1700 O.2       3 UNK        -0.5000 
     57 CA          0.8358  -12.2880  -49.6064 C.3       3 UNK         0.1400 
     58 CB          1.0286  -11.3463  -50.8134 C.3       3 UNK        -0.1800 
     59 N           1.6088  -11.8410  -48.4406 N.am      3 UNK        -0.5000 
     60 C           1.4950  -10.6794  -47.7771 C.2       2 UNK         0.5000 
     61 O           0.6896   -9.7978  -48.0782 O.2       2 UNK        -0.5000 
     62 CA          2.4199  -10.4593  -46.5565 C.3       2 UNK         0.1400 
     63 CB          1.5876  -10.2356  -45.2830 C.3       2 UNK        -0.1800 
     64 N           3.3735  -11.5480  -46.3070 N.am      2 UNK        -0.5000 
     65 C           4.4518  -11.8163  -47.0572 C.2       1 UNK         0.5000 
     66 O           4.7634  -11.1429  -48.0432 O.2       1 UNK        -0.5000 
     67 C          -0.6625  -23.1337  -48.4759 C.2       11 UNK         0.5000 
     68 O          -1.1860  -23.8883  -49.2931 O.2       11 UNK        -0.5000 
     69 N          -1.3468  -22.4720  -47.5305 N.am      12 UNK        -0.5000 
     70 CA         -2.7882  -22.6038  -47.3165 C.3       12 UNK         0.1400 
     71 CB         -3.2782  -21.4909  -46.3800 C.3       12 UNK        -0.1800 
     72 C          -3.1615  -23.9961  -46.7814 C.2       12 UNK         0.5000 
     73 O          -4.1295  -24.5875  -47.2569 O.2       12 UNK        -0.5000 
     74 N          -2.3609  -24.5213  -45.8428 N.am      13 UNK        -0.5000 
     75 CA         -2.4880  -25.8786  -45.3099 C.3       13 UNK         0.1400 
     76 CB         -1.5144  -26.0704  -44.1377 C.3       13 UNK        -0.1800 
     77 C          -2.2789  -26.9576  -46.3892 C.2       13 UNK         0.5000 
     78 O          -3.0865  -27.8823  -46.4835 O.2       13 UNK        -0.5000 
     79 N          -1.2406  -26.7906  -47.2220 N.am      14 UNK        -0.5000 
     80 CA         -0.9433  -27.6479  -48.3740 C.3       14 UNK         0.1400 
     81 CB          0.4125  -27.2476  -48.9744 C.3       14 UNK        -0.1800 
     82 C          -2.0432  -27.6170  -49.4533 C.2       14 UNK         0.5000 
     83 O          -2.3080  -28.6422  -50.0814 O.2       14 UNK        -0.5000 
     84 N          -2.6928  -26.4569  -49.6150 N.am      15 UNK        -0.5000 
     85 CA         -3.8465  -26.2428  -50.4894 C.3       15 UNK         0.1400 
     86 CB         -3.8950  -24.7585  -50.8900 C.3       15 UNK        -0.1800 
     87 C          -5.1855  -26.7021  -49.8680 C.2       15 UNK         0.5000 
     88 O          -6.2314  -26.4611  -50.4698 O.2       15 UNK        -0.5000 
     89 N          -5.1468  -27.3437  -48.6894 N.am      16 UNK        -0.5000 
     90 CA         -6.2793  -27.8913  -47.9346 C.3       16 UNK         0.1400 
     91 CB         -6.9638  -29.0345  -48.7137 C.3       16 UNK        -0.1800 
     92 C          -7.2614  -26.8041  -47.4522 C.2       16 UNK         0.5000 
     93 O          -8.4776  -26.9710  -47.5580 O.2       16 UNK        -0.5000 
     94 N          -6.6964  -25.7081  -46.9273 N.am      17 UNK        -0.5000 
     95 CA         -7.3583  -24.5195  -46.3787 C.3       17 UNK         0.1400 
     96 CB         -8.3283  -24.8776  -45.2327 C.3       17 UNK        -0.1800 
     97 C          -7.9942  -23.6069  -47.4470 C.2       17 UNK         0.5000 
     98 O          -8.7873  -22.7288  -47.1011 O.2       17 UNK        -0.5000 
     99 N          -7.6129  -23.7932  -48.7175 N.am      18 UNK        -0.5000 
    100 CA        -7.9175  -22.8754  -49.8137 C.3       18 UNK         0.1400 
    101 CB        -7.8077  -23.6321  -51.1463 C.3       18 UNK        -0.1800 
    102 C         -6.9826  -21.6486  -49.7882 C.2       18 UNK         0.5000 
    103 O         -6.0229  -21.6055  -49.0142 O.2       18 UNK        -0.5000 
    104 N         -7.2804  -20.6703  -50.6529 N.am      19 UNK        -0.5000 
    105 CA        -6.5853  -19.3829  -50.7397 C.3       19 UNK         0.1400 
    106 CB        -7.3832  -18.4491  -51.6636 C.3       19 UNK        -0.1800 
    107 C         -5.1172  -19.4590  -51.2032 C.2       19 UNK         0.5000 
    108 O         -4.3880  -18.4937  -50.9916 O.2       19 UNK        -0.5000 
    109 N         -4.7145  -20.5660  -51.8490 N.am      20 UNK        -0.5000 
    110 CA        -3.3479  -20.8705  -52.3078 C.3       20 UNK         0.1400 
    111 CB        -2.4255  -21.1236  -51.0982 C.3       20 UNK        -0.1800 
    112 C         -2.7586  -19.8268  -53.2855 C.2       20 UNK         0.5000 
    113 O         -1.5427  -19.6334  -53.3240 O.2       20 UNK        -0.5000 
    114 N         -3.6458  -19.1678  -54.0469 N.am      21 UNK        -0.5000 
    115 CA        -3.3885  -18.0555  -54.9705 C.3       21 UNK         0.1400 
    116 CB        -2.4582  -18.4896  -56.1232 C.3       21 UNK        -0.1800 
    117 C         -2.9154  -16.7533  -54.2828 C.2       21 UNK         0.5000 
    118 O         -2.4199  -15.8554  -54.9666 O.2       21 UNK        -0.5000 
    119 N         -3.0906  -16.6520  -52.9591 N.am      22 UNK        -0.5000 
    120 CA        -2.8274  -15.4451  -52.1646 C.3       22 UNK         0.1400 
    121 C         -3.9126  -14.3440  -52.3567 C.2       22 UNK         0.5000 
    122 N         -3.6793  -13.1383  -51.8553 N.am      22 UNK        -0.7600 
    123 O         -4.9756  -14.5660  -52.9340 O.2       22 UNK        -0.5000 
    124 C124       -2.6479  -15.7902  -50.6634 C.3       23 UNK        -0.0398 
    125 S125       -1.3771  -17.0384  -50.2512 S.3       23 UNK        -0.2404 
    126 C126       -0.0071  -16.6634  -51.3857 C.3       23 UNK        -0.0205 
    127 H127        8.6586  -12.2796  -49.4828 H         1 UNK         0.0600 
    128 H128        7.9113  -13.8772  -49.5673 H         1 UNK         0.0600 
    129 H129        9.3339  -13.6220  -48.5531 H         1 UNK         0.0600 
    130 H130        6.0085  -13.9393  -48.4211 H         1 UNK         0.3000 
    131 H131        5.8060  -12.7698  -45.7282 H         1 UNK         0.0600 
    132 H132        5.1223  -15.1559  -46.1031 H         1 UNK         0.0800 
    133 H133        3.9131  -14.1624  -45.3818 H         1 UNK         0.0800 
    134 H134        4.6360  -16.7655  -47.7987 H         1 UNK         0.0800 
    135 H135        4.9303  -15.6261  -49.0960 H         1 UNK         0.0800 
    136 H136        1.7897  -15.4169  -49.8150 H         1 UNK         0.1150 
    137 H137        1.0474  -19.1591  -51.7372 H         1 UNK         0.1150 
    138 H138        4.5566  -18.6556  -49.3222 H         1 UNK         0.1150 
    139 H139        2.7265  -20.8890  -51.7206 H         1 UNK         0.0800 
    140 H140        4.3346  -20.4811  -51.1811 H         1 UNK         0.0800 
    141 H141        0.8935  -21.8422  -50.3466 H         1 UNK         0.0800 
    142 H142        0.8613  -20.8218  -48.9308 H         1 UNK         0.0800 
    143 H143        1.2833  -23.8523  -48.9612 H         1 UNK         0.0600 
    144 H144        1.8095  -22.0435  -46.8117 H         1 UNK         0.3000 
    145 H145        1.5415  -24.4667  -44.2002 H         1 UNK         0.0600 
    146 H146        3.8742  -23.7224  -43.8229 H         1 UNK         0.0600 
    147 H147        3.8077  -24.7964  -45.2117 H         1 UNK         0.0600 
    148 H148        3.9609  -23.0596  -45.4549 H         1 UNK         0.0600 
    149 H149        2.2955  -21.6971  -44.2412 H         1 UNK         0.3000 
    150 H150       -0.9376  -20.4796  -43.2919 H         1 UNK         0.0600 
    151 H151        0.6554  -21.1348  -41.4848 H         1 UNK         0.0600 
    152 H152        0.6578  -19.4016  -41.7728 H         1 UNK         0.0600 
    153 H153        1.9833  -20.3944  -42.3688 H         1 UNK         0.0600 
    154 H154       -0.3903  -18.9332  -44.7111 H         1 UNK         0.3000 
    155 H155        2.5934  -17.6874  -46.2182 H         1 UNK         0.0600 
    156 H156       -0.2043  -18.5939  -47.0997 H         1 UNK         0.0600 
    157 H157        0.6458  -17.2304  -47.8100 H         1 UNK         0.0600 
    158 H158        1.3282  -18.8417  -47.9292 H         1 UNK         0.0600 
    159 H159        0.1334  -16.4167  -45.6468 H         1 UNK         0.3000 
    160 H160        0.9199  -15.0899  -42.4333 H         1 UNK         0.0600 
    161 H161        0.7355  -13.7913  -45.2042 H         1 UNK         0.0600 
    162 H162        1.9529  -13.4889  -43.9719 H         1 UNK         0.0600 
    163 H163        0.2882  -13.0095  -43.6872 H         1 UNK         0.0600 
    164 H164       -1.2698  -15.1174  -44.4023 H         1 UNK         0.3000 
    165 H165       -3.1423  -17.5806  -42.7105 H         1 UNK         0.0600 
    166 H166       -4.8840  -15.8313  -42.4452 H         1 UNK         0.0600 
    167 H167       -3.6398  -15.6378  -41.2211 H         1 UNK         0.0600 
    168 H168       -3.6714  -14.5607  -42.6120 H         1 UNK         0.0600 
    169 H169       -3.7853  -15.7044  -44.7919 H         1 UNK         0.3000 
    170 H170       -2.4248  -17.5565  -47.4889 H         1 UNK         0.0600 
    171 H171       -4.6032  -18.7100  -47.0238 H         1 UNK         0.0600 
    172 H172       -5.3561  -17.1555  -46.6937 H         1 UNK         0.0600 
    173 H173       -4.7472  -17.5248  -48.3082 H         1 UNK         0.0600 
    174 H174       -4.0049  -15.2408  -47.5541 H         1 UNK         0.3000 
    175 H175       -2.9803  -13.3227  -48.2934 H         1 UNK         0.0600 
    176 H176       -1.8678  -12.5680  -45.5238 H         1 UNK         0.0600 
    177 H177       -2.6805  -11.4624  -46.6285 H         1 UNK         0.0600 
    178 H178       -3.5668  -12.8046  -45.9213 H         1 UNK         0.0600 
    179 H179       -0.1391  -13.0908  -47.4028 H         1 UNK         0.3000 
    180 H180        1.2607  -13.2499  -49.8886 H         1 UNK         0.0600 
    181 H181        0.5458  -10.3812  -50.6590 H         1 UNK         0.0600 
    182 H182        0.6021  -11.7806  -51.7183 H         1 UNK         0.0600 
    183 H183        2.0859  -11.1669  -51.0084 H         1 UNK         0.0600 
    184 H184        2.2998  -12.4976  -48.1047 H         1 UNK         0.3000 
    185 H185        2.9907   -9.5486  -46.7495 H         1 UNK         0.0600 
    186 H186        0.9512   -9.3553  -45.3817 H         1 UNK         0.0600 
    187 H187        0.9360  -11.0837  -45.0749 H         1 UNK         0.0600 
    188 H188        2.2247  -10.0752  -44.4130 H         1 UNK         0.0600 
    189 H189        3.1744  -12.1317  -45.5088 H         1 UNK         0.3000 
    190 H190       -0.8396  -21.9146  -46.8603 H         1 UNK         0.3000 
    191 H191       -3.2926  -22.4750  -48.2753 H         1 UNK         0.0600 
    192 H192       -2.8410  -21.5684  -45.3845 H         1 UNK         0.0600 
    193 H193       -4.3626  -21.5284  -46.2685 H         1 UNK         0.0600 
    194 H194       -3.0259  -20.5090  -46.7793 H         1 UNK         0.0600 
    195 H195       -1.6171  -23.9467  -45.4571 H         1 UNK         0.3000 
    196 H196       -3.5042  -25.9876  -44.9252 H         1 UNK         0.0600 
    197 H197       -1.6263  -27.0615  -43.6966 H         1 UNK         0.0600 
    198 H198       -1.6983  -25.3399  -43.3496 H         1 UNK         0.0600 
    199 H199       -0.4763  -25.9670  -44.4522 H         1 UNK         0.0600 
    200 H200       -0.5884  -26.0304  -47.0454 H         1 UNK         0.3000 
    201 H201       -0.8656  -28.6749  -48.0118 H         1 UNK         0.0600 
    202 H202        1.2125  -27.3426  -48.2401 H         1 UNK         0.0600 
    203 H203        0.4051  -26.2170  -49.3302 H         1 UNK         0.0600 
    204 H204        0.6700  -27.8860  -49.8204 H         1 UNK         0.0600 
    205 H205       -2.3701  -25.6463  -49.0988 H         1 UNK         0.3000 
    206 H206       -3.7019  -26.8269  -51.4003 H         1 UNK         0.0600 
    207 H207       -2.9364  -24.4240  -51.2866 H         1 UNK         0.0600 
    208 H208       -4.6332  -24.5901  -51.6729 H         1 UNK         0.0600 
    209 H209       -4.1514  -24.1192  -50.0444 H         1 UNK         0.0600 
    210 H210       -4.2441  -27.4602  -48.2447 H         1 UNK         0.3000 
    211 H211       -5.8525  -28.3285  -47.0309 H         1 UNK         0.0600 
    212 H212       -7.4701  -28.6725  -49.6088 H         1 UNK         0.0600 
    213 H213       -7.7117  -29.5331  -48.0961 H         1 UNK         0.0600 
    214 H214       -6.2406  -29.7906  -49.0195 H         1 UNK         0.0600 
    215 H215       -5.6835  -25.6236  -46.9801 H         1 UNK         0.3000 
    216 H216       -6.5556  -23.9257  -45.9392 H         1 UNK         0.0600 
    217 H217       -8.6581  -23.9808  -44.7073 H         1 UNK         0.0600 
    218 H218       -7.8497  -25.5243  -44.4973 H         1 UNK         0.0600 
    219 H219       -9.2218  -25.3842  -45.5977 H         1 UNK         0.0600 
    220 H220       -6.9464  -24.5264  -48.9139 H         1 UNK         0.3000 
    221 H221       -8.9451  -22.5226  -49.7037 H         1 UNK         0.0600 
    222 H222       -6.7814  -23.9269  -51.3564 H         1 UNK         0.0600 
    223 H223       -8.4186  -24.5352  -51.1390 H         1 UNK         0.0600 
    224 H224       -8.1495  -23.0195  -51.9810 H         1 UNK         0.0600 
    225 H225       -8.0778  -20.7857  -51.2618 H         1 UNK         0.3000 
    226 H226       -6.5775  -18.9442  -49.7397 H         1 UNK         0.0600 
    227 H227       -8.3958  -18.2949  -51.2905 H         1 UNK         0.0600 
    228 H228       -6.9122  -17.4670  -51.7314 H         1 UNK         0.0600 
    229 H229       -7.4541  -18.8488  -52.6759 H         1 UNK         0.0600 
    230 H230       -5.4002  -21.2918  -51.9973 H         1 UNK         0.3000 
    231 H231       -3.4150  -21.8033  -52.8693 H         1 UNK         0.0600 
    232 H232       -1.4470  -21.4855  -51.4153 H         1 UNK         0.0600 
    233 H233       -2.8498  -21.8810  -50.4422 H         1 UNK         0.0600 
    234 H234       -2.2672  -20.2186  -50.5104 H         1 UNK         0.0600 
    235 H235       -4.6192  -19.4075  -53.9236 H         1 UNK         0.3000 
    236 H236       -4.3562  -17.8142  -55.4123 H         1 UNK         0.0600 
    237 H237       -2.4171  -17.7262  -56.9009 H         1 UNK         0.0600 
    238 H238       -1.4370  -18.6574  -55.7805 H         1 UNK         0.0600 
    239 H239       -2.8115  -19.4081  -56.5919 H         1 UNK         0.0600 
    240 H240       -3.5017  -17.4258  -52.4472 H         1 UNK         0.3000 
    241 H241       -1.8992  -15.0058  -52.5314 H         1 UNK         0.0600 
    242 H242       -4.3776  -12.4217  -51.9731 H         1 UNK         0.3800 
    243 H243       -2.8307  -12.9171  -51.3359 H         1 UNK         0.3800 
    244 H244       -2.3887  -14.8937  -50.1065 H         1 UNK         0.0800 
    245 H245       -3.5936  -16.1315  -50.2411 H         1 UNK         0.0800 
    246 H246        0.0871  -15.5842  -51.5117 H         1 UNK         0.0800 
    247 H247       -0.2201  -17.0837  -52.3700 H         1 UNK         0.0800 
@<TRIPOS>BOND
     1    1    2 1    
     2    1  127 1    
     3    1  128 1    
     4    1  129 1    
     5    2    3 2    
     6    2    4 am   BACKBONE|DICT|INTERRES
     7    4    5 1    
     8    4  130 1    
     9    5    6 1    
    10    5   65 1    
    11    5  131 1    
    12    6    7 1    
    13    6  132 1    
    14    6  133 1    
    15    7    8 1    
    16    8    9 1    
    17    8  134 1    
    18    8  135 1    
    19    9   10 ar   
    20    9   14 ar   
    21   10   11 ar   
    22   10  136 1    
    23   11   12 ar   
    24   11  126 1    
    25   12   13 ar   
    26   12  137 1    
    27   13   14 ar   
    28   13   15 1    
    29   14  138 1    
    30   15   16 1    
    31   15  139 1    
    32   15  140 1    
    33   16   17 1    
    34   17   18 1    
    35   17  141 1    
    36   17  142 1    
    37   18   19 1    
    38   18   67 1    
    39   18  143 1    
    40   19   20 am   BACKBONE|DICT|INTERRES
    41   19  144 1    
    42   20   21 2    
    43   20   22 1    
    44   22   23 1    
    45   22   24 1    
    46   22  145 1    
    47   23  146 1    
    48   23  147 1    
    49   23  148 1    
    50   24   25 am   BACKBONE|DICT|INTERRES
    51   24  149 1    
    52   25   26 2    
    53   25   27 1    
    54   27   28 1    
    55   27   29 1    
    56   27  150 1    
    57   28  151 1    
    58   28  152 1    
    59   28  153 1    
    60   29   30 am   BACKBONE|DICT|INTERRES
    61   29  154 1    
    62   30   31 2    
    63   30   32 1    
    64   32   33 1    
    65   32   34 1    
    66   32  155 1    
    67   33  156 1    
    68   33  157 1    
    69   33  158 1    
    70   34   35 am   BACKBONE|DICT|INTERRES
    71   34  159 1    
    72   35   36 2    
    73   35   37 1    
    74   37   38 1    
    75   37   39 1    
    76   37  160 1    
    77   38  161 1    
    78   38  162 1    
    79   38  163 1    
    80   39   40 am   BACKBONE|DICT|INTERRES
    81   39  164 1    
    82   40   41 2    
    83   40   42 1    
    84   42   43 1    
    85   42   44 1    
    86   42  165 1    
    87   43  166 1    
    88   43  167 1    
    89   43  168 1    
    90   44   45 am   BACKBONE|DICT|INTERRES
    91   44  169 1    
    92   45   46 2    
    93   45   47 1    
    94   47   48 1    
    95   47   49 1    
    96   47  170 1    
    97   48  171 1    
    98   48  172 1    
    99   48  173 1    
   100   49   50 am   BACKBONE|DICT|INTERRES
   101   49  174 1    
   102   50   51 2    
   103   50   52 1    
   104   52   53 1    
   105   52   54 1    
   106   52  175 1    
   107   53  176 1    
   108   53  177 1    
   109   53  178 1    
   110   54   55 am   BACKBONE|DICT|INTERRES
   111   54  179 1    
   112   55   56 2    
   113   55   57 1    
   114   57   58 1    
   115   57   59 1    
   116   57  180 1    
   117   58  181 1    
   118   58  182 1    
   119   58  183 1    
   120   59   60 am   BACKBONE|DICT|INTERRES
   121   59  184 1    
   122   60   61 2    
   123   60   62 1    
   124   62   63 1    
   125   62   64 1    
   126   62  185 1    
   127   63  186 1    
   128   63  187 1    
   129   63  188 1    
   130   64   65 am   BACKBONE|DICT|INTERRES
   131   64  189 1    
   132   65   66 2    
   133   67   68 2    
   134   67   69 am   BACKBONE|DICT|INTERRES
   135   69   70 1    
   136   69  190 1    
   137   70   71 1    
   138   70   72 1    
   139   70  191 1    
   140   71  192 1    
   141   71  193 1    
   142   71  194 1    
   143   72   73 2    
   144   72   74 am   BACKBONE|DICT|INTERRES
   145   74   75 1    
   146   74  195 1    
   147   75   76 1    
   148   75   77 1    
   149   75  196 1    
   150   76  197 1    
   151   76  198 1    
   152   76  199 1    
   153   77   78 2    
   154   77   79 am   BACKBONE|DICT|INTERRES
   155   79   80 1    
   156   79  200 1    
   157   80   81 1    
   158   80   82 1    
   159   80  201 1    
   160   81  202 1    
   161   81  203 1    
   162   81  204 1    
   163   82   83 2    
   164   82   84 am   BACKBONE|DICT|INTERRES
   165   84   85 1    
   166   84  205 1    
   167   85   86 1    
   168   85   87 1    
   169   85  206 1    
   170   86  207 1    
   171   86  208 1    
   172   86  209 1    
   173   87   88 2    
   174   87   89 am   BACKBONE|DICT|INTERRES
   175   89   90 1    
   176   89  210 1    
   177   90   91 1    
   178   90   92 1    
   179   90  211 1    
   180   91  212 1    
   181   91  213 1    
   182   91  214 1    
   183   92   93 2    
   184   92   94 am   BACKBONE|DICT|INTERRES
   185   94   95 1    
   186   94  215 1    
   187   95   96 1    
   188   95   97 1    
   189   95  216 1    
   190   96  217 1    
   191   96  218 1    
   192   96  219 1    
   193   97   98 2    
   194   97   99 am   BACKBONE|DICT|INTERRES
   195   99  100 1    
   196   99  220 1    
   197  100  101 1    
   198  100  102 1    
   199  100  221 1    
   200  101  222 1    
   201  101  223 1    
   202  101  224 1    
   203  102  103 2    
   204  102  104 am   BACKBONE|DICT|INTERRES
   205  104  105 1    
   206  104  225 1    
   207  105  106 1    
   208  105  107 1    
   209  105  226 1    
   210  106  227 1    
   211  106  228 1    
   212  106  229 1    
   213  107  108 2    
   214  107  109 am   BACKBONE|DICT|INTERRES
   215  109  110 1    
   216  109  230 1    
   217  110  111 1    
   218  110  112 1    
   219  110  231 1    
   220  111  232 1    
   221  111  233 1    
   222  111  234 1    
   223  112  113 2    
   224  112  114 am   BACKBONE|DICT|INTERRES
   225  114  115 1    
   226  114  235 1    
   227  115  116 1    
   228  115  117 1    
   229  115  236 1    
   230  116  237 1    
   231  116  238 1    
   232  116  239 1    
   233  117  118 2    
   234  117  119 am   BACKBONE|DICT|INTERRES
   235  119  120 1    
   236  119  240 1    
   237  120  121 1    
   238  120  124 1    
   239  120  241 1    
   240  121  122 am   BACKBONE|DICT|INTERRES
   241  121  123 2    
   242  122  242 1    
   243  122  243 1    
   244  124  125 1    
   245  124  244 1    
   246  124  245 1    
   247  125  126 1    
   248  126  246 1    
   249  126  247 1    
@<TRIPOS>SUBSTRUCTURE
     1 UNK         1 GROUP             0       ****    0 ROOT    
