@<TRIPOS>MOLECULE
3R540
247   249    1
SMALL
USER_CHARGES


@<TRIPOS>ATOM
      1 CA          1.8979  -12.1480  -50.4799 C.3       0 UNK        -0.1800 
      2 C           2.4549  -13.5692  -50.4108 C.2       0 UNK         0.5000 
      3 O           1.9984  -14.4302  -51.1580 O.2       0 UNK        -0.5000 
      4 N           3.4418  -13.8661  -49.5539 N.am      1 UNK        -0.5000 
      5 CA          4.0211  -13.0072  -48.5149 C.3       1 UNK         0.1400 
      6 C6          5.3275  -13.6158  -47.9339 C.3       23 UNK        -0.0398 
      7 S7          5.1572  -15.3066  -47.2523 S.3       23 UNK        -0.2404 
      8 C8          5.7989  -16.3370  -48.6131 C.3       23 UNK        -0.0205 
      9 C9          5.0315  -17.6463  -48.7413 C.ar      23 UNK        -0.0193 
     10 C10         3.6936  -17.6252  -49.1441 C.ar      23 UNK        -0.1150 
     11 C11         2.9793  -18.8119  -49.3123 C.ar      23 UNK        -0.0193 
     12 C12         3.6115  -20.0336  -49.0721 C.ar      23 UNK        -0.1150 
     13 C13         4.9475  -20.0751  -48.6602 C.ar      23 UNK        -0.0193 
     14 C14         5.6534  -18.8767  -48.4961 C.ar      23 UNK        -0.1150 
     15 C15         5.6273  -21.4202  -48.4233 C.3       23 UNK        -0.0205 
     16 S16         5.8683  -21.8013  -46.6560 S.3       23 UNK        -0.2404 
     17 C17         4.1714  -21.6471  -46.0102 C.3       23 UNK        -0.0398 
     18 CA          3.8860  -22.5037  -44.7472 C.3       11 UNK         0.1400 
     19 N           2.9219  -21.8227  -43.8756 N.am      11 UNK        -0.5000 
     20 C           2.7681  -22.0254  -42.5617 C.2       10 UNK         0.5000 
     21 O           3.4362  -22.8291  -41.9109 O.2       10 UNK        -0.5000 
     22 CA          1.6708  -21.1990  -41.8622 C.3       10 UNK         0.1400 
     23 CB          2.1881  -19.7928  -41.5231 C.3       10 UNK        -0.1800 
     24 N           0.4365  -21.0841  -42.6448 N.am      10 UNK        -0.5000 
     25 C          -0.3866  -22.1049  -42.9252 C.2       9 UNK         0.5000 
     26 O          -0.1802  -23.2660  -42.5718 O.2       9 UNK        -0.5000 
     27 CA         -1.6330  -21.7845  -43.7728 C.3       9 UNK         0.1400 
     28 CB         -2.7189  -21.0936  -42.9347 C.3       9 UNK        -0.1800 
     29 N          -1.3187  -20.9628  -44.9394 N.am      9 UNK        -0.5000 
     30 C          -0.5576  -21.3726  -45.9624 C.2       8 UNK         0.5000 
     31 O          -0.0906  -22.5078  -46.0613 O.2       8 UNK        -0.5000 
     32 CA         -0.2299  -20.3289  -47.0408 C.3       8 UNK         0.1400 
     33 CB         -1.3841  -20.2105  -48.0498 C.3       8 UNK        -0.1800 
     34 N           0.0867  -19.0150  -46.4787 N.am      8 UNK        -0.5000 
     35 C           1.0866  -18.7861  -45.6148 C.2       7 UNK         0.5000 
     36 O           1.8575  -19.6560  -45.2230 O.2       7 UNK        -0.5000 
     37 CA          1.2100  -17.3754  -45.0267 C.3       7 UNK         0.1400 
     38 CB          1.9253  -16.4351  -45.9998 C.3       7 UNK        -0.1800 
     39 N          -0.0876  -16.8270  -44.6445 N.am      7 UNK        -0.5000 
     40 C          -0.8439  -17.3145  -43.6500 C.2       6 UNK         0.5000 
     41 O          -0.4990  -18.2410  -42.9161 O.2       6 UNK        -0.5000 
     42 CA         -2.2381  -16.6862  -43.4813 C.3       6 UNK         0.1400 
     43 CB         -2.1604  -15.4351  -42.5944 C.3       6 UNK        -0.1800 
     44 N          -2.8452  -16.3411  -44.7690 N.am      6 UNK        -0.5000 
     45 C          -3.2452  -17.2474  -45.6727 C.2       5 UNK         0.5000 
     46 O          -3.1789  -18.4642  -45.4945 O.2       5 UNK        -0.5000 
     47 CA         -3.7531  -16.6945  -47.0169 C.3       5 UNK         0.1400 
     48 CB         -5.2067  -16.2139  -46.8988 C.3       5 UNK        -0.1800 
     49 N          -2.9196  -15.6050  -47.5305 N.am      5 UNK        -0.5000 
     50 C          -1.6504  -15.7450  -47.9308 C.2       4 UNK         0.5000 
     51 O          -1.0501  -16.8167  -47.8925 O.2       4 UNK        -0.5000 
     52 CA         -0.9102  -14.4861  -48.4164 C.3       4 UNK         0.1400 
     53 CB         -1.4461  -13.9959  -49.7739 C.3       4 UNK        -0.1800 
     54 N          -0.8688  -13.4062  -47.4232 N.am      4 UNK        -0.5000 
     55 C          -1.8751  -12.6418  -46.9704 C.2       3 UNK         0.5000 
     56 O          -3.0436  -12.7733  -47.3381 O.2       3 UNK        -0.5000 
     57 CA         -1.5473  -11.5701  -45.9077 C.3       3 UNK         0.1400 
     58 CB         -2.3596  -11.8119  -44.6249 C.3       3 UNK        -0.1800 
     59 N          -0.1271  -11.5078  -45.5532 N.am      3 UNK        -0.5000 
     60 C           0.8105  -10.8369  -46.2347 C.2       2 UNK         0.5000 
     61 O           0.5718  -10.1618  -47.2373 O.2       2 UNK        -0.5000 
     62 CA          2.2704  -10.9552  -45.7377 C.3       2 UNK         0.1400 
     63 CB          2.4326  -11.7530  -44.4226 C.3       2 UNK        -0.1800 
     64 N           3.1521  -11.5047  -46.7747 N.am      2 UNK        -0.5000 
     65 C           2.9899  -12.6728  -47.4129 C.2       1 UNK         0.5000 
     66 O           2.0650  -13.4537  -47.1773 O.2       1 UNK        -0.5000 
     67 C           3.4377  -23.9388  -45.1167 C.2       11 UNK         0.5000 
     68 O           4.2381  -24.6978  -45.6639 O.2       11 UNK        -0.5000 
     69 N           2.1726  -24.2808  -44.8199 N.am      12 UNK        -0.5000 
     70 CA          1.4852  -25.5410  -45.1263 C.3       12 UNK         0.1400 
     71 CB          2.1345  -26.7271  -44.3835 C.3       12 UNK        -0.1800 
     72 C           1.3272  -25.7805  -46.6436 C.2       12 UNK         0.5000 
     73 O           1.3779  -26.9214  -47.1063 O.2       12 UNK        -0.5000 
     74 N           1.1265  -24.6851  -47.3845 N.am      13 UNK        -0.5000 
     75 CA          0.8778  -24.6600  -48.8250 C.3       13 UNK         0.1400 
     76 CB          1.6380  -23.4654  -49.4224 C.3       13 UNK        -0.1800 
     77 C          -0.6248  -24.5458  -49.1474 C.2       13 UNK         0.5000 
     78 O          -1.0075  -24.7460  -50.3002 O.2       13 UNK        -0.5000 
     79 N          -1.4393  -24.1972  -48.1406 N.am      14 UNK        -0.5000 
     80 CA         -2.8813  -23.9887  -48.2356 C.3       14 UNK         0.1400 
     81 CB         -3.4136  -23.5131  -46.8732 C.3       14 UNK        -0.1800 
     82 C          -3.6695  -25.2245  -48.7071 C.2       14 UNK         0.5000 
     83 O          -3.3380  -26.3583  -48.3540 O.2       14 UNK        -0.5000 
     84 N          -4.7407  -24.9435  -49.4489 N.am      15 UNK        -0.5000 
     85 CA         -5.7783  -25.8679  -49.8843 C.3       15 UNK         0.1400 
     86 CB         -5.4386  -26.4005  -51.2910 C.3       15 UNK        -0.1800 
     87 C          -7.1128  -25.1031  -49.8002 C.2       15 UNK         0.5000 
     88 O          -7.2842  -24.3019  -48.8766 O.2       15 UNK        -0.5000 
     89 N          -8.0163  -25.3077  -50.7686 N.am      16 UNK        -0.5000 
     90 CA         -9.2889  -24.5908  -50.9008 C.3       16 UNK         0.1400 
     91 CB        -10.0346  -25.1102  -52.1390 C.3       16 UNK        -0.1800 
     92 C          -9.0825  -23.0662  -50.9920 C.2       16 UNK         0.5000 
     93 O          -8.2895  -22.6111  -51.8203 O.2       16 UNK        -0.5000 
     94 N          -9.7507  -22.3177  -50.1026 N.am      17 UNK        -0.5000 
     95 CA         -9.6447  -20.8622  -49.9255 C.3       17 UNK         0.1400 
     96 CB        -10.2899  -20.1287  -51.1204 C.3       17 UNK        -0.1800 
     97 C          -8.1995  -20.3906  -49.6430 C.2       17 UNK         0.5000 
     98 O          -7.7734  -19.3608  -50.1654 O.2       17 UNK        -0.5000 
     99 N          -7.4520  -21.1883  -48.8636 N.am      18 UNK        -0.5000 
    100 CA        -6.0228  -21.0343  -48.5629 C.3       18 UNK         0.1400 
    101 CB        -5.7602  -19.7660  -47.7288 C.3       18 UNK        -0.1800 
    102 C         -5.1452  -21.1224  -49.8303 C.2       18 UNK         0.5000 
    103 O         -4.1974  -20.3517  -49.9921 O.2       18 UNK        -0.5000 
    104 N         -5.5171  -22.0572  -50.7199 N.am      19 UNK        -0.5000 
    105 CA        -4.9823  -22.2611  -52.0722 C.3       19 UNK         0.1400 
    106 CB        -3.5028  -22.7028  -52.0368 C.3       19 UNK        -0.1800 
    107 C         -5.2247  -21.0229  -52.9560 C.2       19 UNK         0.5000 
    108 O         -4.2976  -20.5313  -53.5987 O.2       19 UNK        -0.5000 
    109 N         -6.4640  -20.5100  -52.9139 N.am      20 UNK        -0.5000 
    110 CA        -6.9157  -19.2445  -53.5082 C.3       20 UNK         0.1400 
    111 CB        -6.9919  -19.3702  -55.0436 C.3       20 UNK        -0.1800 
    112 C         -6.0746  -18.0340  -53.0386 C.2       20 UNK         0.5000 
    113 O         -5.7220  -17.1732  -53.8465 O.2       20 UNK        -0.5000 
    114 N         -5.7558  -18.0236  -51.7355 N.am      21 UNK        -0.5000 
    115 CA        -4.8533  -17.1119  -51.0303 C.3       21 UNK         0.1400 
    116 CB        -5.4915  -15.7147  -50.8958 C.3       21 UNK        -0.1800 
    117 C         -3.4440  -17.0798  -51.6577 C.2       21 UNK         0.5000 
    118 O         -3.0051  -16.0309  -52.1322 O.2       21 UNK        -0.5000 
    119 N         -2.7658  -18.2366  -51.6486 N.am      22 UNK        -0.5000 
    120 CA        -1.4118  -18.4268  -52.2047 C.3       22 UNK         0.1400 
    121 C         -1.3470  -18.2974  -53.7610 C.2       22 UNK         0.5000 
    122 N         -2.3280  -18.8032  -54.4950 N.am      22 UNK        -0.7600 
    123 O         -0.4074  -17.7419  -54.3245 O.2       22 UNK        -0.5000 
    124 C124       -0.3536  -17.5546  -51.4659 C.3       23 UNK        -0.0398 
    125 S125        1.3309  -18.2636  -51.4706 S.3       23 UNK        -0.2404 
    126 C126        1.5209  -18.7571  -49.7321 C.3       23 UNK        -0.0205 
    127 H127        1.3039  -12.0184  -51.3848 H         1 UNK         0.0600 
    128 H128        2.6941  -11.4049  -50.5030 H         1 UNK         0.0600 
    129 H129        1.2502  -11.9453  -49.6271 H         1 UNK         0.0600 
    130 H130        3.7619  -14.8209  -49.5179 H         1 UNK         0.3000 
    131 H131        4.2990  -12.0661  -48.9921 H         1 UNK         0.0600 
    132 H132        6.0992  -13.6209  -48.7048 H         1 UNK         0.0800 
    133 H133        5.7240  -12.9749  -47.1445 H         1 UNK         0.0800 
    134 H134        5.7282  -15.8033  -49.5616 H         1 UNK         0.0800 
    135 H135        6.8609  -16.5224  -48.4453 H         1 UNK         0.0800 
    136 H136        3.1994  -16.6835  -49.3328 H         1 UNK         0.1150 
    137 H137        3.0635  -20.9538  -49.2070 H         1 UNK         0.1150 
    138 H138        6.6887  -18.9062  -48.1866 H         1 UNK         0.1150 
    139 H139        5.0528  -22.2264  -48.8824 H         1 UNK         0.0800 
    140 H140        6.5991  -21.4229  -48.9187 H         1 UNK         0.0800 
    141 H141        4.0776  -20.5878  -45.7739 H         1 UNK         0.0800 
    142 H142        3.4384  -21.8431  -46.7948 H         1 UNK         0.0800 
    143 H143        4.8151  -22.5990  -44.1811 H         1 UNK         0.0600 
    144 H144        2.3652  -21.0939  -44.3220 H         1 UNK         0.3000 
    145 H145        1.4254  -21.7032  -40.9252 H         1 UNK         0.0600 
    146 H146        1.4484  -19.2270  -40.9564 H         1 UNK         0.0600 
    147 H147        2.4252  -19.2242  -42.4228 H         1 UNK         0.0600 
    148 H148        3.0936  -19.8439  -40.9173 H         1 UNK         0.0600 
    149 H149        0.1812  -20.1513  -42.9538 H         1 UNK         0.3000 
    150 H150       -2.0400  -22.7320  -44.1318 H         1 UNK         0.0600 
    151 H151       -2.3855  -20.1282  -42.5542 H         1 UNK         0.0600 
    152 H152       -3.6212  -20.9255  -43.5232 H         1 UNK         0.0600 
    153 H153       -2.9979  -21.7064  -42.0768 H         1 UNK         0.0600 
    154 H154       -1.6903  -20.0202  -44.9560 H         1 UNK         0.3000 
    155 H155        0.6597  -20.6797  -47.5646 H         1 UNK         0.0600 
    156 H156       -1.5514  -21.1567  -48.5649 H         1 UNK         0.0600 
    157 H157       -1.1833  -19.4597  -48.8130 H         1 UNK         0.0600 
    158 H158       -2.3189  -19.9348  -47.5632 H         1 UNK         0.0600 
    159 H159       -0.4779  -18.2322  -46.7985 H         1 UNK         0.3000 
    160 H160        1.8230  -17.4473  -44.1259 H         1 UNK         0.0600 
    161 H161        1.3411  -16.2428  -46.8985 H         1 UNK         0.0600 
    162 H162        2.8745  -16.8667  -46.3170 H         1 UNK         0.0600 
    163 H163        2.1463  -15.4797  -45.5252 H         1 UNK         0.0600 
    164 H164       -0.4604  -16.0909  -45.2231 H         1 UNK         0.3000 
    165 H165       -2.8800  -17.4185  -42.9866 H         1 UNK         0.0600 
    166 H166       -3.1386  -14.9683  -42.4776 H         1 UNK         0.0600 
    167 H167       -1.8017  -15.6913  -41.5967 H         1 UNK         0.0600 
    168 H168       -1.4757  -14.6922  -43.0037 H         1 UNK         0.0600 
    169 H169       -2.9384  -15.3613  -44.9897 H         1 UNK         0.3000 
    170 H170       -3.7181  -17.5107  -47.7410 H         1 UNK         0.0600 
    171 H171       -5.8483  -16.9985  -46.4959 H         1 UNK         0.0600 
    172 H172       -5.2935  -15.3490  -46.2401 H         1 UNK         0.0600 
    173 H173       -5.6094  -15.9343  -47.8720 H         1 UNK         0.0600 
    174 H174       -3.3158  -14.6690  -47.5447 H         1 UNK         0.3000 
    175 H175        0.1296  -14.7770  -48.5731 H         1 UNK         0.0600 
    176 H176       -2.5162  -13.7892  -49.7491 H         1 UNK         0.0600 
    177 H177       -0.9380  -13.0879  -50.0962 H         1 UNK         0.0600 
    178 H178       -1.2779  -14.7475  -50.5441 H         1 UNK         0.0600 
    179 H179        0.0615  -13.2292  -47.0560 H         1 UNK         0.3000 
    180 H180       -1.8524  -10.6067  -46.3214 H         1 UNK         0.0600 
    181 H181       -3.4311  -11.8053  -44.8290 H         1 UNK         0.0600 
    182 H182       -2.1692  -11.0341  -43.8851 H         1 UNK         0.0600 
    183 H183       -2.1184  -12.7723  -44.1717 H         1 UNK         0.0600 
    184 H184        0.1613  -12.0505  -44.7522 H         1 UNK         0.3000 
    185 H185        2.6088   -9.9355  -45.5483 H         1 UNK         0.0600 
    186 H186        1.8506  -11.3076  -43.6148 H         1 UNK         0.0600 
    187 H187        3.4734  -11.7548  -44.0984 H         1 UNK         0.0600 
    188 H188        2.1228  -12.7936  -44.5269 H         1 UNK         0.0600 
    189 H189        3.9135  -10.9014  -47.0529 H         1 UNK         0.3000 
    190 H190        1.5963  -23.5761  -44.3792 H         1 UNK         0.3000 
    191 H191        0.4728  -25.4279  -44.7356 H         1 UNK         0.0600 
    192 H192        1.5304  -27.6292  -44.4864 H         1 UNK         0.0600 
    193 H193        2.2274  -26.5200  -43.3173 H         1 UNK         0.0600 
    194 H194        3.1281  -26.9553  -44.7696 H         1 UNK         0.0600 
    195 H195        1.0238  -23.8009  -46.8947 H         1 UNK         0.3000 
    196 H196        1.2521  -25.5750  -49.2884 H         1 UNK         0.0600 
    197 H197        1.5290  -23.4342  -50.5072 H         1 UNK         0.0600 
    198 H198        2.7043  -23.5274  -49.2039 H         1 UNK         0.0600 
    199 H199        1.2664  -22.5195  -49.0284 H         1 UNK         0.0600 
    200 H200       -1.0215  -24.0261  -47.2356 H         1 UNK         0.3000 
    201 H201       -3.0389  -23.1891  -48.9619 H         1 UNK         0.0600 
    202 H202       -4.5033  -23.5359  -46.8366 H         1 UNK         0.0600 
    203 H203       -3.1128  -22.4872  -46.6682 H         1 UNK         0.0600 
    204 H204       -3.0534  -24.1432  -46.0592 H         1 UNK         0.0600 
    205 H205       -4.9474  -23.9746  -49.6402 H         1 UNK         0.3000 
    206 H206       -5.8426  -26.7063  -49.1880 H         1 UNK         0.0600 
    207 H207       -5.4339  -25.6040  -52.0361 H         1 UNK         0.0600 
    208 H208       -4.4530  -26.8664  -51.3025 H         1 UNK         0.0600 
    209 H209       -6.1516  -27.1603  -51.6124 H         1 UNK         0.0600 
    210 H210       -7.7907  -25.9545  -51.5100 H         1 UNK         0.3000 
    211 H211       -9.8897  -24.8168  -50.0175 H         1 UNK         0.0600 
    212 H212       -9.4632  -24.9414  -53.0528 H         1 UNK         0.0600 
    213 H213      -10.9955  -24.6074  -52.2554 H         1 UNK         0.0600 
    214 H214      -10.2353  -26.1789  -52.0604 H         1 UNK         0.0600 
    215 H215      -10.3596  -22.7876  -49.4466 H         1 UNK         0.3000 
    216 H216      -10.2220  -20.6129  -49.0342 H         1 UNK         0.0600 
    217 H217      -11.3232  -20.4448  -51.2629 H         1 UNK         0.0600 
    218 H218       -9.7533  -20.3163  -52.0504 H         1 UNK         0.0600 
    219 H219      -10.3022  -19.0499  -50.9603 H         1 UNK         0.0600 
    220 H220       -7.8751  -22.0412  -48.5180 H         1 UNK         0.3000 
    221 H221       -5.7521  -21.8905  -47.9460 H         1 UNK         0.0600 
    222 H222       -4.7262  -19.7386  -47.3867 H         1 UNK         0.0600 
    223 H223       -5.9425  -18.8566  -48.3008 H         1 UNK         0.0600 
    224 H224       -6.3930  -19.7376  -46.8420 H         1 UNK         0.0600 
    225 H225       -6.3968  -22.5250  -50.5418 H         1 UNK         0.3000 
    226 H226       -5.5582  -23.0723  -52.5199 H         1 UNK         0.0600 
    227 H227       -3.3738  -23.6232  -51.4703 H         1 UNK         0.0600 
    228 H228       -3.1328  -22.8991  -53.0436 H         1 UNK         0.0600 
    229 H229       -2.8547  -21.9440  -51.5980 H         1 UNK         0.0600 
    230 H230       -7.1616  -21.0203  -52.3817 H         1 UNK         0.3000 
    231 H231       -7.9273  -19.0725  -53.1390 H         1 UNK         0.0600 
    232 H232       -7.4365  -18.4789  -55.4875 H         1 UNK         0.0600 
    233 H233       -7.6072  -20.2202  -55.3385 H         1 UNK         0.0600 
    234 H234       -6.0047  -19.5002  -55.4882 H         1 UNK         0.0600 
    235 H235       -6.1767  -18.7449  -51.1583 H         1 UNK         0.3000 
    236 H236       -4.7342  -17.5144  -50.0240 H         1 UNK         0.0600 
    237 H237       -6.4589  -15.7716  -50.3969 H         1 UNK         0.0600 
    238 H238       -4.8578  -15.0538  -50.3031 H         1 UNK         0.0600 
    239 H239       -5.6422  -15.2414  -51.8665 H         1 UNK         0.0600 
    240 H240       -3.2094  -19.0571  -51.2466 H         1 UNK         0.3000 
    241 H241       -1.1741  -19.4705  -51.9963 H         1 UNK         0.0600 
    242 H242       -3.0923  -19.3297  -54.0710 H         1 UNK         0.3800 
    243 H243       -2.2878  -18.7144  -55.4968 H         1 UNK         0.3800 
    244 H244       -0.6620  -17.4027  -50.4328 H         1 UNK         0.0800 
    245 H245       -0.3051  -16.5535  -51.8973 H         1 UNK         0.0800 
    246 H246        1.0041  -18.0568  -49.0757 H         1 UNK         0.0800 
    247 H247        1.0462  -19.7287  -49.6064 H         1 UNK         0.0800 
@<TRIPOS>BOND
     1    1    2 1    
     2    1  127 1    
     3    1  128 1    
     4    1  129 1    
     5    2    3 2    
     6    2    4 am   BACKBONE|DICT|INTERRES
     7    4    5 1    
     8    4  130 1    
     9    5    6 1    
    10    5   65 1    
    11    5  131 1    
    12    6    7 1    
    13    6  132 1    
    14    6  133 1    
    15    7    8 1    
    16    8    9 1    
    17    8  134 1    
    18    8  135 1    
    19    9   10 ar   
    20    9   14 ar   
    21   10   11 ar   
    22   10  136 1    
    23   11   12 ar   
    24   11  126 1    
    25   12   13 ar   
    26   12  137 1    
    27   13   14 ar   
    28   13   15 1    
    29   14  138 1    
    30   15   16 1    
    31   15  139 1    
    32   15  140 1    
    33   16   17 1    
    34   17   18 1    
    35   17  141 1    
    36   17  142 1    
    37   18   19 1    
    38   18   67 1    
    39   18  143 1    
    40   19   20 am   BACKBONE|DICT|INTERRES
    41   19  144 1    
    42   20   21 2    
    43   20   22 1    
    44   22   23 1    
    45   22   24 1    
    46   22  145 1    
    47   23  146 1    
    48   23  147 1    
    49   23  148 1    
    50   24   25 am   BACKBONE|DICT|INTERRES
    51   24  149 1    
    52   25   26 2    
    53   25   27 1    
    54   27   28 1    
    55   27   29 1    
    56   27  150 1    
    57   28  151 1    
    58   28  152 1    
    59   28  153 1    
    60   29   30 am   BACKBONE|DICT|INTERRES
    61   29  154 1    
    62   30   31 2    
    63   30   32 1    
    64   32   33 1    
    65   32   34 1    
    66   32  155 1    
    67   33  156 1    
    68   33  157 1    
    69   33  158 1    
    70   34   35 am   BACKBONE|DICT|INTERRES
    71   34  159 1    
    72   35   36 2    
    73   35   37 1    
    74   37   38 1    
    75   37   39 1    
    76   37  160 1    
    77   38  161 1    
    78   38  162 1    
    79   38  163 1    
    80   39   40 am   BACKBONE|DICT|INTERRES
    81   39  164 1    
    82   40   41 2    
    83   40   42 1    
    84   42   43 1    
    85   42   44 1    
    86   42  165 1    
    87   43  166 1    
    88   43  167 1    
    89   43  168 1    
    90   44   45 am   BACKBONE|DICT|INTERRES
    91   44  169 1    
    92   45   46 2    
    93   45   47 1    
    94   47   48 1    
    95   47   49 1    
    96   47  170 1    
    97   48  171 1    
    98   48  172 1    
    99   48  173 1    
   100   49   50 am   BACKBONE|DICT|INTERRES
   101   49  174 1    
   102   50   51 2    
   103   50   52 1    
   104   52   53 1    
   105   52   54 1    
   106   52  175 1    
   107   53  176 1    
   108   53  177 1    
   109   53  178 1    
   110   54   55 am   BACKBONE|DICT|INTERRES
   111   54  179 1    
   112   55   56 2    
   113   55   57 1    
   114   57   58 1    
   115   57   59 1    
   116   57  180 1    
   117   58  181 1    
   118   58  182 1    
   119   58  183 1    
   120   59   60 am   BACKBONE|DICT|INTERRES
   121   59  184 1    
   122   60   61 2    
   123   60   62 1    
   124   62   63 1    
   125   62   64 1    
   126   62  185 1    
   127   63  186 1    
   128   63  187 1    
   129   63  188 1    
   130   64   65 am   BACKBONE|DICT|INTERRES
   131   64  189 1    
   132   65   66 2    
   133   67   68 2    
   134   67   69 am   BACKBONE|DICT|INTERRES
   135   69   70 1    
   136   69  190 1    
   137   70   71 1    
   138   70   72 1    
   139   70  191 1    
   140   71  192 1    
   141   71  193 1    
   142   71  194 1    
   143   72   73 2    
   144   72   74 am   BACKBONE|DICT|INTERRES
   145   74   75 1    
   146   74  195 1    
   147   75   76 1    
   148   75   77 1    
   149   75  196 1    
   150   76  197 1    
   151   76  198 1    
   152   76  199 1    
   153   77   78 2    
   154   77   79 am   BACKBONE|DICT|INTERRES
   155   79   80 1    
   156   79  200 1    
   157   80   81 1    
   158   80   82 1    
   159   80  201 1    
   160   81  202 1    
   161   81  203 1    
   162   81  204 1    
   163   82   83 2    
   164   82   84 am   BACKBONE|DICT|INTERRES
   165   84   85 1    
   166   84  205 1    
   167   85   86 1    
   168   85   87 1    
   169   85  206 1    
   170   86  207 1    
   171   86  208 1    
   172   86  209 1    
   173   87   88 2    
   174   87   89 am   BACKBONE|DICT|INTERRES
   175   89   90 1    
   176   89  210 1    
   177   90   91 1    
   178   90   92 1    
   179   90  211 1    
   180   91  212 1    
   181   91  213 1    
   182   91  214 1    
   183   92   93 2    
   184   92   94 am   BACKBONE|DICT|INTERRES
   185   94   95 1    
   186   94  215 1    
   187   95   96 1    
   188   95   97 1    
   189   95  216 1    
   190   96  217 1    
   191   96  218 1    
   192   96  219 1    
   193   97   98 2    
   194   97   99 am   BACKBONE|DICT|INTERRES
   195   99  100 1    
   196   99  220 1    
   197  100  101 1    
   198  100  102 1    
   199  100  221 1    
   200  101  222 1    
   201  101  223 1    
   202  101  224 1    
   203  102  103 2    
   204  102  104 am   BACKBONE|DICT|INTERRES
   205  104  105 1    
   206  104  225 1    
   207  105  106 1    
   208  105  107 1    
   209  105  226 1    
   210  106  227 1    
   211  106  228 1    
   212  106  229 1    
   213  107  108 2    
   214  107  109 am   BACKBONE|DICT|INTERRES
   215  109  110 1    
   216  109  230 1    
   217  110  111 1    
   218  110  112 1    
   219  110  231 1    
   220  111  232 1    
   221  111  233 1    
   222  111  234 1    
   223  112  113 2    
   224  112  114 am   BACKBONE|DICT|INTERRES
   225  114  115 1    
   226  114  235 1    
   227  115  116 1    
   228  115  117 1    
   229  115  236 1    
   230  116  237 1    
   231  116  238 1    
   232  116  239 1    
   233  117  118 2    
   234  117  119 am   BACKBONE|DICT|INTERRES
   235  119  120 1    
   236  119  240 1    
   237  120  121 1    
   238  120  124 1    
   239  120  241 1    
   240  121  122 am   BACKBONE|DICT|INTERRES
   241  121  123 2    
   242  122  242 1    
   243  122  243 1    
   244  124  125 1    
   245  124  244 1    
   246  124  245 1    
   247  125  126 1    
   248  126  246 1    
   249  126  247 1    
@<TRIPOS>SUBSTRUCTURE
     1 UNK         1 GROUP             0       ****    0 ROOT    
