@<TRIPOS>MOLECULE
3R540
247   249    1
SMALL
USER_CHARGES


@<TRIPOS>ATOM
      1 CA          3.0087  -15.3787  -52.2404 C.3       0 UNK        -0.1800 
      2 C           2.5553  -14.7962  -50.9099 C.2       0 UNK         0.5000 
      3 O           2.5347  -13.5756  -50.7530 O.2       0 UNK        -0.5000 
      4 N           2.1996  -15.6658  -49.9538 N.am      1 UNK        -0.5000 
      5 CA          1.7339  -15.3286  -48.6002 C.3       1 UNK         0.1400 
      6 C6          0.3513  -14.5968  -48.5962 C.3       23 UNK        -0.0398 
      7 S7         -0.9586  -15.5908  -47.7987 S.3       23 UNK        -0.2404 
      8 C8         -1.9172  -16.1914  -49.2289 C.3       23 UNK        -0.0205 
      9 C9         -1.0633  -16.9807  -50.2106 C.ar      23 UNK        -0.0193 
     10 C10        -0.9082  -16.5299  -51.5228 C.ar      23 UNK        -0.1150 
     11 C11        -0.1256  -17.2463  -52.4314 C.ar      23 UNK        -0.0193 
     12 C12         0.5484  -18.3933  -52.0039 C.ar      23 UNK        -0.1150 
     13 C13         0.3953  -18.8617  -50.6947 C.ar      23 UNK        -0.0193 
     14 C14        -0.4358  -18.1638  -49.8131 C.ar      23 UNK        -0.1150 
     15 C15         1.0673  -20.1600  -50.2704 C.3       23 UNK        -0.0205 
     16 S16         2.4491  -19.9308  -49.0958 S.3       23 UNK        -0.2404 
     17 C17         1.6703  -19.8458  -47.4406 C.3       23 UNK        -0.0398 
     18 CA          1.2058  -21.2180  -46.8736 C.3       11 UNK         0.1400 
     19 N           1.1987  -21.2404  -45.4120 N.am      11 UNK        -0.5000 
     20 C           2.0721  -21.9226  -44.6615 C.2       10 UNK         0.5000 
     21 O           2.9803  -22.6117  -45.1269 O.2       10 UNK        -0.5000 
     22 CA          1.9390  -21.8185  -43.1315 C.3       10 UNK         0.1400 
     23 CB          3.0045  -20.8655  -42.5650 C.3       10 UNK        -0.1800 
     24 N           0.6208  -21.3965  -42.6536 N.am      10 UNK        -0.5000 
     25 C          -0.4708  -22.1752  -42.6497 C.2       9 UNK         0.5000 
     26 O          -0.5365  -23.2682  -43.2106 O.2       9 UNK        -0.5000 
     27 CA         -1.6879  -21.6483  -41.8739 C.3       9 UNK         0.1400 
     28 CB         -1.4437  -21.7345  -40.3590 C.3       9 UNK        -0.1800 
     29 N          -1.9785  -20.2652  -42.2341 N.am      9 UNK        -0.5000 
     30 C          -2.8565  -19.8985  -43.1764 C.2       8 UNK         0.5000 
     31 O          -3.5524  -20.6891  -43.8123 O.2       8 UNK        -0.5000 
     32 CA         -2.9252  -18.3918  -43.4977 C.3       8 UNK         0.1400 
     33 CB         -3.8527  -17.6672  -42.5113 C.3       8 UNK        -0.1800 
     34 N          -1.6078  -17.7554  -43.4779 N.am      8 UNK        -0.5000 
     35 C          -0.5804  -18.1222  -44.2550 C.2       7 UNK         0.5000 
     36 O          -0.6635  -18.9683  -45.1432 O.2       7 UNK        -0.5000 
     37 CA          0.7897  -17.4945  -43.9730 C.3       7 UNK         0.1400 
     38 CB          1.1201  -16.4644  -45.0549 C.3       7 UNK        -0.1800 
     39 N           0.9268  -16.9042  -42.6385 N.am      7 UNK        -0.5000 
     40 C           0.9188  -17.6066  -41.4937 C.2       6 UNK         0.5000 
     41 O           0.6847  -18.8157  -41.4480 O.2       6 UNK        -0.5000 
     42 CA          1.2097  -16.8541  -40.1826 C.3       6 UNK         0.1400 
     43 CB          2.6323  -17.1613  -39.6928 C.3       6 UNK        -0.1800 
     44 N           1.0510  -15.4057  -40.3096 N.am      6 UNK        -0.5000 
     45 C          -0.1255  -14.7698  -40.2205 C.2       5 UNK         0.5000 
     46 O          -1.1921  -15.3397  -39.9878 O.2       5 UNK        -0.5000 
     47 CA         -0.1180  -13.2456  -40.4550 C.3       5 UNK         0.1400 
     48 CB          0.0235  -12.4973  -39.1209 C.3       5 UNK        -0.1800 
     49 N           0.9298  -12.7891  -41.3727 N.am      5 UNK        -0.5000 
     50 C           1.0399  -13.1592  -42.6556 C.2       4 UNK         0.5000 
     51 O           0.2660  -13.9475  -43.1970 O.2       4 UNK        -0.5000 
     52 CA          2.2116  -12.5830  -43.4739 C.3       4 UNK         0.1400 
     53 CB          2.9722  -11.4347  -42.7730 C.3       4 UNK        -0.1800 
     54 N           3.1449  -13.6288  -43.9000 N.am      4 UNK        -0.5000 
     55 C           3.8518  -14.4631  -43.1196 C.2       3 UNK         0.5000 
     56 O           3.7385  -14.5013  -41.8932 O.2       3 UNK        -0.5000 
     57 CA          4.8553  -15.4171  -43.8114 C.3       3 UNK         0.1400 
     58 CB          4.6313  -16.8852  -43.4093 C.3       3 UNK        -0.1800 
     59 N           4.8597  -15.3155  -45.2753 N.am      3 UNK        -0.5000 
     60 C           5.4836  -14.3550  -45.9709 C.2       2 UNK         0.5000 
     61 O           6.1590  -13.4678  -45.4484 O.2       2 UNK        -0.5000 
     62 CA          5.3174  -14.3678  -47.5037 C.3       2 UNK         0.1400 
     63 CB          6.5350  -15.0298  -48.1669 C.3       2 UNK        -0.1800 
     64 N           4.0996  -15.0143  -48.0068 N.am      2 UNK        -0.5000 
     65 C           2.8369  -14.6340  -47.7547 C.2       1 UNK         0.5000 
     66 O           2.5485  -13.7866  -46.9075 O.2       1 UNK        -0.5000 
     67 C          -0.1816  -21.6284  -47.3866 C.2       11 UNK         0.5000 
     68 O          -0.2963  -22.6581  -48.0491 O.2       11 UNK        -0.5000 
     69 N          -1.2024  -20.8072  -47.1050 N.am      12 UNK        -0.5000 
     70 CA         -2.5094  -20.8414  -47.7626 C.3       12 UNK         0.1400 
     71 CB         -3.3517  -19.6406  -47.3092 C.3       12 UNK        -0.1800 
     72 C          -3.2661  -22.1645  -47.5714 C.2       12 UNK         0.5000 
     73 O          -3.7539  -22.7232  -48.5535 O.2       12 UNK        -0.5000 
     74 N          -3.3241  -22.6397  -46.3206 N.am      13 UNK        -0.5000 
     75 CA         -3.9417  -23.9141  -45.9531 C.3       13 UNK         0.1400 
     76 CB         -4.4079  -23.8367  -44.4915 C.3       13 UNK        -0.1800 
     77 C          -3.0018  -25.1195  -46.1470 C.2       13 UNK         0.5000 
     78 O          -3.4891  -26.2466  -46.2461 O.2       13 UNK        -0.5000 
     79 N          -1.6829  -24.8791  -46.1669 N.am      14 UNK        -0.5000 
     80 CA         -0.6595  -25.9065  -46.3668 C.3       14 UNK         0.1400 
     81 CB          0.7041  -25.3766  -45.8950 C.3       14 UNK        -0.1800 
     82 C          -0.5941  -26.3681  -47.8329 C.2       14 UNK         0.5000 
     83 O          -0.5496  -27.5707  -48.0975 O.2       14 UNK        -0.5000 
     84 N          -0.6048  -25.3977  -48.7521 N.am      15 UNK        -0.5000 
     85 CA         -0.6981  -25.5941  -50.1942 C.3       15 UNK         0.1400 
     86 CB          0.0752  -24.4489  -50.8769 C.3       15 UNK        -0.1800 
     87 C          -2.1725  -25.6247  -50.6467 C.2       15 UNK         0.5000 
     88 O          -3.0880  -25.5536  -49.8251 O.2       15 UNK        -0.5000 
     89 N          -2.3811  -25.6908  -51.9674 N.am      16 UNK        -0.5000 
     90 CA         -3.6899  -25.5263  -52.6101 C.3       16 UNK         0.1400 
     91 CB         -3.6668  -26.2504  -53.9659 C.3       16 UNK        -0.1800 
     92 C          -4.0833  -24.0436  -52.7951 C.2       16 UNK         0.5000 
     93 O          -5.1574  -23.7682  -53.3276 O.2       16 UNK        -0.5000 
     94 N          -3.2061  -23.1176  -52.3827 N.am      17 UNK        -0.5000 
     95 CA         -3.2844  -21.6708  -52.5871 C.3       17 UNK         0.1400 
     96 CB         -2.0693  -21.0137  -51.9188 C.3       17 UNK        -0.1800 
     97 C          -4.5957  -21.0013  -52.1341 C.2       17 UNK         0.5000 
     98 O          -5.0647  -20.0927  -52.8219 O.2       17 UNK        -0.5000 
     99 N          -5.1806  -21.4677  -51.0208 N.am      18 UNK        -0.5000 
    100 CA        -6.4779  -20.9955  -50.5269 C.3       18 UNK         0.1400 
    101 CB        -6.7160  -21.5133  -49.1003 C.3       18 UNK        -0.1800 
    102 C         -7.6547  -21.3922  -51.4390 C.2       18 UNK         0.5000 
    103 O         -8.5775  -20.5966  -51.6153 O.2       18 UNK        -0.5000 
    104 N         -7.5977  -22.6029  -52.0105 N.am      19 UNK        -0.5000 
    105 CA        -8.6032  -23.1283  -52.9365 C.3       19 UNK         0.1400 
    106 CB        -8.5227  -24.6627  -52.9630 C.3       19 UNK        -0.1800 
    107 C         -8.4343  -22.5465  -54.3504 C.2       19 UNK         0.5000 
    108 O         -9.4291  -22.2648  -55.0191 O.2       19 UNK        -0.5000 
    109 N         -7.1753  -22.3532  -54.7651 N.am      20 UNK        -0.5000 
    110 CA        -6.7855  -21.7382  -56.0346 C.3       20 UNK         0.1400 
    111 CB        -5.2985  -22.0336  -56.2849 C.3       20 UNK        -0.1800 
    112 C         -7.0437  -20.2185  -56.0894 C.2       20 UNK         0.5000 
    113 O         -7.0621  -19.6566  -57.1851 O.2       20 UNK        -0.5000 
    114 N         -7.2230  -19.5900  -54.9171 N.am      21 UNK        -0.5000 
    115 CA        -7.3952  -18.1528  -54.6866 C.3       21 UNK         0.1400 
    116 CB        -8.7082  -17.6399  -55.3145 C.3       21 UNK        -0.1800 
    117 C         -6.1490  -17.3537  -55.1191 C.2       21 UNK         0.5000 
    118 O         -6.2545  -16.3798  -55.8676 O.2       21 UNK        -0.5000 
    119 N         -4.9838  -17.8157  -54.6497 N.am      22 UNK        -0.5000 
    120 CA        -3.6620  -17.2156  -54.8778 C.3       22 UNK         0.1400 
    121 C         -3.5561  -15.7634  -54.3289 C.2       22 UNK         0.5000 
    122 N         -2.9760  -14.8434  -55.0879 N.am      22 UNK        -0.7600 
    123 O         -3.9666  -15.4736  -53.2074 O.2       22 UNK        -0.5000 
    124 C124       -2.5642  -18.1253  -54.2754 C.3       23 UNK        -0.0398 
    125 S125       -0.9113  -17.9178  -55.0297 S.3       23 UNK        -0.2404 
    126 C126       -0.0413  -16.7935  -53.8816 C.3       23 UNK        -0.0205 
    127 H127        4.0480  -15.1118  -52.4317 H         1 UNK         0.0600 
    128 H128        2.9279  -16.4658  -52.2564 H         1 UNK         0.0600 
    129 H129        2.3988  -14.9790  -53.0503 H         1 UNK         0.0600 
    130 H130        2.2115  -16.6539  -50.1672 H         1 UNK         0.3000 
    131 H131        1.6098  -16.3030  -48.1296 H         1 UNK         0.0600 
    132 H132        0.0315  -14.3532  -49.6097 H         1 UNK         0.0800 
    133 H133        0.3852  -13.6326  -48.0883 H         1 UNK         0.0800 
    134 H134       -2.7303  -16.8248  -48.8738 H         1 UNK         0.0800 
    135 H135       -2.3878  -15.3387  -49.7210 H         1 UNK         0.0800 
    136 H136       -1.4180  -15.6327  -51.8450 H         1 UNK         0.1150 
    137 H137        1.1569  -18.9434  -52.7079 H         1 UNK         0.1150 
    138 H138       -0.6018  -18.5291  -48.8131 H         1 UNK         0.1150 
    139 H139        0.3176  -20.8428  -49.8830 H         1 UNK         0.0800 
    140 H140        1.4729  -20.6635  -51.1492 H         1 UNK         0.0800 
    141 H141        0.8885  -19.0907  -47.4122 H         1 UNK         0.0800 
    142 H142        2.4476  -19.4487  -46.7862 H         1 UNK         0.0800 
    143 H143        1.8986  -21.9772  -47.2430 H         1 UNK         0.0600 
    144 H144        0.4691  -20.7034  -44.9592 H         1 UNK         0.3000 
    145 H145        2.1348  -22.8139  -42.7270 H         1 UNK         0.0600 
    146 H146        2.9608  -20.8261  -41.4764 H         1 UNK         0.0600 
    147 H147        2.8819  -19.8501  -42.9404 H         1 UNK         0.0600 
    148 H148        4.0083  -21.1944  -42.8370 H         1 UNK         0.0600 
    149 H149        0.5898  -20.5012  -42.1712 H         1 UNK         0.3000 
    150 H150       -2.5425  -22.2859  -42.1086 H         1 UNK         0.0600 
    151 H151       -1.2135  -22.7575  -40.0583 H         1 UNK         0.0600 
    152 H152       -2.3273  -21.4233  -39.8016 H         1 UNK         0.0600 
    153 H153       -0.6115  -21.1035  -40.0439 H         1 UNK         0.0600 
    154 H154       -1.4009  -19.5544  -41.8043 H         1 UNK         0.3000 
    155 H155       -3.3363  -18.2772  -44.5018 H         1 UNK         0.0600 
    156 H156       -4.8480  -18.1135  -42.5119 H         1 UNK         0.0600 
    157 H157       -3.9681  -16.6166  -42.7786 H         1 UNK         0.0600 
    158 H158       -3.4714  -17.7133  -41.4903 H         1 UNK         0.0600 
    159 H159       -1.4502  -17.0437  -42.7793 H         1 UNK         0.3000 
    160 H160        1.5212  -18.2998  -44.0512 H         1 UNK         0.0600 
    161 H161        0.3759  -15.6698  -45.0996 H         1 UNK         0.0600 
    162 H162        1.1419  -16.9457  -46.0306 H         1 UNK         0.0600 
    163 H163        2.0914  -16.0052  -44.9010 H         1 UNK         0.0600 
    164 H164        1.0272  -15.8974  -42.5982 H         1 UNK         0.3000 
    165 H165        0.5105  -17.2289  -39.4321 H         1 UNK         0.0600 
    166 H166        2.8167  -16.7129  -38.7165 H         1 UNK         0.0600 
    167 H167        2.7898  -18.2361  -39.5912 H         1 UNK         0.0600 
    168 H168        3.3866  -16.7821  -40.3813 H         1 UNK         0.0600 
    169 H169        1.8823  -14.8739  -40.5383 H         1 UNK         0.3000 
    170 H170       -1.0813  -12.9798  -40.8952 H         1 UNK         0.0600 
    171 H171        0.9842  -12.7003  -38.6460 H         1 UNK         0.0600 
    172 H172       -0.0618  -11.4196  -39.2614 H         1 UNK         0.0600 
    173 H173       -0.7584  -12.7950  -38.4209 H         1 UNK         0.0600 
    174 H174        1.6206  -12.1577  -40.9939 H         1 UNK         0.3000 
    175 H175        1.7714  -12.1773  -44.3860 H         1 UNK         0.0600 
    176 H176        3.4711  -11.7623  -41.8603 H         1 UNK         0.0600 
    177 H177        3.7358  -11.0201  -43.4313 H         1 UNK         0.0600 
    178 H178        2.2989  -10.6171  -42.5122 H         1 UNK         0.0600 
    179 H179        3.2433  -13.7206  -44.9049 H         1 UNK         0.3000 
    180 H180        5.8443  -15.1329  -43.4460 H         1 UNK         0.0600 
    181 H181        5.3902  -17.5318  -43.8503 H         1 UNK         0.0600 
    182 H182        3.6586  -17.2553  -43.7241 H         1 UNK         0.0600 
    183 H183        4.6967  -17.0114  -42.3289 H         1 UNK         0.0600 
    184 H184        4.3303  -16.0063  -45.7856 H         1 UNK         0.3000 
    185 H185        5.2826  -13.3253  -47.8263 H         1 UNK         0.0600 
    186 H186        6.4896  -14.9432  -49.2527 H         1 UNK         0.0600 
    187 H187        7.4634  -14.5564  -47.8444 H         1 UNK         0.0600 
    188 H188        6.6023  -16.0891  -47.9157 H         1 UNK         0.0600 
    189 H189        4.2379  -15.7233  -48.7121 H         1 UNK         0.3000 
    190 H190       -1.0410  -20.0248  -46.4713 H         1 UNK         0.3000 
    191 H191       -2.3242  -20.7171  -48.8288 H         1 UNK         0.0600 
    192 H192       -2.7822  -18.7127  -47.3568 H         1 UNK         0.0600 
    193 H193       -3.7078  -19.7608  -46.2877 H         1 UNK         0.0600 
    194 H194       -4.2269  -19.5180  -47.9474 H         1 UNK         0.0600 
    195 H195       -2.9509  -22.0793  -45.5650 H         1 UNK         0.3000 
    196 H196       -4.8209  -24.0769  -46.5804 H         1 UNK         0.0600 
    197 H197       -5.1110  -23.0167  -44.3439 H         1 UNK         0.0600 
    198 H198       -3.5684  -23.6862  -43.8120 H         1 UNK         0.0600 
    199 H199       -4.9127  -24.7559  -44.1917 H         1 UNK         0.0600 
    200 H200       -1.3661  -23.9238  -46.0968 H         1 UNK         0.3000 
    201 H201       -0.9133  -26.7728  -45.7522 H         1 UNK         0.0600 
    202 H202        0.6803  -25.1111  -44.8382 H         1 UNK         0.0600 
    203 H203        1.0143  -24.4936  -46.4540 H         1 UNK         0.0600 
    204 H204        1.4803  -26.1322  -46.0213 H         1 UNK         0.0600 
    205 H205       -0.6487  -24.4312  -48.4368 H         1 UNK         0.3000 
    206 H206       -0.2358  -26.5440  -50.4696 H         1 UNK         0.0600 
    207 H207       -0.3942  -23.4812  -50.6958 H         1 UNK         0.0600 
    208 H208        1.0981  -24.3912  -50.5037 H         1 UNK         0.0600 
    209 H209        0.1392  -24.5906  -51.9559 H         1 UNK         0.0600 
    210 H210       -1.5878  -25.7708  -52.5877 H         1 UNK         0.3000 
    211 H211       -4.4600  -25.9912  -51.9910 H         1 UNK         0.0600 
    212 H212       -2.9314  -25.8145  -54.6432 H         1 UNK         0.0600 
    213 H213       -4.6390  -26.1945  -54.4577 H         1 UNK         0.0600 
    214 H214       -3.4280  -27.3072  -53.8444 H         1 UNK         0.0600 
    215 H215       -2.3665  -23.4535  -51.9385 H         1 UNK         0.3000 
    216 H216       -3.2037  -21.4991  -53.6612 H         1 UNK         0.0600 
    217 H217       -2.1726  -19.9299  -51.8656 H         1 UNK         0.0600 
    218 H218       -1.1551  -21.2242  -52.4741 H         1 UNK         0.0600 
    219 H219       -1.9291  -21.3797  -50.9036 H         1 UNK         0.0600 
    220 H220       -4.7170  -22.1891  -50.4800 H         1 UNK         0.3000 
    221 H221       -6.4481  -19.9044  -50.4874 H         1 UNK         0.0600 
    222 H222       -6.6520  -22.6010  -49.0498 H         1 UNK         0.0600 
    223 H223       -5.9875  -21.1013  -48.4041 H         1 UNK         0.0600 
    224 H224       -7.7030  -21.2242  -48.7365 H         1 UNK         0.0600 
    225 H225       -6.7672  -23.1646  -51.8796 H         1 UNK         0.3000 
    226 H226       -9.5952  -22.8492  -52.5746 H         1 UNK         0.0600 
    227 H227       -8.6839  -25.0827  -51.9701 H         1 UNK         0.0600 
    228 H228       -9.2862  -25.0805  -53.6204 H         1 UNK         0.0600 
    229 H229       -7.5547  -25.0134  -53.3222 H         1 UNK         0.0600 
    230 H230       -6.4198  -22.6904  -54.1731 H         1 UNK         0.3000 
    231 H231       -7.3683  -22.2022  -56.8328 H         1 UNK         0.0600 
    232 H232       -4.9813  -21.6520  -57.2561 H         1 UNK         0.0600 
    233 H233       -5.1000  -23.1057  -56.2752 H         1 UNK         0.0600 
    234 H234       -4.6671  -21.5686  -55.5280 H         1 UNK         0.0600 
    235 H235       -7.1322  -20.1513  -54.0813 H         1 UNK         0.3000 
    236 H236       -7.4794  -18.0268  -53.6061 H         1 UNK         0.0600 
    237 H237       -8.6871  -17.6861  -56.4035 H         1 UNK         0.0600 
    238 H238       -9.5622  -18.2235  -54.9706 H         1 UNK         0.0600 
    239 H239       -8.8912  -16.6014  -55.0366 H         1 UNK         0.0600 
    240 H240       -5.0098  -18.6152  -54.0221 H         1 UNK         0.3000 
    241 H241       -3.5266  -17.1853  -55.9606 H         1 UNK         0.0600 
    242 H242       -2.6272  -15.0623  -56.0081 H         1 UNK         0.3800 
    243 H243       -2.8986  -13.9002  -54.7411 H         1 UNK         0.3800 
    244 H244       -2.8260  -19.1687  -54.4541 H         1 UNK         0.0800 
    245 H245       -2.5297  -18.0252  -53.1915 H         1 UNK         0.0800 
    246 H246       -0.4435  -15.7860  -53.9945 H         1 UNK         0.0800 
    247 H247        1.0061  -16.7364  -54.1794 H         1 UNK         0.0800 
@<TRIPOS>BOND
     1    1    2 1    
     2    1  127 1    
     3    1  128 1    
     4    1  129 1    
     5    2    3 2    
     6    2    4 am   BACKBONE|DICT|INTERRES
     7    4    5 1    
     8    4  130 1    
     9    5    6 1    
    10    5   65 1    
    11    5  131 1    
    12    6    7 1    
    13    6  132 1    
    14    6  133 1    
    15    7    8 1    
    16    8    9 1    
    17    8  134 1    
    18    8  135 1    
    19    9   10 ar   
    20    9   14 ar   
    21   10   11 ar   
    22   10  136 1    
    23   11   12 ar   
    24   11  126 1    
    25   12   13 ar   
    26   12  137 1    
    27   13   14 ar   
    28   13   15 1    
    29   14  138 1    
    30   15   16 1    
    31   15  139 1    
    32   15  140 1    
    33   16   17 1    
    34   17   18 1    
    35   17  141 1    
    36   17  142 1    
    37   18   19 1    
    38   18   67 1    
    39   18  143 1    
    40   19   20 am   BACKBONE|DICT|INTERRES
    41   19  144 1    
    42   20   21 2    
    43   20   22 1    
    44   22   23 1    
    45   22   24 1    
    46   22  145 1    
    47   23  146 1    
    48   23  147 1    
    49   23  148 1    
    50   24   25 am   BACKBONE|DICT|INTERRES
    51   24  149 1    
    52   25   26 2    
    53   25   27 1    
    54   27   28 1    
    55   27   29 1    
    56   27  150 1    
    57   28  151 1    
    58   28  152 1    
    59   28  153 1    
    60   29   30 am   BACKBONE|DICT|INTERRES
    61   29  154 1    
    62   30   31 2    
    63   30   32 1    
    64   32   33 1    
    65   32   34 1    
    66   32  155 1    
    67   33  156 1    
    68   33  157 1    
    69   33  158 1    
    70   34   35 am   BACKBONE|DICT|INTERRES
    71   34  159 1    
    72   35   36 2    
    73   35   37 1    
    74   37   38 1    
    75   37   39 1    
    76   37  160 1    
    77   38  161 1    
    78   38  162 1    
    79   38  163 1    
    80   39   40 am   BACKBONE|DICT|INTERRES
    81   39  164 1    
    82   40   41 2    
    83   40   42 1    
    84   42   43 1    
    85   42   44 1    
    86   42  165 1    
    87   43  166 1    
    88   43  167 1    
    89   43  168 1    
    90   44   45 am   BACKBONE|DICT|INTERRES
    91   44  169 1    
    92   45   46 2    
    93   45   47 1    
    94   47   48 1    
    95   47   49 1    
    96   47  170 1    
    97   48  171 1    
    98   48  172 1    
    99   48  173 1    
   100   49   50 am   BACKBONE|DICT|INTERRES
   101   49  174 1    
   102   50   51 2    
   103   50   52 1    
   104   52   53 1    
   105   52   54 1    
   106   52  175 1    
   107   53  176 1    
   108   53  177 1    
   109   53  178 1    
   110   54   55 am   BACKBONE|DICT|INTERRES
   111   54  179 1    
   112   55   56 2    
   113   55   57 1    
   114   57   58 1    
   115   57   59 1    
   116   57  180 1    
   117   58  181 1    
   118   58  182 1    
   119   58  183 1    
   120   59   60 am   BACKBONE|DICT|INTERRES
   121   59  184 1    
   122   60   61 2    
   123   60   62 1    
   124   62   63 1    
   125   62   64 1    
   126   62  185 1    
   127   63  186 1    
   128   63  187 1    
   129   63  188 1    
   130   64   65 am   BACKBONE|DICT|INTERRES
   131   64  189 1    
   132   65   66 2    
   133   67   68 2    
   134   67   69 am   BACKBONE|DICT|INTERRES
   135   69   70 1    
   136   69  190 1    
   137   70   71 1    
   138   70   72 1    
   139   70  191 1    
   140   71  192 1    
   141   71  193 1    
   142   71  194 1    
   143   72   73 2    
   144   72   74 am   BACKBONE|DICT|INTERRES
   145   74   75 1    
   146   74  195 1    
   147   75   76 1    
   148   75   77 1    
   149   75  196 1    
   150   76  197 1    
   151   76  198 1    
   152   76  199 1    
   153   77   78 2    
   154   77   79 am   BACKBONE|DICT|INTERRES
   155   79   80 1    
   156   79  200 1    
   157   80   81 1    
   158   80   82 1    
   159   80  201 1    
   160   81  202 1    
   161   81  203 1    
   162   81  204 1    
   163   82   83 2    
   164   82   84 am   BACKBONE|DICT|INTERRES
   165   84   85 1    
   166   84  205 1    
   167   85   86 1    
   168   85   87 1    
   169   85  206 1    
   170   86  207 1    
   171   86  208 1    
   172   86  209 1    
   173   87   88 2    
   174   87   89 am   BACKBONE|DICT|INTERRES
   175   89   90 1    
   176   89  210 1    
   177   90   91 1    
   178   90   92 1    
   179   90  211 1    
   180   91  212 1    
   181   91  213 1    
   182   91  214 1    
   183   92   93 2    
   184   92   94 am   BACKBONE|DICT|INTERRES
   185   94   95 1    
   186   94  215 1    
   187   95   96 1    
   188   95   97 1    
   189   95  216 1    
   190   96  217 1    
   191   96  218 1    
   192   96  219 1    
   193   97   98 2    
   194   97   99 am   BACKBONE|DICT|INTERRES
   195   99  100 1    
   196   99  220 1    
   197  100  101 1    
   198  100  102 1    
   199  100  221 1    
   200  101  222 1    
   201  101  223 1    
   202  101  224 1    
   203  102  103 2    
   204  102  104 am   BACKBONE|DICT|INTERRES
   205  104  105 1    
   206  104  225 1    
   207  105  106 1    
   208  105  107 1    
   209  105  226 1    
   210  106  227 1    
   211  106  228 1    
   212  106  229 1    
   213  107  108 2    
   214  107  109 am   BACKBONE|DICT|INTERRES
   215  109  110 1    
   216  109  230 1    
   217  110  111 1    
   218  110  112 1    
   219  110  231 1    
   220  111  232 1    
   221  111  233 1    
   222  111  234 1    
   223  112  113 2    
   224  112  114 am   BACKBONE|DICT|INTERRES
   225  114  115 1    
   226  114  235 1    
   227  115  116 1    
   228  115  117 1    
   229  115  236 1    
   230  116  237 1    
   231  116  238 1    
   232  116  239 1    
   233  117  118 2    
   234  117  119 am   BACKBONE|DICT|INTERRES
   235  119  120 1    
   236  119  240 1    
   237  120  121 1    
   238  120  124 1    
   239  120  241 1    
   240  121  122 am   BACKBONE|DICT|INTERRES
   241  121  123 2    
   242  122  242 1    
   243  122  243 1    
   244  124  125 1    
   245  124  244 1    
   246  124  245 1    
   247  125  126 1    
   248  126  246 1    
   249  126  247 1    
@<TRIPOS>SUBSTRUCTURE
     1 UNK         1 GROUP             0       ****    0 ROOT    
