@<TRIPOS>MOLECULE
3R540
247   249    1
SMALL
USER_CHARGES


@<TRIPOS>ATOM
      1 CA          6.1379  -14.4094  -50.0917 C.3       0 UNK        -0.1800 
      2 C           4.9439  -13.6976  -50.7255 C.2       0 UNK         0.5000 
      3 O           5.0855  -13.1295  -51.8070 O.2       0 UNK        -0.5000 
      4 N           3.7531  -13.7083  -50.1111 N.am      1 UNK        -0.5000 
      5 CA          3.4450  -14.2682  -48.7898 C.3       1 UNK         0.1400 
      6 C6          1.9389  -14.6240  -48.6753 C.3       23 UNK        -0.0398 
      7 S7          1.6515  -16.0698  -47.5967 S.3       23 UNK        -0.2404 
      8 C8          1.3704  -17.4016  -48.8075 C.3       23 UNK        -0.0205 
      9 C9          0.0254  -17.2679  -49.5049 C.ar      23 UNK        -0.0193 
     10 C10        -0.0445  -16.8795  -50.8449 C.ar      23 UNK        -0.1150 
     11 C11        -1.2809  -16.7522  -51.4838 C.ar      23 UNK        -0.0193 
     12 C12        -2.4536  -17.0385  -50.7773 C.ar      23 UNK        -0.1150 
     13 C13        -2.3976  -17.4284  -49.4340 C.ar      23 UNK        -0.0193 
     14 C14        -1.1532  -17.5346  -48.8052 C.ar      23 UNK        -0.1150 
     15 C15        -3.6818  -17.6848  -48.6545 C.3       23 UNK        -0.0205 
     16 S16        -3.9964  -19.4578  -48.3634 S.3       23 UNK        -0.2404 
     17 C17        -2.9765  -19.7930  -46.8883 C.3       23 UNK        -0.0398 
     18 CA         -1.8068  -20.7714  -47.1782 C.3       11 UNK         0.1400 
     19 N          -0.6187  -20.4880  -46.3676 N.am      11 UNK        -0.5000 
     20 C           0.5644  -21.1105  -46.4870 C.2       10 UNK         0.5000 
     21 O           0.8173  -21.9378  -47.3620 O.2       10 UNK        -0.5000 
     22 CA          1.6261  -20.8046  -45.4125 C.3       10 UNK         0.1400 
     23 CB          2.4061  -19.5259  -45.7490 C.3       10 UNK        -0.1800 
     24 N           1.0510  -20.6919  -44.0714 N.am      10 UNK        -0.5000 
     25 C           0.4403  -21.6921  -43.4199 C.2       9 UNK         0.5000 
     26 O           0.3558  -22.8398  -43.8543 O.2       9 UNK        -0.5000 
     27 CA         -0.2458  -21.3375  -42.0895 C.3       9 UNK         0.1400 
     28 CB          0.7591  -21.3344  -40.9278 C.3       9 UNK        -0.1800 
     29 N          -0.9337  -20.0484  -42.1579 N.am      9 UNK        -0.5000 
     30 C          -2.0175  -19.8095  -42.9101 C.2       8 UNK         0.5000 
     31 O          -2.5828  -20.6670  -43.5898 O.2       8 UNK        -0.5000 
     32 CA         -2.5170  -18.3547  -42.9509 C.3       8 UNK         0.1400 
     33 CB         -3.4035  -18.0475  -41.7355 C.3       8 UNK        -0.1800 
     34 N          -1.4126  -17.3952  -43.0133 N.am      8 UNK        -0.5000 
     35 C          -0.6105  -17.2516  -44.0799 C.2       7 UNK         0.5000 
     36 O          -0.7462  -17.8952  -45.1177 O.2       7 UNK        -0.5000 
     37 CA          0.5647  -16.2638  -43.9610 C.3       7 UNK         0.1400 
     38 CB          0.1068  -14.8589  -44.3694 C.3       7 UNK        -0.1800 
     39 N           1.1498  -16.2111  -42.6218 N.am      7 UNK        -0.5000 
     40 C           1.6616  -17.2638  -41.9653 C.2       6 UNK         0.5000 
     41 O           1.7956  -18.3761  -42.4746 O.2       6 UNK        -0.5000 
     42 CA          2.0358  -17.0699  -40.4803 C.3       6 UNK         0.1400 
     43 CB          3.5572  -16.9197  -40.3329 C.3       6 UNK        -0.1800 
     44 N           1.3852  -15.9234  -39.8405 N.am      6 UNK        -0.5000 
     45 C           0.0649  -15.6974  -39.7605 C.2       5 UNK         0.5000 
     46 O          -0.7877  -16.5057  -40.1301 O.2       5 UNK        -0.5000 
     47 CA         -0.3755  -14.3075  -39.2522 C.3       5 UNK         0.1400 
     48 CB         -0.8683  -14.4008  -37.8005 C.3       5 UNK        -0.1800 
     49 N           0.6606  -13.2678  -39.3393 N.am      5 UNK        -0.5000 
     50 C           1.2806  -12.8657  -40.4588 C.2       4 UNK         0.5000 
     51 O           1.0540  -13.3431  -41.5735 O.2       4 UNK        -0.5000 
     52 CA          2.3946  -11.8195  -40.2691 C.3       4 UNK         0.1400 
     53 CB          3.6107  -12.4561  -39.5739 C.3       4 UNK        -0.1800 
     54 N           2.8442  -11.2582  -41.5406 N.am      4 UNK        -0.5000 
     55 C           2.2157  -10.3044  -42.2399 C.2       3 UNK         0.5000 
     56 O           1.1855   -9.7445  -41.8622 O.2       3 UNK        -0.5000 
     57 CA          2.8610   -9.8932  -43.5795 C.3       3 UNK         0.1400 
     58 CB          3.7164   -8.6297  -43.3961 C.3       3 UNK        -0.1800 
     59 N           3.6999  -10.9583  -44.1385 N.am      3 UNK        -0.5000 
     60 C           3.2278  -11.9702  -44.8764 C.2       2 UNK         0.5000 
     61 O           2.0587  -12.0497  -45.2589 O.2       2 UNK        -0.5000 
     62 CA          4.2290  -13.0980  -45.1993 C.3       2 UNK         0.1400 
     63 CB          4.2969  -14.0978  -44.0315 C.3       2 UNK        -0.1800 
     64 N           3.8844  -13.8309  -46.4181 N.am      2 UNK        -0.5000 
     65 C           3.9033  -13.3208  -47.6552 C.2       1 UNK         0.5000 
     66 O           4.2698  -12.1702  -47.9112 O.2       1 UNK        -0.5000 
     67 C          -2.2613  -22.2336  -47.0057 C.2       11 UNK         0.5000 
     68 O          -2.4227  -22.9421  -47.9993 O.2       11 UNK        -0.5000 
     69 N          -2.4246  -22.6656  -45.7458 N.am      12 UNK        -0.5000 
     70 CA         -2.8318  -24.0193  -45.3648 C.3       12 UNK         0.1400 
     71 CB         -3.0363  -24.0879  -43.8445 C.3       12 UNK        -0.1800 
     72 C          -1.8472  -25.1036  -45.8378 C.2       12 UNK         0.5000 
     73 O          -2.2842  -26.1237  -46.3712 O.2       12 UNK        -0.5000 
     74 N          -0.5404  -24.8398  -45.6968 N.am      13 UNK        -0.5000 
     75 CA          0.5480  -25.6910  -46.1876 C.3       13 UNK         0.1400 
     76 CB          1.8906  -25.1345  -45.6908 C.3       13 UNK        -0.1800 
     77 C           0.5618  -25.8437  -47.7220 C.2       13 UNK         0.5000 
     78 O           0.9785  -26.8871  -48.2251 O.2       13 UNK        -0.5000 
     79 N           0.0671  -24.8218  -48.4312 N.am      14 UNK        -0.5000 
     80 CA         -0.1338  -24.8039  -49.8790 C.3       14 UNK         0.1400 
     81 CB          0.1040  -23.3709  -50.3874 C.3       14 UNK        -0.1800 
     82 C          -1.5237  -25.3352  -50.2966 C.2       14 UNK         0.5000 
     83 O          -1.9281  -25.1102  -51.4375 O.2       14 UNK        -0.5000 
     84 N          -2.2402  -26.0108  -49.3832 N.am      15 UNK        -0.5000 
     85 CA         -3.5780  -26.5915  -49.5503 C.3       15 UNK         0.1400 
     86 CB         -3.5649  -27.7199  -50.6033 C.3       15 UNK        -0.1800 
     87 C          -4.6451  -25.5152  -49.8281 C.2       15 UNK         0.5000 
     88 O          -5.3945  -25.6144  -50.8010 O.2       15 UNK        -0.5000 
     89 N          -4.6497  -24.4753  -48.9817 N.am      16 UNK        -0.5000 
     90 CA         -5.4416  -23.2444  -49.0936 C.3       16 UNK         0.1400 
     91 CB         -6.9482  -23.5331  -48.9298 C.3       16 UNK        -0.1800 
     92 C          -5.1010  -22.4743  -50.3847 C.2       16 UNK         0.5000 
     93 O          -6.0012  -21.9996  -51.0773 O.2       16 UNK        -0.5000 
     94 N          -3.7972  -22.4231  -50.6981 N.am      17 UNK        -0.5000 
     95 CA         -3.1964  -21.9060  -51.9306 C.3       17 UNK         0.1400 
     96 CB         -3.2440  -20.3691  -51.9525 C.3       17 UNK        -0.1800 
     97 C          -3.8122  -22.5522  -53.1878 C.2       17 UNK         0.5000 
     98 O          -4.4152  -21.8626  -54.0120 O.2       17 UNK        -0.5000 
     99 N          -3.6831  -23.8840  -53.2689 N.am      18 UNK        -0.5000 
    100 CA        -4.2170  -24.7687  -54.3088 C.3       18 UNK         0.1400 
    101 CB        -3.4775  -24.5326  -55.6427 C.3       18 UNK        -0.1800 
    102 C         -5.7527  -24.6796  -54.4445 C.2       18 UNK         0.5000 
    103 O         -6.2715  -24.6451  -55.5608 O.2       18 UNK        -0.5000 
    104 N         -6.4451  -24.6363  -53.2964 N.am      19 UNK        -0.5000 
    105 CA        -7.8880  -24.4331  -53.1385 C.3       19 UNK         0.1400 
    106 CB        -8.6746  -25.6533  -53.6615 C.3       19 UNK        -0.1800 
    107 C         -8.3576  -23.0930  -53.7448 C.2       19 UNK         0.5000 
    108 O         -9.2681  -23.0694  -54.5756 O.2       19 UNK        -0.5000 
    109 N         -7.7093  -22.0047  -53.3057 N.am      20 UNK        -0.5000 
    110 CA        -7.9127  -20.6122  -53.7110 C.3       20 UNK         0.1400 
    111 CB        -9.2955  -20.1050  -53.2507 C.3       20 UNK        -0.1800 
    112 C         -7.6442  -20.3827  -55.2126 C.2       20 UNK         0.5000 
    113 O         -8.4739  -19.7987  -55.9131 O.2       20 UNK        -0.5000 
    114 N         -6.4771  -20.8427  -55.6749 N.am      21 UNK        -0.5000 
    115 CA        -5.9945  -20.7059  -57.0475 C.3       21 UNK         0.1400 
    116 CB        -6.2580  -22.0092  -57.8229 C.3       21 UNK        -0.1800 
    117 C         -4.5118  -20.2953  -57.0331 C.2       21 UNK         0.5000 
    118 O         -3.7001  -20.8641  -57.7659 O.2       21 UNK        -0.5000 
    119 N         -4.1855  -19.3193  -56.1754 N.am      22 UNK        -0.5000 
    120 CA        -2.8467  -18.7346  -56.0220 C.3       22 UNK         0.1400 
    121 C         -2.3488  -18.0226  -57.3142 C.2       22 UNK         0.5000 
    122 N         -1.0829  -18.1819  -57.6753 N.am      22 UNK        -0.7600 
    123 O         -3.0947  -17.2989  -57.9711 O.2       22 UNK        -0.5000 
    124 C124       -2.8024  -17.7804  -54.7997 C.3       23 UNK        -0.0398 
    125 S125       -1.1218  -17.6329  -54.1056 S.3       23 UNK        -0.2404 
    126 C126       -1.3390  -16.2672  -52.9242 C.3       23 UNK        -0.0205 
    127 H127        5.9464  -15.4782  -49.9976 H         1 UNK         0.0600 
    128 H128        6.3618  -14.0015  -49.1064 H         1 UNK         0.0600 
    129 H129        7.0276  -14.2859  -50.7095 H         1 UNK         0.0600 
    130 H130        2.9962  -13.1983  -50.5426 H         1 UNK         0.3000 
    131 H131        4.0156  -15.1930  -48.6882 H         1 UNK         0.0600 
    132 H132        1.3517  -13.7817  -48.3040 H         1 UNK         0.0800 
    133 H133        1.5264  -14.8470  -49.6592 H         1 UNK         0.0800 
    134 H134        1.4016  -18.3617  -48.2919 H         1 UNK         0.0800 
    135 H135        2.1879  -17.4163  -49.5300 H         1 UNK         0.0800 
    136 H136        0.8633  -16.6638  -51.3908 H         1 UNK         0.1150 
    137 H137       -3.4108  -16.9412  -51.2699 H         1 UNK         0.1150 
    138 H138       -1.0903  -17.8128  -47.7643 H         1 UNK         0.1150 
    139 H139       -3.6549  -17.1453  -47.7067 H         1 UNK         0.0800 
    140 H140       -4.5335  -17.2776  -49.2014 H         1 UNK         0.0800 
    141 H141       -3.6289  -20.1579  -46.0930 H         1 UNK         0.0800 
    142 H142       -2.6020  -18.8444  -46.5127 H         1 UNK         0.0800 
    143 H143       -1.4964  -20.6445  -48.2180 H         1 UNK         0.0600 
    144 H144       -0.7120  -19.7601  -45.6658 H         1 UNK         0.3000 
    145 H145        2.3330  -21.6366  -45.3988 H         1 UNK         0.0600 
    146 H146        3.1731  -19.3221  -45.0016 H         1 UNK         0.0600 
    147 H147        2.9067  -19.6175  -46.7134 H         1 UNK         0.0600 
    148 H148        1.7511  -18.6574  -45.7998 H         1 UNK         0.0600 
    149 H149        1.1308  -19.7896  -43.6110 H         1 UNK         0.3000 
    150 H150       -0.9933  -22.1068  -41.8851 H         1 UNK         0.0600 
    151 H151        1.2420  -22.3077  -40.8317 H         1 UNK         0.0600 
    152 H152        0.2651  -21.1223  -39.9795 H         1 UNK         0.0600 
    153 H153        1.5458  -20.5937  -41.0693 H         1 UNK         0.0600 
    154 H154       -0.5073  -19.2765  -41.6669 H         1 UNK         0.3000 
    155 H155       -3.1236  -18.2350  -43.8512 H         1 UNK         0.0600 
    156 H156       -2.8587  -18.1623  -40.7977 H         1 UNK         0.0600 
    157 H157       -4.2616  -18.7198  -41.7002 H         1 UNK         0.0600 
    158 H158       -3.7894  -17.0288  -41.7760 H         1 UNK         0.0600 
    159 H159       -1.2145  -16.8711  -42.1682 H         1 UNK         0.3000 
    160 H160        1.3481  -16.5868  -44.6476 H         1 UNK         0.0600 
    161 H161        0.9367  -14.1567  -44.3373 H         1 UNK         0.0600 
    162 H162       -0.6738  -14.4801  -43.7085 H         1 UNK         0.0600 
    163 H163       -0.2867  -14.8529  -45.3867 H         1 UNK         0.0600 
    164 H164        1.0912  -15.3173  -42.1445 H         1 UNK         0.3000 
    165 H165        1.7215  -17.9688  -39.9465 H         1 UNK         0.0600 
    166 H166        3.8498  -16.8653  -39.2841 H         1 UNK         0.0600 
    167 H167        4.0785  -17.7726  -40.7700 H         1 UNK         0.0600 
    168 H168        3.9221  -16.0210  -40.8321 H         1 UNK         0.0600 
    169 H169        1.9987  -15.1947  -39.5089 H         1 UNK         0.3000 
    170 H170       -1.2115  -13.9895  -39.8784 H         1 UNK         0.0600 
    171 H171       -1.6610  -15.1440  -37.7031 H         1 UNK         0.0600 
    172 H172       -0.0647  -14.6870  -37.1208 H         1 UNK         0.0600 
    173 H173       -1.2755  -13.4488  -37.4591 H         1 UNK         0.0600 
    174 H174        0.9203  -12.8347  -38.4646 H         1 UNK         0.3000 
    175 H175        2.0089  -11.0135  -39.6413 H         1 UNK         0.0600 
    176 H176        4.0176  -13.2863  -40.1531 H         1 UNK         0.0600 
    177 H177        4.4082  -11.7265  -39.4311 H         1 UNK         0.0600 
    178 H178        3.3504  -12.8405  -38.5871 H         1 UNK         0.0600 
    179 H179        3.6593  -11.6848  -41.9513 H         1 UNK         0.3000 
    180 H180        2.0557   -9.6573  -44.2786 H         1 UNK         0.0600 
    181 H181        4.5404   -8.7967  -42.7013 H         1 UNK         0.0600 
    182 H182        3.1176   -7.8068  -43.0033 H         1 UNK         0.0600 
    183 H183        4.1385   -8.2986  -44.3451 H         1 UNK         0.0600 
    184 H184        4.6783  -10.9415  -43.8880 H         1 UNK         0.3000 
    185 H185        5.2173  -12.6553  -45.3402 H         1 UNK         0.0600 
    186 H186        4.5965  -13.6054  -43.1058 H         1 UNK         0.0600 
    187 H187        3.3319  -14.5723  -43.8501 H         1 UNK         0.0600 
    188 H188        5.0250  -14.8853  -44.2269 H         1 UNK         0.0600 
    189 H189        3.5212  -14.7645  -46.2890 H         1 UNK         0.3000 
    190 H190       -2.2901  -22.0063  -44.9841 H         1 UNK         0.3000 
    191 H191       -3.7936  -24.2168  -45.8424 H         1 UNK         0.0600 
    192 H192       -3.3821  -25.0769  -43.5413 H         1 UNK         0.0600 
    193 H193       -3.7837  -23.3661  -43.5144 H         1 UNK         0.0600 
    194 H194       -2.1129  -23.8830  -43.3031 H         1 UNK         0.0600 
    195 H195       -0.2646  -23.9973  -45.1969 H         1 UNK         0.3000 
    196 H196        0.4104  -26.6858  -45.7594 H         1 UNK         0.0600 
    197 H197        2.7207  -25.7604  -46.0204 H         1 UNK         0.0600 
    198 H198        1.9235  -25.0976  -44.6018 H         1 UNK         0.0600 
    199 H199        2.0692  -24.1262  -46.0654 H         1 UNK         0.0600 
    200 H200       -0.2431  -23.9959  -47.9337 H         1 UNK         0.3000 
    201 H201        0.6064  -25.4508  -50.3536 H         1 UNK         0.0600 
    202 H202        1.0955  -23.0156  -50.1062 H         1 UNK         0.0600 
    203 H203       -0.6246  -22.6705  -49.9792 H         1 UNK         0.0600 
    204 H204        0.0420  -23.3207  -51.4749 H         1 UNK         0.0600 
    205 H205       -1.8519  -26.1019  -48.4519 H         1 UNK         0.3000 
    206 H206       -3.8398  -27.0420  -48.5919 H         1 UNK         0.0600 
    207 H207       -2.8113  -28.4707  -50.3663 H         1 UNK         0.0600 
    208 H208       -4.5293  -28.2279  -50.6393 H         1 UNK         0.0600 
    209 H209       -3.3597  -27.3433  -51.6058 H         1 UNK         0.0600 
    210 H210       -3.9120  -24.4382  -48.2892 H         1 UNK         0.3000 
    211 H211       -5.1414  -22.6005  -48.2661 H         1 UNK         0.0600 
    212 H212       -7.3404  -24.1388  -49.7462 H         1 UNK         0.0600 
    213 H213       -7.5217  -22.6057  -48.9077 H         1 UNK         0.0600 
    214 H214       -7.1477  -24.0597  -47.9968 H         1 UNK         0.0600 
    215 H215       -3.1545  -22.8369  -50.0336 H         1 UNK         0.3000 
    216 H216       -2.1466  -22.1985  -51.9164 H         1 UNK         0.0600 
    217 H217       -2.7274  -19.9881  -52.8320 H         1 UNK         0.0600 
    218 H218       -2.7415  -19.9516  -51.0808 H         1 UNK         0.0600 
    219 H219       -4.2656  -19.9883  -51.9702 H         1 UNK         0.0600 
    220 H220       -3.1553  -24.3535  -52.5338 H         1 UNK         0.3000 
    221 H221       -3.9986  -25.7869  -53.9839 H         1 UNK         0.0600 
    222 H222       -3.6731  -23.5376  -56.0442 H         1 UNK         0.0600 
    223 H223       -2.3998  -24.6369  -55.5184 H         1 UNK         0.0600 
    224 H224       -3.7878  -25.2567  -56.3968 H         1 UNK         0.0600 
    225 H225       -5.9287  -24.7381  -52.4262 H         1 UNK         0.3000 
    226 H226       -8.0700  -24.3643  -52.0655 H         1 UNK         0.0600 
    227 H227       -9.7388  -25.5502  -53.4472 H         1 UNK         0.0600 
    228 H228       -8.5695  -25.7758  -54.7398 H         1 UNK         0.0600 
    229 H229       -8.3351  -26.5729  -53.1848 H         1 UNK         0.0600 
    230 H230       -6.9817  -22.1329  -52.6034 H         1 UNK         0.3000 
    231 H231       -7.1586  -20.0327  -53.1761 H         1 UNK         0.0600 
    232 H232       -9.4313  -20.2523  -52.1793 H         1 UNK         0.0600 
    233 H233      -10.1093  -20.6164  -53.7656 H         1 UNK         0.0600 
    234 H234       -9.4042  -19.0379  -53.4473 H         1 UNK         0.0600 
    235 H235       -5.8243  -21.2861  -55.0275 H         1 UNK         0.3000 
    236 H236       -6.5278  -19.8979  -57.5522 H         1 UNK         0.0600 
    237 H237       -7.3112  -22.2876  -57.7828 H         1 UNK         0.0600 
    238 H238       -5.9883  -21.9007  -58.8738 H         1 UNK         0.0600 
    239 H239       -5.6775  -22.8381  -57.4185 H         1 UNK         0.0600 
    240 H240       -4.9214  -18.9091  -55.6211 H         1 UNK         0.3000 
    241 H241       -2.1816  -19.5775  -55.8217 H         1 UNK         0.0600 
    242 H242       -0.4500  -18.7511  -57.1345 H         1 UNK         0.3800 
    243 H243       -0.7453  -17.7162  -58.5032 H         1 UNK         0.3800 
    244 H244       -3.1845  -16.7918  -55.0615 H         1 UNK         0.0800 
    245 H245       -3.4501  -18.1456  -54.0023 H         1 UNK         0.0800 
    246 H246       -2.2770  -15.7415  -53.1083 H         1 UNK         0.0800 
    247 H247       -0.5495  -15.5333  -53.0931 H         1 UNK         0.0800 
@<TRIPOS>BOND
     1    1    2 1    
     2    1  127 1    
     3    1  128 1    
     4    1  129 1    
     5    2    3 2    
     6    2    4 am   BACKBONE|DICT|INTERRES
     7    4    5 1    
     8    4  130 1    
     9    5    6 1    
    10    5   65 1    
    11    5  131 1    
    12    6    7 1    
    13    6  132 1    
    14    6  133 1    
    15    7    8 1    
    16    8    9 1    
    17    8  134 1    
    18    8  135 1    
    19    9   10 ar   
    20    9   14 ar   
    21   10   11 ar   
    22   10  136 1    
    23   11   12 ar   
    24   11  126 1    
    25   12   13 ar   
    26   12  137 1    
    27   13   14 ar   
    28   13   15 1    
    29   14  138 1    
    30   15   16 1    
    31   15  139 1    
    32   15  140 1    
    33   16   17 1    
    34   17   18 1    
    35   17  141 1    
    36   17  142 1    
    37   18   19 1    
    38   18   67 1    
    39   18  143 1    
    40   19   20 am   BACKBONE|DICT|INTERRES
    41   19  144 1    
    42   20   21 2    
    43   20   22 1    
    44   22   23 1    
    45   22   24 1    
    46   22  145 1    
    47   23  146 1    
    48   23  147 1    
    49   23  148 1    
    50   24   25 am   BACKBONE|DICT|INTERRES
    51   24  149 1    
    52   25   26 2    
    53   25   27 1    
    54   27   28 1    
    55   27   29 1    
    56   27  150 1    
    57   28  151 1    
    58   28  152 1    
    59   28  153 1    
    60   29   30 am   BACKBONE|DICT|INTERRES
    61   29  154 1    
    62   30   31 2    
    63   30   32 1    
    64   32   33 1    
    65   32   34 1    
    66   32  155 1    
    67   33  156 1    
    68   33  157 1    
    69   33  158 1    
    70   34   35 am   BACKBONE|DICT|INTERRES
    71   34  159 1    
    72   35   36 2    
    73   35   37 1    
    74   37   38 1    
    75   37   39 1    
    76   37  160 1    
    77   38  161 1    
    78   38  162 1    
    79   38  163 1    
    80   39   40 am   BACKBONE|DICT|INTERRES
    81   39  164 1    
    82   40   41 2    
    83   40   42 1    
    84   42   43 1    
    85   42   44 1    
    86   42  165 1    
    87   43  166 1    
    88   43  167 1    
    89   43  168 1    
    90   44   45 am   BACKBONE|DICT|INTERRES
    91   44  169 1    
    92   45   46 2    
    93   45   47 1    
    94   47   48 1    
    95   47   49 1    
    96   47  170 1    
    97   48  171 1    
    98   48  172 1    
    99   48  173 1    
   100   49   50 am   BACKBONE|DICT|INTERRES
   101   49  174 1    
   102   50   51 2    
   103   50   52 1    
   104   52   53 1    
   105   52   54 1    
   106   52  175 1    
   107   53  176 1    
   108   53  177 1    
   109   53  178 1    
   110   54   55 am   BACKBONE|DICT|INTERRES
   111   54  179 1    
   112   55   56 2    
   113   55   57 1    
   114   57   58 1    
   115   57   59 1    
   116   57  180 1    
   117   58  181 1    
   118   58  182 1    
   119   58  183 1    
   120   59   60 am   BACKBONE|DICT|INTERRES
   121   59  184 1    
   122   60   61 2    
   123   60   62 1    
   124   62   63 1    
   125   62   64 1    
   126   62  185 1    
   127   63  186 1    
   128   63  187 1    
   129   63  188 1    
   130   64   65 am   BACKBONE|DICT|INTERRES
   131   64  189 1    
   132   65   66 2    
   133   67   68 2    
   134   67   69 am   BACKBONE|DICT|INTERRES
   135   69   70 1    
   136   69  190 1    
   137   70   71 1    
   138   70   72 1    
   139   70  191 1    
   140   71  192 1    
   141   71  193 1    
   142   71  194 1    
   143   72   73 2    
   144   72   74 am   BACKBONE|DICT|INTERRES
   145   74   75 1    
   146   74  195 1    
   147   75   76 1    
   148   75   77 1    
   149   75  196 1    
   150   76  197 1    
   151   76  198 1    
   152   76  199 1    
   153   77   78 2    
   154   77   79 am   BACKBONE|DICT|INTERRES
   155   79   80 1    
   156   79  200 1    
   157   80   81 1    
   158   80   82 1    
   159   80  201 1    
   160   81  202 1    
   161   81  203 1    
   162   81  204 1    
   163   82   83 2    
   164   82   84 am   BACKBONE|DICT|INTERRES
   165   84   85 1    
   166   84  205 1    
   167   85   86 1    
   168   85   87 1    
   169   85  206 1    
   170   86  207 1    
   171   86  208 1    
   172   86  209 1    
   173   87   88 2    
   174   87   89 am   BACKBONE|DICT|INTERRES
   175   89   90 1    
   176   89  210 1    
   177   90   91 1    
   178   90   92 1    
   179   90  211 1    
   180   91  212 1    
   181   91  213 1    
   182   91  214 1    
   183   92   93 2    
   184   92   94 am   BACKBONE|DICT|INTERRES
   185   94   95 1    
   186   94  215 1    
   187   95   96 1    
   188   95   97 1    
   189   95  216 1    
   190   96  217 1    
   191   96  218 1    
   192   96  219 1    
   193   97   98 2    
   194   97   99 am   BACKBONE|DICT|INTERRES
   195   99  100 1    
   196   99  220 1    
   197  100  101 1    
   198  100  102 1    
   199  100  221 1    
   200  101  222 1    
   201  101  223 1    
   202  101  224 1    
   203  102  103 2    
   204  102  104 am   BACKBONE|DICT|INTERRES
   205  104  105 1    
   206  104  225 1    
   207  105  106 1    
   208  105  107 1    
   209  105  226 1    
   210  106  227 1    
   211  106  228 1    
   212  106  229 1    
   213  107  108 2    
   214  107  109 am   BACKBONE|DICT|INTERRES
   215  109  110 1    
   216  109  230 1    
   217  110  111 1    
   218  110  112 1    
   219  110  231 1    
   220  111  232 1    
   221  111  233 1    
   222  111  234 1    
   223  112  113 2    
   224  112  114 am   BACKBONE|DICT|INTERRES
   225  114  115 1    
   226  114  235 1    
   227  115  116 1    
   228  115  117 1    
   229  115  236 1    
   230  116  237 1    
   231  116  238 1    
   232  116  239 1    
   233  117  118 2    
   234  117  119 am   BACKBONE|DICT|INTERRES
   235  119  120 1    
   236  119  240 1    
   237  120  121 1    
   238  120  124 1    
   239  120  241 1    
   240  121  122 am   BACKBONE|DICT|INTERRES
   241  121  123 2    
   242  122  242 1    
   243  122  243 1    
   244  124  125 1    
   245  124  244 1    
   246  124  245 1    
   247  125  126 1    
   248  126  246 1    
   249  126  247 1    
@<TRIPOS>SUBSTRUCTURE
     1 UNK         1 GROUP             0       ****    0 ROOT    
