@<TRIPOS>MOLECULE
3R540
247   249    1
SMALL
USER_CHARGES


@<TRIPOS>ATOM
      1 CA         -2.0951  -10.4378  -49.4818 C.3       0 UNK        -0.1800 
      2 C          -0.7069  -10.9757  -49.1642 C.2       0 UNK         0.5000 
      3 O           0.2849  -10.2758  -49.3709 O.2       0 UNK        -0.5000 
      4 N          -0.6345  -12.2167  -48.6703 N.am      1 UNK        -0.5000 
      5 CA          0.6026  -12.8832  -48.2552 C.3       1 UNK         0.1400 
      6 C6          0.4188  -14.4137  -48.1165 C.3       23 UNK        -0.0398 
      7 S7          0.0448  -15.2266  -49.7029 S.3       23 UNK        -0.2404 
      8 C8         -1.7627  -15.4249  -49.5893 C.3       23 UNK        -0.0205 
      9 C9         -2.3359  -16.0323  -50.8605 C.ar      23 UNK        -0.0193 
     10 C10        -2.2668  -15.3277  -52.0647 C.ar      23 UNK        -0.1150 
     11 C11        -2.7703  -15.8800  -53.2455 C.ar      23 UNK        -0.0193 
     12 C12        -3.3542  -17.1499  -53.2147 C.ar      23 UNK        -0.1150 
     13 C13        -3.4582  -17.8546  -52.0101 C.ar      23 UNK        -0.0193 
     14 C14        -2.9463  -17.2893  -50.8369 C.ar      23 UNK        -0.1150 
     15 C15        -4.1607  -19.2050  -51.9739 C.3       23 UNK        -0.0205 
     16 S16        -3.0344  -20.5523  -51.5037 S.3       23 UNK        -0.2404 
     17 C17        -3.5456  -20.8693  -49.7844 C.3       23 UNK        -0.0398 
     18 CA         -2.7224  -22.0047  -49.1360 C.3       11 UNK         0.1400 
     19 N          -1.2865  -21.7159  -49.1089 N.am      11 UNK        -0.5000 
     20 C          -0.3403  -22.6269  -48.8444 C.2       10 UNK         0.5000 
     21 O          -0.5766  -23.8113  -48.6155 O.2       10 UNK        -0.5000 
     22 CA          1.1101  -22.1149  -48.7771 C.3       10 UNK         0.1400 
     23 CB          1.7357  -22.1075  -50.1799 C.3       10 UNK        -0.1800 
     24 N           1.2332  -20.7824  -48.1731 N.am      10 UNK        -0.5000 
     25 C           0.8216  -20.4712  -46.9360 C.2       9 UNK         0.5000 
     26 O           0.2512  -21.2701  -46.1885 O.2       9 UNK        -0.5000 
     27 CA          1.0303  -19.0129  -46.4853 C.3       9 UNK         0.1400 
     28 CB         -0.0624  -18.1120  -47.0818 C.3       9 UNK        -0.1800 
     29 N           1.0009  -18.8918  -45.0268 N.am      9 UNK        -0.5000 
     30 C           1.9444  -19.3807  -44.2078 C.2       8 UNK         0.5000 
     31 O           3.0019  -19.8671  -44.6125 O.2       8 UNK        -0.5000 
     32 CA          1.6676  -19.3271  -42.6928 C.3       8 UNK         0.1400 
     33 CB          2.9243  -18.9490  -41.8887 C.3       8 UNK        -0.1800 
     34 N           0.5921  -18.3874  -42.3717 N.am      8 UNK        -0.5000 
     35 C          -0.5855  -18.7177  -41.8237 C.2       7 UNK         0.5000 
     36 O          -0.8897  -19.8660  -41.4999 O.2       7 UNK        -0.5000 
     37 CA         -1.6082  -17.5850  -41.5985 C.3       7 UNK         0.1400 
     38 CB         -1.6508  -17.1844  -40.1167 C.3       7 UNK        -0.1800 
     39 N          -1.3610  -16.3979  -42.4227 N.am      7 UNK        -0.5000 
     40 C          -1.5708  -16.3551  -43.7464 C.2       6 UNK         0.5000 
     41 O          -1.9923  -17.3181  -44.3858 O.2       6 UNK        -0.5000 
     42 CA         -1.2042  -15.0714  -44.5122 C.3       6 UNK         0.1400 
     43 CB         -2.3617  -14.5675  -45.3995 C.3       6 UNK        -0.1800 
     44 N          -0.6298  -14.0085  -43.6857 N.am      6 UNK        -0.5000 
     45 C          -1.2374  -13.1347  -42.8726 C.2       5 UNK         0.5000 
     46 O          -2.4530  -13.0913  -42.6792 O.2       5 UNK        -0.5000 
     47 CA         -0.2855  -12.1668  -42.1327 C.3       5 UNK         0.1400 
     48 CB         -0.9764  -11.3764  -41.0019 C.3       5 UNK        -0.1800 
     49 N           0.9223  -12.8444  -41.6395 N.am      5 UNK        -0.5000 
     50 C           0.9618  -13.8827  -40.7883 C.2       4 UNK         0.5000 
     51 O          -0.0354  -14.3504  -40.2393 O.2       4 UNK        -0.5000 
     52 CA          2.3430  -14.5385  -40.5697 C.3       4 UNK         0.1400 
     53 CB          2.2508  -15.9277  -39.9073 C.3       4 UNK        -0.1800 
     54 N           3.1361  -14.6090  -41.8027 N.am      4 UNK        -0.5000 
     55 C           2.7850  -15.1775  -42.9652 C.2       3 UNK         0.5000 
     56 O           1.7350  -15.7983  -43.1448 O.2       3 UNK        -0.5000 
     57 CA          3.7558  -14.9622  -44.1411 C.3       3 UNK         0.1400 
     58 CB          3.7983  -16.1943  -45.0616 C.3       3 UNK        -0.1800 
     59 N           3.4272  -13.7877  -44.9553 N.am      3 UNK        -0.5000 
     60 C           3.2791  -12.5170  -44.5468 C.2       2 UNK         0.5000 
     61 O           3.3239  -12.1537  -43.3711 O.2       2 UNK        -0.5000 
     62 CA          3.0500  -11.4612  -45.6446 C.3       2 UNK         0.1400 
     63 CB          4.3829  -10.8094  -46.0429 C.3       2 UNK        -0.1800 
     64 N           2.4093  -12.0088  -46.8426 N.am      2 UNK        -0.5000 
     65 C           1.1021  -12.2831  -46.9264 C.2       1 UNK         0.5000 
     66 O           0.3079  -12.1021  -46.0015 O.2       1 UNK        -0.5000 
     67 C          -3.2660  -22.3265  -47.7309 C.2       11 UNK         0.5000 
     68 O          -4.0813  -23.2356  -47.5917 O.2       11 UNK        -0.5000 
     69 N          -2.7881  -21.6053  -46.7061 N.am      12 UNK        -0.5000 
     70 CA         -3.1497  -21.8339  -45.3055 C.3       12 UNK         0.1400 
     71 CB         -2.6854  -20.6515  -44.4435 C.3       12 UNK        -0.1800 
     72 C          -2.5872  -23.1654  -44.7805 C.2       12 UNK         0.5000 
     73 O          -3.3083  -23.9078  -44.1134 O.2       12 UNK        -0.5000 
     74 N          -1.3384  -23.4778  -45.1557 N.am      13 UNK        -0.5000 
     75 CA         -0.6802  -24.7599  -44.8923 C.3       13 UNK         0.1400 
     76 CB          0.7887  -24.6740  -45.3322 C.3       13 UNK        -0.1800 
     77 C          -1.3893  -25.9516  -45.5698 C.2       13 UNK         0.5000 
     78 O          -1.4222  -27.0432  -45.0018 O.2       13 UNK        -0.5000 
     79 N          -1.9849  -25.7062  -46.7444 N.am      14 UNK        -0.5000 
     80 CA         -2.8118  -26.6479  -47.5005 C.3       14 UNK         0.1400 
     81 CB         -2.6949  -26.3141  -48.9967 C.3       14 UNK        -0.1800 
     82 C          -4.2886  -26.6793  -47.0441 C.2       14 UNK         0.5000 
     83 O          -5.1107  -27.2842  -47.7323 O.2       14 UNK        -0.5000 
     84 N          -4.6099  -26.0411  -45.9078 N.am      15 UNK        -0.5000 
     85 CA         -5.9264  -25.9846  -45.2622 C.3       15 UNK         0.1400 
     86 CB         -6.3735  -27.3853  -44.7922 C.3       15 UNK        -0.1800 
     87 C          -6.9890  -25.2554  -46.1111 C.2       15 UNK         0.5000 
     88 O          -8.1217  -25.7250  -46.2317 O.2       15 UNK        -0.5000 
     89 N          -6.5882  -24.1069  -46.6722 N.am      16 UNK        -0.5000 
     90 CA         -7.3635  -23.1713  -47.4943 C.3       16 UNK         0.1400 
     91 CB         -8.6459  -22.6965  -46.7783 C.3       16 UNK        -0.1800 
     92 C          -7.6207  -23.6595  -48.9340 C.2       16 UNK         0.5000 
     93 O          -8.4375  -23.0621  -49.6377 O.2       16 UNK        -0.5000 
     94 N          -6.9022  -24.7018  -49.3704 N.am      17 UNK        -0.5000 
     95 CA         -6.8571  -25.1395  -50.7641 C.3       17 UNK         0.1400 
     96 CB         -6.3645  -26.5923  -50.8183 C.3       17 UNK        -0.1800 
     97 C          -5.9302  -24.2265  -51.5868 C.2       17 UNK         0.5000 
     98 O          -4.9858  -23.6520  -51.0403 O.2       17 UNK        -0.5000 
     99 N          -6.1926  -24.1314  -52.8952 N.am      18 UNK        -0.5000 
    100 CA        -5.3919  -23.3696  -53.8535 C.3       18 UNK         0.1400 
    101 CB        -6.2489  -23.0739  -55.0968 C.3       18 UNK        -0.1800 
    102 C         -4.0886  -24.1172  -54.1993 C.2       18 UNK         0.5000 
    103 O         -4.0016  -24.7610  -55.2463 O.2       18 UNK        -0.5000 
    104 N         -3.1171  -24.0408  -53.2826 N.am      19 UNK        -0.5000 
    105 CA        -1.7894  -24.6513  -53.3746 C.3       19 UNK         0.1400 
    106 CB        -0.9999  -24.3861  -52.0808 C.3       19 UNK        -0.1800 
    107 C         -0.9630  -24.2836  -54.6336 C.2       19 UNK         0.5000 
    108 O         -0.4191  -25.1984  -55.2506 O.2       19 UNK        -0.5000 
    109 N         -0.8479  -23.0158  -55.0604 N.am      20 UNK        -0.5000 
    110 CA        -1.2468  -21.7757  -54.3993 C.3       20 UNK         0.1400 
    111 CB        -2.2336  -21.0142  -55.2995 C.3       20 UNK        -0.1800 
    112 C         -0.0023  -20.9183  -54.1384 C.2       20 UNK         0.5000 
    113 O          0.9831  -21.0298  -54.8717 O.2       20 UNK        -0.5000 
    114 N         -0.0830  -20.0427  -53.1279 N.am      21 UNK        -0.5000 
    115 CA         0.9925  -19.1264  -52.7299 C.3       21 UNK         0.1400 
    116 CB         0.5935  -18.4222  -51.4265 C.3       21 UNK        -0.1800 
    117 C          1.3597  -18.0961  -53.8177 C.2       21 UNK         0.5000 
    118 O          2.5184  -17.6873  -53.9004 O.2       21 UNK        -0.5000 
    119 N          0.3782  -17.7374  -54.6540 N.am      22 UNK        -0.5000 
    120 CA         0.5592  -16.9427  -55.8784 C.3       22 UNK         0.1400 
    121 C          1.0962  -17.7556  -57.0973 C.2       22 UNK         0.5000 
    122 N          1.3222  -19.0611  -57.0059 N.am      22 UNK        -0.7600 
    123 O          1.3307  -17.1826  -58.1579 O.2       22 UNK        -0.5000 
    124 C124       -0.7332  -16.1667  -56.2423 C.3       23 UNK        -0.0398 
    125 S125       -1.0339  -14.7649  -55.1140 S.3       23 UNK        -0.2404 
    126 C126       -2.7324  -15.0699  -54.5329 C.3       23 UNK        -0.0205 
    127 H127       -2.8735  -11.1697  -49.2646 H         1 UNK         0.0600 
    128 H128       -2.1627  -10.1736  -50.5371 H         1 UNK         0.0600 
    129 H129       -2.2948   -9.5435  -48.8915 H         1 UNK         0.0600 
    130 H130       -1.4868  -12.7230  -48.4873 H         1 UNK         0.3000 
    131 H131        1.3589  -12.7008  -49.0222 H         1 UNK         0.0600 
    132 H132       -0.3671  -14.6462  -47.4001 H         1 UNK         0.0800 
    133 H133        1.3291  -14.8749  -47.7290 H         1 UNK         0.0800 
    134 H134       -2.2330  -14.4562  -49.4207 H         1 UNK         0.0800 
    135 H135       -2.0009  -16.0449  -48.7236 H         1 UNK         0.0800 
    136 H136       -1.8126  -14.3467  -52.0841 H         1 UNK         0.1150 
    137 H137       -3.7581  -17.5747  -54.1229 H         1 UNK         0.1150 
    138 H138       -3.0219  -17.8270  -49.9041 H         1 UNK         0.1150 
    139 H139       -5.0059  -19.1554  -51.2862 H         1 UNK         0.0800 
    140 H140       -4.5827  -19.4419  -52.9517 H         1 UNK         0.0800 
    141 H141       -4.6053  -21.1328  -49.7955 H         1 UNK         0.0800 
    142 H142       -3.4587  -19.9496  -49.2053 H         1 UNK         0.0800 
    143 H143       -2.8579  -22.9031  -49.7408 H         1 UNK         0.0600 
    144 H144       -1.0099  -20.7641  -49.2927 H         1 UNK         0.3000 
    145 H145        1.6762  -22.8102  -48.1541 H         1 UNK         0.0600 
    146 H146        2.7754  -21.7814  -50.1508 H         1 UNK         0.0600 
    147 H147        1.7220  -23.1074  -50.6160 H         1 UNK         0.0600 
    148 H148        1.1938  -21.4510  -50.8596 H         1 UNK         0.0600 
    149 H149        1.6964  -20.0778  -48.7279 H         1 UNK         0.3000 
    150 H150        2.0044  -18.6719  -46.8420 H         1 UNK         0.0600 
    151 H151       -1.0591  -18.4196  -46.7626 H         1 UNK         0.0600 
    152 H152       -0.0448  -18.1339  -48.1722 H         1 UNK         0.0600 
    153 H153        0.0792  -17.0756  -46.7805 H         1 UNK         0.0600 
    154 H154        0.1429  -18.5490  -44.6182 H         1 UNK         0.3000 
    155 H155        1.3849  -20.3415  -42.4057 H         1 UNK         0.0600 
    156 H156        3.3032  -17.9669  -42.1684 H         1 UNK         0.0600 
    157 H157        3.7277  -19.6686  -42.0505 H         1 UNK         0.0600 
    158 H158        2.7164  -18.9364  -40.8189 H         1 UNK         0.0600 
    159 H159        0.7726  -17.4160  -42.6134 H         1 UNK         0.3000 
    160 H160       -2.5915  -17.9787  -41.8648 H         1 UNK         0.0600 
    161 H161       -0.6731  -16.8654  -39.7567 H         1 UNK         0.0600 
    162 H162       -1.9654  -18.0246  -39.4966 H         1 UNK         0.0600 
    163 H163       -2.3553  -16.3705  -39.9445 H         1 UNK         0.0600 
    164 H164       -0.9839  -15.5836  -41.9544 H         1 UNK         0.3000 
    165 H165       -0.3903  -15.3633  -45.1750 H         1 UNK         0.0600 
    166 H166       -2.0947  -13.6468  -45.9179 H         1 UNK         0.0600 
    167 H167       -3.2642  -14.3763  -44.8189 H         1 UNK         0.0600 
    168 H168       -2.6192  -15.3070  -46.1586 H         1 UNK         0.0600 
    169 H169        0.3802  -13.9845  -43.7004 H         1 UNK         0.3000 
    170 H170        0.0519  -11.4462  -42.8794 H         1 UNK         0.0600 
    171 H171       -1.7959  -10.7728  -41.3935 H         1 UNK         0.0600 
    172 H172       -1.3928  -12.0353  -40.2396 H         1 UNK         0.0600 
    173 H173       -0.2784  -10.6968  -40.5132 H         1 UNK         0.0600 
    174 H174        1.7961  -12.5500  -42.0656 H         1 UNK         0.3000 
    175 H175        2.8864  -13.8824  -39.8885 H         1 UNK         0.0600 
    176 H176        1.6617  -16.6198  -40.5065 H         1 UNK         0.0600 
    177 H177        3.2391  -16.3646  -39.7652 H         1 UNK         0.0600 
    178 H178        1.7799  -15.8635  -38.9258 H         1 UNK         0.0600 
    179 H179        3.9889  -14.0662  -41.7908 H         1 UNK         0.3000 
    180 H180        4.7578  -14.8147  -43.7337 H         1 UNK         0.0600 
    181 H181        2.8362  -16.3739  -45.5438 H         1 UNK         0.0600 
    182 H182        4.0561  -17.0926  -44.4996 H         1 UNK         0.0600 
    183 H183        4.5484  -16.0787  -45.8439 H         1 UNK         0.0600 
    184 H184        3.3585  -13.9564  -45.9470 H         1 UNK         0.3000 
    185 H185        2.4068  -10.6840  -45.2255 H         1 UNK         0.0600 
    186 H186        4.2296  -10.0107  -46.7689 H         1 UNK         0.0600 
    187 H187        4.8762  -10.3677  -45.1759 H         1 UNK         0.0600 
    188 H188        5.0725  -11.5331  -46.4793 H         1 UNK         0.0600 
    189 H189        3.0032  -12.1585  -47.6461 H         1 UNK         0.3000 
    190 H190       -2.0608  -20.9276  -46.8787 H         1 UNK         0.3000 
    191 H191       -4.2388  -21.8863  -45.2415 H         1 UNK         0.0600 
    192 H192       -2.9734  -20.7923  -43.4010 H         1 UNK         0.0600 
    193 H193       -3.1392  -19.7202  -44.7812 H         1 UNK         0.0600 
    194 H194       -1.6032  -20.5249  -44.4665 H         1 UNK         0.0600 
    195 H195       -0.8009  -22.7836  -45.6691 H         1 UNK         0.3000 
    196 H196       -0.7047  -24.9296  -43.8140 H         1 UNK         0.0600 
    197 H197        0.8779  -24.5075  -46.4057 H         1 UNK         0.0600 
    198 H198        1.3061  -23.8598  -44.8240 H         1 UNK         0.0600 
    199 H199        1.3210  -25.5966  -45.0976 H         1 UNK         0.0600 
    200 H200       -1.8539  -24.7946  -47.1667 H         1 UNK         0.3000 
    201 H201       -2.4153  -27.6546  -47.3551 H         1 UNK         0.0600 
    202 H202       -3.1507  -25.3517  -49.2324 H         1 UNK         0.0600 
    203 H203       -3.1838  -27.0723  -49.6082 H         1 UNK         0.0600 
    204 H204       -1.6513  -26.2795  -49.3092 H         1 UNK         0.0600 
    205 H205       -3.8779  -25.5305  -45.4289 H         1 UNK         0.3000 
    206 H206       -5.7924  -25.3743  -44.3679 H         1 UNK         0.0600 
    207 H207       -5.6079  -27.8569  -44.1762 H         1 UNK         0.0600 
    208 H208       -7.2802  -27.3228  -44.1895 H         1 UNK         0.0600 
    209 H209       -6.5858  -28.0487  -45.6309 H         1 UNK         0.0600 
    210 H210       -5.6001  -23.8743  -46.6158 H         1 UNK         0.3000 
    211 H211       -6.7230  -22.2951  -47.6033 H         1 UNK         0.0600 
    212 H212       -9.0992  -21.8575  -47.3072 H         1 UNK         0.0600 
    213 H213       -8.4312  -22.3599  -45.7641 H         1 UNK         0.0600 
    214 H214       -9.3969  -23.4845  -46.7213 H         1 UNK         0.0600 
    215 H215       -6.2253  -25.1140  -48.7440 H         1 UNK         0.3000 
    216 H216       -7.8639  -25.0977  -51.1849 H         1 UNK         0.0600 
    217 H217       -5.3422  -26.6818  -50.4530 H         1 UNK         0.0600 
    218 H218       -6.3818  -26.9749  -51.8394 H         1 UNK         0.0600 
    219 H219       -6.9935  -27.2463  -50.2138 H         1 UNK         0.0600 
    220 H220       -6.9621  -24.6601  -53.2798 H         1 UNK         0.3000 
    221 H221       -5.1191  -22.4103  -53.4070 H         1 UNK         0.0600 
    222 H222       -7.1240  -22.4776  -54.8380 H         1 UNK         0.0600 
    223 H223       -6.5974  -23.9890  -55.5772 H         1 UNK         0.0600 
    224 H224       -5.6800  -22.5097  -55.8369 H         1 UNK         0.0600 
    225 H225       -3.3394  -23.5665  -52.4151 H         1 UNK         0.3000 
    226 H226       -1.9612  -25.7286  -53.4239 H         1 UNK         0.0600 
    227 H227       -0.8234  -23.3259  -51.9051 H         1 UNK         0.0600 
    228 H228       -1.5312  -24.7759  -51.2137 H         1 UNK         0.0600 
    229 H229       -0.0265  -24.8771  -52.1093 H         1 UNK         0.0600 
    230 H230       -0.2558  -22.8577  -55.8633 H         1 UNK         0.3000 
    231 H231       -1.7148  -21.9701  -53.4428 H         1 UNK         0.0600 
    232 H232       -1.7790  -20.7366  -56.2515 H         1 UNK         0.0600 
    233 H233       -2.5762  -20.0971  -54.8185 H         1 UNK         0.0600 
    234 H234       -3.1168  -21.6137  -55.5167 H         1 UNK         0.0600 
    235 H235       -0.9379  -19.9919  -52.5890 H         1 UNK         0.3000 
    236 H236        1.8837  -19.7265  -52.5349 H         1 UNK         0.0600 
    237 H237       -0.2614  -17.7665  -51.5827 H         1 UNK         0.0600 
    238 H238        0.3315  -19.1345  -50.6454 H         1 UNK         0.0600 
    239 H239        1.4110  -17.8068  -51.0491 H         1 UNK         0.0600 
    240 H240       -0.5440  -18.1133  -54.4969 H         1 UNK         0.3000 
    241 H241        1.3369  -16.2020  -55.6819 H         1 UNK         0.0600 
    242 H242        1.1805  -19.5758  -56.1434 H         1 UNK         0.3800 
    243 H243        1.6767  -19.5489  -57.8131 H         1 UNK         0.3800 
    244 H244       -1.5907  -16.8408  -56.2585 H         1 UNK         0.0800 
    245 H245       -0.6686  -15.7406  -57.2450 H         1 UNK         0.0800 
    246 H246       -3.3218  -15.5438  -55.3190 H         1 UNK         0.0800 
    247 H247       -3.2076  -14.1061  -54.3450 H         1 UNK         0.0800 
@<TRIPOS>BOND
     1    1    2 1    
     2    1  127 1    
     3    1  128 1    
     4    1  129 1    
     5    2    3 2    
     6    2    4 am   BACKBONE|DICT|INTERRES
     7    4    5 1    
     8    4  130 1    
     9    5    6 1    
    10    5   65 1    
    11    5  131 1    
    12    6    7 1    
    13    6  132 1    
    14    6  133 1    
    15    7    8 1    
    16    8    9 1    
    17    8  134 1    
    18    8  135 1    
    19    9   10 ar   
    20    9   14 ar   
    21   10   11 ar   
    22   10  136 1    
    23   11   12 ar   
    24   11  126 1    
    25   12   13 ar   
    26   12  137 1    
    27   13   14 ar   
    28   13   15 1    
    29   14  138 1    
    30   15   16 1    
    31   15  139 1    
    32   15  140 1    
    33   16   17 1    
    34   17   18 1    
    35   17  141 1    
    36   17  142 1    
    37   18   19 1    
    38   18   67 1    
    39   18  143 1    
    40   19   20 am   BACKBONE|DICT|INTERRES
    41   19  144 1    
    42   20   21 2    
    43   20   22 1    
    44   22   23 1    
    45   22   24 1    
    46   22  145 1    
    47   23  146 1    
    48   23  147 1    
    49   23  148 1    
    50   24   25 am   BACKBONE|DICT|INTERRES
    51   24  149 1    
    52   25   26 2    
    53   25   27 1    
    54   27   28 1    
    55   27   29 1    
    56   27  150 1    
    57   28  151 1    
    58   28  152 1    
    59   28  153 1    
    60   29   30 am   BACKBONE|DICT|INTERRES
    61   29  154 1    
    62   30   31 2    
    63   30   32 1    
    64   32   33 1    
    65   32   34 1    
    66   32  155 1    
    67   33  156 1    
    68   33  157 1    
    69   33  158 1    
    70   34   35 am   BACKBONE|DICT|INTERRES
    71   34  159 1    
    72   35   36 2    
    73   35   37 1    
    74   37   38 1    
    75   37   39 1    
    76   37  160 1    
    77   38  161 1    
    78   38  162 1    
    79   38  163 1    
    80   39   40 am   BACKBONE|DICT|INTERRES
    81   39  164 1    
    82   40   41 2    
    83   40   42 1    
    84   42   43 1    
    85   42   44 1    
    86   42  165 1    
    87   43  166 1    
    88   43  167 1    
    89   43  168 1    
    90   44   45 am   BACKBONE|DICT|INTERRES
    91   44  169 1    
    92   45   46 2    
    93   45   47 1    
    94   47   48 1    
    95   47   49 1    
    96   47  170 1    
    97   48  171 1    
    98   48  172 1    
    99   48  173 1    
   100   49   50 am   BACKBONE|DICT|INTERRES
   101   49  174 1    
   102   50   51 2    
   103   50   52 1    
   104   52   53 1    
   105   52   54 1    
   106   52  175 1    
   107   53  176 1    
   108   53  177 1    
   109   53  178 1    
   110   54   55 am   BACKBONE|DICT|INTERRES
   111   54  179 1    
   112   55   56 2    
   113   55   57 1    
   114   57   58 1    
   115   57   59 1    
   116   57  180 1    
   117   58  181 1    
   118   58  182 1    
   119   58  183 1    
   120   59   60 am   BACKBONE|DICT|INTERRES
   121   59  184 1    
   122   60   61 2    
   123   60   62 1    
   124   62   63 1    
   125   62   64 1    
   126   62  185 1    
   127   63  186 1    
   128   63  187 1    
   129   63  188 1    
   130   64   65 am   BACKBONE|DICT|INTERRES
   131   64  189 1    
   132   65   66 2    
   133   67   68 2    
   134   67   69 am   BACKBONE|DICT|INTERRES
   135   69   70 1    
   136   69  190 1    
   137   70   71 1    
   138   70   72 1    
   139   70  191 1    
   140   71  192 1    
   141   71  193 1    
   142   71  194 1    
   143   72   73 2    
   144   72   74 am   BACKBONE|DICT|INTERRES
   145   74   75 1    
   146   74  195 1    
   147   75   76 1    
   148   75   77 1    
   149   75  196 1    
   150   76  197 1    
   151   76  198 1    
   152   76  199 1    
   153   77   78 2    
   154   77   79 am   BACKBONE|DICT|INTERRES
   155   79   80 1    
   156   79  200 1    
   157   80   81 1    
   158   80   82 1    
   159   80  201 1    
   160   81  202 1    
   161   81  203 1    
   162   81  204 1    
   163   82   83 2    
   164   82   84 am   BACKBONE|DICT|INTERRES
   165   84   85 1    
   166   84  205 1    
   167   85   86 1    
   168   85   87 1    
   169   85  206 1    
   170   86  207 1    
   171   86  208 1    
   172   86  209 1    
   173   87   88 2    
   174   87   89 am   BACKBONE|DICT|INTERRES
   175   89   90 1    
   176   89  210 1    
   177   90   91 1    
   178   90   92 1    
   179   90  211 1    
   180   91  212 1    
   181   91  213 1    
   182   91  214 1    
   183   92   93 2    
   184   92   94 am   BACKBONE|DICT|INTERRES
   185   94   95 1    
   186   94  215 1    
   187   95   96 1    
   188   95   97 1    
   189   95  216 1    
   190   96  217 1    
   191   96  218 1    
   192   96  219 1    
   193   97   98 2    
   194   97   99 am   BACKBONE|DICT|INTERRES
   195   99  100 1    
   196   99  220 1    
   197  100  101 1    
   198  100  102 1    
   199  100  221 1    
   200  101  222 1    
   201  101  223 1    
   202  101  224 1    
   203  102  103 2    
   204  102  104 am   BACKBONE|DICT|INTERRES
   205  104  105 1    
   206  104  225 1    
   207  105  106 1    
   208  105  107 1    
   209  105  226 1    
   210  106  227 1    
   211  106  228 1    
   212  106  229 1    
   213  107  108 2    
   214  107  109 am   BACKBONE|DICT|INTERRES
   215  109  110 1    
   216  109  230 1    
   217  110  111 1    
   218  110  112 1    
   219  110  231 1    
   220  111  232 1    
   221  111  233 1    
   222  111  234 1    
   223  112  113 2    
   224  112  114 am   BACKBONE|DICT|INTERRES
   225  114  115 1    
   226  114  235 1    
   227  115  116 1    
   228  115  117 1    
   229  115  236 1    
   230  116  237 1    
   231  116  238 1    
   232  116  239 1    
   233  117  118 2    
   234  117  119 am   BACKBONE|DICT|INTERRES
   235  119  120 1    
   236  119  240 1    
   237  120  121 1    
   238  120  124 1    
   239  120  241 1    
   240  121  122 am   BACKBONE|DICT|INTERRES
   241  121  123 2    
   242  122  242 1    
   243  122  243 1    
   244  124  125 1    
   245  124  244 1    
   246  124  245 1    
   247  125  126 1    
   248  126  246 1    
   249  126  247 1    
@<TRIPOS>SUBSTRUCTURE
     1 UNK         1 GROUP             0       ****    0 ROOT    
