@<TRIPOS>MOLECULE
3R540
247   249    1
SMALL
USER_CHARGES


@<TRIPOS>ATOM
      1 CA         -1.4825  -11.9557  -45.3435 C.3       0 UNK        -0.1800 
      2 C          -1.8468  -12.7051  -46.6176 C.2       0 UNK         0.5000 
      3 O          -3.0200  -12.7577  -46.9862 O.2       0 UNK        -0.5000 
      4 N          -0.8476  -13.2882  -47.2826 N.am      1 UNK        -0.5000 
      5 CA         -0.9766  -14.0645  -48.5141 C.3       1 UNK         0.1400 
      6 C6         -1.3579  -15.5343  -48.1965 C.3       23 UNK        -0.0398 
      7 S7         -2.0084  -16.4712  -49.6150 S.3       23 UNK        -0.2404 
      8 C8         -1.8227  -18.1694  -48.9888 C.3       23 UNK        -0.0205 
      9 C9         -0.5269  -18.8037  -49.4647 C.ar      23 UNK        -0.0193 
     10 C10        -0.4982  -19.4956  -50.6781 C.ar      23 UNK        -0.1150 
     11 C11         0.6799  -20.1005  -51.1256 C.ar      23 UNK        -0.0193 
     12 C12         1.8362  -20.0082  -50.3477 C.ar      23 UNK        -0.1150 
     13 C13         1.8215  -19.3149  -49.1342 C.ar      23 UNK        -0.0193 
     14 C14         0.6369  -18.7134  -48.6964 C.ar      23 UNK        -0.1150 
     15 C15         3.1000  -19.1891  -48.3221 C.3       23 UNK        -0.0205 
     16 S16         3.4236  -20.6713  -47.3180 S.3       23 UNK        -0.2404 
     17 C17         2.2054  -20.4702  -45.9772 C.3       23 UNK        -0.0398 
     18 CA          1.3191  -21.7157  -45.7416 C.3       11 UNK         0.1400 
     19 N           0.7741  -21.7131  -44.3803 N.am      11 UNK        -0.5000 
     20 C           0.1163  -22.7217  -43.7914 C.2       10 UNK         0.5000 
     21 O          -0.1933  -23.7644  -44.3674 O.2       10 UNK        -0.5000 
     22 CA         -0.2671  -22.5225  -42.3161 C.3       10 UNK         0.1400 
     23 CB          0.9510  -22.7480  -41.4067 C.3       10 UNK        -0.1800 
     24 N          -0.7916  -21.1766  -42.0920 N.am      10 UNK        -0.5000 
     25 C          -2.0943  -20.8645  -42.0645 C.2       9 UNK         0.5000 
     26 O          -2.9999  -21.6963  -42.1327 O.2       9 UNK        -0.5000 
     27 CA         -2.4552  -19.3677  -41.9599 C.3       9 UNK         0.1400 
     28 CB         -2.6213  -18.9562  -40.4892 C.3       9 UNK        -0.1800 
     29 N          -1.4846  -18.4720  -42.5911 N.am      9 UNK        -0.5000 
     30 C          -1.1295  -18.4984  -43.8828 C.2       8 UNK         0.5000 
     31 O          -1.5875  -19.2832  -44.7114 O.2       8 UNK        -0.5000 
     32 CA         -0.0313  -17.5135  -44.3118 C.3       8 UNK         0.1400 
     33 CB         -0.6572  -16.1609  -44.6712 C.3       8 UNK        -0.1800 
     34 N           1.0228  -17.3116  -43.3148 N.am      8 UNK        -0.5000 
     35 C           1.7437  -18.2612  -42.6996 C.2       7 UNK         0.5000 
     36 O           1.5700  -19.4696  -42.8604 O.2       7 UNK        -0.5000 
     37 CA          2.8219  -17.7771  -41.7197 C.3       7 UNK         0.1400 
     38 CB          4.0914  -17.3613  -42.4780 C.3       7 UNK        -0.1800 
     39 N           2.3402  -16.6492  -40.9248 N.am      7 UNK        -0.5000 
     40 C           1.6807  -16.7638  -39.7648 C.2       6 UNK         0.5000 
     41 O           1.4569  -17.8393  -39.2084 O.2       6 UNK        -0.5000 
     42 CA          1.1808  -15.4584  -39.1142 C.3       6 UNK         0.1400 
     43 CB          2.2383  -14.9006  -38.1494 C.3       6 UNK        -0.1800 
     44 N           0.8271  -14.4210  -40.0853 N.am      6 UNK        -0.5000 
     45 C          -0.2214  -14.4851  -40.9168 C.2       5 UNK         0.5000 
     46 O          -1.0161  -15.4260  -40.9468 O.2       5 UNK        -0.5000 
     47 CA         -0.3920  -13.3141  -41.9065 C.3       5 UNK         0.1400 
     48 CB         -1.2026  -12.1810  -41.2599 C.3       5 UNK        -0.1800 
     49 N           0.8510  -12.7588  -42.4609 N.am      5 UNK        -0.5000 
     50 C           1.8337  -13.4560  -43.0476 C.2       4 UNK         0.5000 
     51 O           1.8992  -14.6859  -43.0409 O.2       4 UNK        -0.5000 
     52 CA          2.9465  -12.6436  -43.7370 C.3       4 UNK         0.1400 
     53 CB          4.0135  -12.2329  -42.7111 C.3       4 UNK        -0.1800 
     54 N           3.5954  -13.3965  -44.8155 N.am      4 UNK        -0.5000 
     55 C           2.9792  -13.8493  -45.9154 C.2       3 UNK         0.5000 
     56 O           1.8004  -13.6006  -46.1910 O.2       3 UNK        -0.5000 
     57 CA          3.8166  -14.7417  -46.8504 C.3       3 UNK         0.1400 
     58 CB          4.1779  -16.0713  -46.1654 C.3       3 UNK        -0.1800 
     59 N           3.0301  -15.0276  -48.0454 N.am      3 UNK        -0.5000 
     60 C           3.3953  -14.8167  -49.3153 C.2       2 UNK         0.5000 
     61 O           4.5368  -14.5067  -49.6579 O.2       2 UNK        -0.5000 
     62 CA          2.2876  -14.9534  -50.3865 C.3       2 UNK         0.1400 
     63 CB          2.4807  -16.2295  -51.2185 C.3       2 UNK        -0.1800 
     64 N           0.9360  -14.9532  -49.8122 N.am      2 UNK        -0.5000 
     65 C           0.3352  -13.8680  -49.3030 C.2       1 UNK         0.5000 
     66 O           0.8100  -12.7338  -49.4026 O.2       1 UNK        -0.5000 
     67 C           0.2436  -21.9033  -46.8366 C.2       11 UNK         0.5000 
     68 O           0.5334  -22.5209  -47.8612 O.2       11 UNK        -0.5000 
     69 N          -0.9987  -21.4624  -46.5749 N.am      12 UNK        -0.5000 
     70 CA         -2.1741  -21.6737  -47.4290 C.3       12 UNK         0.1400 
     71 CB         -3.3929  -20.9685  -46.8161 C.3       12 UNK        -0.1800 
     72 C          -2.5091  -23.1503  -47.7275 C.2       12 UNK         0.5000 
     73 O          -3.2290  -23.4125  -48.6918 O.2       12 UNK        -0.5000 
     74 N          -1.9527  -24.0986  -46.9581 N.am      13 UNK        -0.5000 
     75 CA         -1.9867  -25.5330  -47.2548 C.3       13 UNK         0.1400 
     76 CB         -1.3198  -26.3085  -46.1107 C.3       13 UNK        -0.1800 
     77 C          -1.3305  -25.8938  -48.6050 C.2       13 UNK         0.5000 
     78 O          -1.7679  -26.8501  -49.2451 O.2       13 UNK        -0.5000 
     79 N          -0.3515  -25.0917  -49.0562 N.am      14 UNK        -0.5000 
     80 CA          0.2681  -25.1962  -50.3824 C.3       14 UNK         0.1400 
     81 CB          1.5081  -24.2903  -50.4362 C.3       14 UNK        -0.1800 
     82 C          -0.6978  -24.8430  -51.5326 C.2       14 UNK         0.5000 
     83 O          -0.4860  -25.2881  -52.6602 O.2       14 UNK        -0.5000 
     84 N          -1.7467  -24.0716  -51.2203 N.am      15 UNK        -0.5000 
     85 CA         -2.8389  -23.7062  -52.1188 C.3       15 UNK         0.1400 
     86 CB         -3.1982  -22.2359  -51.8530 C.3       15 UNK        -0.1800 
     87 C          -4.0818  -24.5905  -51.9000 C.2       15 UNK         0.5000 
     88 O          -5.1450  -24.2600  -52.4244 O.2       15 UNK        -0.5000 
     89 N          -3.9664  -25.6434  -51.0735 N.am      16 UNK        -0.5000 
     90 CA         -5.0500  -26.5195  -50.6092 C.3       16 UNK         0.1400 
     91 CB         -5.5747  -27.3936  -51.7671 C.3       16 UNK        -0.1800 
     92 C          -6.1740  -25.7494  -49.8775 C.2       16 UNK         0.5000 
     93 O          -7.3454  -26.1147  -49.9849 O.2       16 UNK        -0.5000 
     94 N          -5.7862  -24.6762  -49.1705 N.am      17 UNK        -0.5000 
     95 CA         -6.6208  -23.7158  -48.4427 C.3       17 UNK         0.1400 
     96 CB         -7.4545  -24.4089  -47.3452 C.3       17 UNK        -0.1800 
     97 C          -7.4731  -22.7882  -49.3375 C.2       17 UNK         0.5000 
     98 O          -8.2703  -22.0181  -48.7999 O.2       17 UNK        -0.5000 
     99 N          -7.2842  -22.8264  -50.6672 N.am      18 UNK        -0.5000 
    100 CA        -7.9459  -21.9145  -51.6087 C.3       18 UNK         0.1400 
    101 CB        -7.8926  -22.5048  -53.0257 C.3       18 UNK        -0.1800 
    102 C         -7.3213  -20.5061  -51.5932 C.2       18 UNK         0.5000 
    103 O         -8.0220  -19.5267  -51.8511 O.2       18 UNK        -0.5000 
    104 N         -6.0176  -20.4444  -51.2835 N.am      19 UNK        -0.5000 
    105 CA        -5.1373  -19.2790  -51.1321 C.3       19 UNK         0.1400 
    106 CB        -5.6047  -18.3771  -49.9747 C.3       19 UNK        -0.1800 
    107 C         -4.8930  -18.4626  -52.4162 C.2       19 UNK         0.5000 
    108 O         -3.7353  -18.2048  -52.7489 O.2       19 UNK        -0.5000 
    109 N         -5.9753  -18.0704  -53.0999 N.am      20 UNK        -0.5000 
    110 CA        -6.0192  -17.2070  -54.2812 C.3       20 UNK         0.1400 
    111 CB        -7.4740  -17.1041  -54.7663 C.3       20 UNK        -0.1800 
    112 C         -5.0912  -17.6853  -55.4125 C.2       20 UNK         0.5000 
    113 O         -5.3530  -18.7266  -56.0198 O.2       20 UNK        -0.5000 
    114 N         -3.9997  -16.9356  -55.6296 N.am      21 UNK        -0.5000 
    115 CA        -2.9279  -17.1773  -56.6065 C.3       21 UNK         0.1400 
    116 CB        -3.4525  -16.9339  -58.0370 C.3       21 UNK        -0.1800 
    117 C         -2.2368  -18.5533  -56.4591 C.2       21 UNK         0.5000 
    118 O         -1.6930  -19.0713  -57.4362 O.2       21 UNK        -0.5000 
    119 N         -2.2944  -19.1290  -55.2501 N.am      22 UNK        -0.5000 
    120 CA        -1.8971  -20.5084  -54.9267 C.3       22 UNK         0.1400 
    121 C         -2.7584  -21.6082  -55.6246 C.2       22 UNK         0.5000 
    122 N         -3.9640  -21.3098  -56.0963 N.am      22 UNK        -0.7600 
    123 O         -2.3487  -22.7619  -55.7131 O.2       22 UNK        -0.5000 
    124 C124       -0.3656  -20.7599  -55.0366 C.3       23 UNK        -0.0398 
    125 S125        0.5756  -19.7258  -53.8639 S.3       23 UNK        -0.2404 
    126 C126        0.6956  -20.8588  -52.4428 C.3       23 UNK        -0.0205 
    127 H127       -2.0867  -12.3155  -44.5110 H         1 UNK         0.0600 
    128 H128       -1.6712  -10.8896  -45.4675 H         1 UNK         0.0600 
    129 H129       -0.4319  -12.0890  -45.0842 H         1 UNK         0.0600 
    130 H130        0.1071  -13.2002  -46.9373 H         1 UNK         0.3000 
    131 H131       -1.7667  -13.6209  -49.1236 H         1 UNK         0.0600 
    132 H132       -2.1581  -15.5422  -47.4558 H         1 UNK         0.0800 
    133 H133       -0.5221  -16.0628  -47.7372 H         1 UNK         0.0800 
    134 H134       -1.8757  -18.1825  -47.8989 H         1 UNK         0.0800 
    135 H135       -2.6672  -18.7652  -49.3319 H         1 UNK         0.0800 
    136 H136       -1.3922  -19.5510  -51.2827 H         1 UNK         0.1150 
    137 H137        2.7518  -20.4719  -50.6865 H         1 UNK         0.1150 
    138 H138        0.6202  -18.1748  -47.7609 H         1 UNK         0.1150 
    139 H139        3.9426  -19.0311  -48.9968 H         1 UNK         0.0800 
    140 H140        3.0603  -18.3094  -47.6800 H         1 UNK         0.0800 
    141 H141        1.5917  -19.5882  -46.1437 H         1 UNK         0.0800 
    142 H142        2.7900  -20.2575  -45.0815 H         1 UNK         0.0800 
    143 H143        1.9658  -22.5941  -45.7953 H         1 UNK         0.0600 
    144 H144        0.9996  -20.8961  -43.8176 H         1 UNK         0.3000 
    145 H145       -1.0195  -23.2715  -42.0600 H         1 UNK         0.0600 
    146 H146        0.6763  -22.6614  -40.3553 H         1 UNK         0.0600 
    147 H147        1.3678  -23.7453  -41.5529 H         1 UNK         0.0600 
    148 H148        1.7452  -22.0269  -41.6043 H         1 UNK         0.0600 
    149 H149       -0.1123  -20.4252  -42.0730 H         1 UNK         0.3000 
    150 H150       -3.4113  -19.2257  -42.4677 H         1 UNK         0.0600 
    151 H151       -3.3584  -19.5842  -39.9870 H         1 UNK         0.0600 
    152 H152       -2.9620  -17.9239  -40.4044 H         1 UNK         0.0600 
    153 H153       -1.6830  -19.0447  -39.9396 H         1 UNK         0.0600 
    154 H154       -1.0551  -17.7771  -41.9949 H         1 UNK         0.3000 
    155 H155        0.4393  -17.9122  -45.2092 H         1 UNK         0.0600 
    156 H156       -1.4586  -16.2854  -45.3977 H         1 UNK         0.0600 
    157 H157        0.0774  -15.4788  -45.0989 H         1 UNK         0.0600 
    158 H158       -1.0944  -15.6851  -43.7954 H         1 UNK         0.0600 
    159 H159        1.2755  -16.3412  -43.1351 H         1 UNK         0.3000 
    160 H160        3.0790  -18.6107  -41.0626 H         1 UNK         0.0600 
    161 H161        3.9115  -16.5045  -43.1273 H         1 UNK         0.0600 
    162 H162        4.4602  -18.1763  -43.1023 H         1 UNK         0.0600 
    163 H163        4.8904  -17.0928  -41.7869 H         1 UNK         0.0600 
    164 H164        2.4085  -15.7357  -41.3576 H         1 UNK         0.3000 
    165 H165        0.2863  -15.7005  -38.5363 H         1 UNK         0.0600 
    166 H166        1.8669  -14.0219  -37.6217 H         1 UNK         0.0600 
    167 H167        2.5082  -15.6411  -37.3952 H         1 UNK         0.0600 
    168 H168        3.1521  -14.6176  -38.6735 H         1 UNK         0.0600 
    169 H169        1.4339  -13.6161  -40.1380 H         1 UNK         0.3000 
    170 H170       -0.9712  -13.6899  -42.7498 H         1 UNK         0.0600 
    171 H171       -2.1462  -12.5537  -40.8588 H         1 UNK         0.0600 
    172 H172       -0.6575  -11.7150  -40.4382 H         1 UNK         0.0600 
    173 H173       -1.4455  -11.4045  -41.9856 H         1 UNK         0.0600 
    174 H174        0.9053  -11.7507  -42.4811 H         1 UNK         0.3000 
    175 H175        2.5031  -11.7451  -44.1711 H         1 UNK         0.0600 
    176 H176        4.4904  -13.1029  -42.2573 H         1 UNK         0.0600 
    177 H177        4.7923  -11.6259  -43.1730 H         1 UNK         0.0600 
    178 H178        3.5782  -11.6401  -41.9055 H         1 UNK         0.0600 
    179 H179        4.5542  -13.6649  -44.6521 H         1 UNK         0.3000 
    180 H180        4.7295  -14.2019  -47.1098 H         1 UNK         0.0600 
    181 H181        4.7169  -16.7296  -46.8467 H         1 UNK         0.0600 
    182 H182        3.2903  -16.6003  -45.8145 H         1 UNK         0.0600 
    183 H183        4.8257  -15.9072  -45.3043 H         1 UNK         0.0600 
    184 H184        2.0505  -15.1874  -47.8651 H         1 UNK         0.3000 
    185 H185        2.3766  -14.0978  -51.0592 H         1 UNK         0.0600 
    186 H186        3.4446  -16.2209  -51.7285 H         1 UNK         0.0600 
    187 H187        2.4510  -17.1207  -50.5957 H         1 UNK         0.0600 
    188 H188        1.7090  -16.3285  -51.9823 H         1 UNK         0.0600 
    189 H189        0.4659  -15.8469  -49.7597 H         1 UNK         0.3000 
    190 H190       -1.1578  -20.9281  -45.7257 H         1 UNK         0.3000 
    191 H191       -1.9600  -21.2063  -48.3916 H         1 UNK         0.0600 
    192 H192       -3.2303  -19.8943  -46.7369 H         1 UNK         0.0600 
    193 H193       -4.2829  -21.1111  -47.4305 H         1 UNK         0.0600 
    194 H194       -3.6146  -21.3479  -45.8178 H         1 UNK         0.0600 
    195 H195       -1.3728  -23.8157  -46.1760 H         1 UNK         0.3000 
    196 H196       -3.0349  -25.8346  -47.3076 H         1 UNK         0.0600 
    197 H197       -1.3708  -27.3841  -46.2847 H         1 UNK         0.0600 
    198 H198       -1.8123  -26.1090  -45.1588 H         1 UNK         0.0600 
    199 H199       -0.2674  -26.0415  -46.0057 H         1 UNK         0.0600 
    200 H200       -0.0617  -24.2969  -48.4923 H         1 UNK         0.3000 
    201 H201        0.5907  -26.2296  -50.5247 H         1 UNK         0.0600 
    202 H202        2.2099  -24.5303  -49.6373 H         1 UNK         0.0600 
    203 H203        1.2413  -23.2369  -50.3417 H         1 UNK         0.0600 
    204 H204        2.0377  -24.4086  -51.3822 H         1 UNK         0.0600 
    205 H205       -1.8650  -23.7841  -50.2565 H         1 UNK         0.3000 
    206 H206       -2.5257  -23.8112  -53.1589 H         1 UNK         0.0600 
    207 H207       -2.3145  -21.6043  -51.8451 H         1 UNK         0.0600 
    208 H208       -3.8715  -21.8553  -52.6219 H         1 UNK         0.0600 
    209 H209       -3.6898  -22.1116  -50.8889 H         1 UNK         0.0600 
    210 H210       -3.0567  -25.8391  -50.6743 H         1 UNK         0.3000 
    211 H211       -4.6075  -27.1853  -49.8669 H         1 UNK         0.0600 
    212 H212       -6.0890  -26.7995  -52.5231 H         1 UNK         0.0600 
    213 H213       -6.2799  -28.1421  -51.4043 H         1 UNK         0.0600 
    214 H214       -4.7606  -27.9278  -52.2570 H         1 UNK         0.0600 
    215 H215       -4.7965  -24.4438  -49.1654 H         1 UNK         0.3000 
    216 H216       -5.9169  -23.0552  -47.9352 H         1 UNK         0.0600 
    217 H217       -7.9244  -23.6748  -46.6897 H         1 UNK         0.0600 
    218 H218       -6.8304  -25.0466  -46.7193 H         1 UNK         0.0600 
    219 H219       -8.2512  -25.0234  -47.7647 H         1 UNK         0.0600 
    220 H220       -6.6299  -23.4931  -51.0609 H         1 UNK         0.3000 
    221 H221       -8.9958  -21.8198  -51.3233 H         1 UNK         0.0600 
    222 H222       -6.8735  -22.5420  -53.4117 H         1 UNK         0.0600 
    223 H223       -8.2991  -23.5160  -53.0501 H         1 UNK         0.0600 
    224 H224       -8.4789  -21.9004  -53.7189 H         1 UNK         0.0600 
    225 H225       -5.5698  -21.3334  -51.1194 H         1 UNK         0.3000 
    226 H226       -4.1675  -19.6862  -50.8469 H         1 UNK         0.0600 
    227 H227       -5.6443  -18.9311  -49.0367 H         1 UNK         0.0600 
    228 H228       -4.9202  -17.5408  -49.8294 H         1 UNK         0.0600 
    229 H229       -6.5938  -17.9565  -50.1573 H         1 UNK         0.0600 
    230 H230       -6.8720  -18.3971  -52.7483 H         1 UNK         0.3000 
    231 H231       -5.7013  -16.2115  -53.9658 H         1 UNK         0.0600 
    232 H232       -7.8789  -18.0815  -55.0326 H         1 UNK         0.0600 
    233 H233       -7.5490  -16.4651  -55.6472 H         1 UNK         0.0600 
    234 H234       -8.1168  -16.6750  -53.9974 H         1 UNK         0.0600 
    235 H235       -3.8570  -16.1318  -55.0338 H         1 UNK         0.3000 
    236 H236       -2.1569  -16.4324  -56.4052 H         1 UNK         0.0600 
    237 H237       -3.9212  -15.9537  -58.1239 H         1 UNK         0.0600 
    238 H238       -2.6416  -16.9682  -58.7654 H         1 UNK         0.0600 
    239 H239       -4.1876  -17.6844  -58.3296 H         1 UNK         0.0600 
    240 H240       -2.7612  -18.6290  -54.5001 H         1 UNK         0.3000 
    241 H241       -2.1529  -20.6134  -53.8755 H         1 UNK         0.0600 
    242 H242       -4.3418  -20.3680  -56.0379 H         1 UNK         0.3800 
    243 H243       -4.5101  -22.0333  -56.5352 H         1 UNK         0.3800 
    244 H244       -0.1206  -21.8054  -54.8421 H         1 UNK         0.0800 
    245 H245       -0.0111  -20.5577  -56.0475 H         1 UNK         0.0800 
    246 H246        1.6054  -21.4531  -52.5395 H         1 UNK         0.0800 
    247 H247       -0.1294  -21.5701  -52.4488 H         1 UNK         0.0800 
@<TRIPOS>BOND
     1    1    2 1    
     2    1  127 1    
     3    1  128 1    
     4    1  129 1    
     5    2    3 2    
     6    2    4 am   BACKBONE|DICT|INTERRES
     7    4    5 1    
     8    4  130 1    
     9    5    6 1    
    10    5   65 1    
    11    5  131 1    
    12    6    7 1    
    13    6  132 1    
    14    6  133 1    
    15    7    8 1    
    16    8    9 1    
    17    8  134 1    
    18    8  135 1    
    19    9   10 ar   
    20    9   14 ar   
    21   10   11 ar   
    22   10  136 1    
    23   11   12 ar   
    24   11  126 1    
    25   12   13 ar   
    26   12  137 1    
    27   13   14 ar   
    28   13   15 1    
    29   14  138 1    
    30   15   16 1    
    31   15  139 1    
    32   15  140 1    
    33   16   17 1    
    34   17   18 1    
    35   17  141 1    
    36   17  142 1    
    37   18   19 1    
    38   18   67 1    
    39   18  143 1    
    40   19   20 am   BACKBONE|DICT|INTERRES
    41   19  144 1    
    42   20   21 2    
    43   20   22 1    
    44   22   23 1    
    45   22   24 1    
    46   22  145 1    
    47   23  146 1    
    48   23  147 1    
    49   23  148 1    
    50   24   25 am   BACKBONE|DICT|INTERRES
    51   24  149 1    
    52   25   26 2    
    53   25   27 1    
    54   27   28 1    
    55   27   29 1    
    56   27  150 1    
    57   28  151 1    
    58   28  152 1    
    59   28  153 1    
    60   29   30 am   BACKBONE|DICT|INTERRES
    61   29  154 1    
    62   30   31 2    
    63   30   32 1    
    64   32   33 1    
    65   32   34 1    
    66   32  155 1    
    67   33  156 1    
    68   33  157 1    
    69   33  158 1    
    70   34   35 am   BACKBONE|DICT|INTERRES
    71   34  159 1    
    72   35   36 2    
    73   35   37 1    
    74   37   38 1    
    75   37   39 1    
    76   37  160 1    
    77   38  161 1    
    78   38  162 1    
    79   38  163 1    
    80   39   40 am   BACKBONE|DICT|INTERRES
    81   39  164 1    
    82   40   41 2    
    83   40   42 1    
    84   42   43 1    
    85   42   44 1    
    86   42  165 1    
    87   43  166 1    
    88   43  167 1    
    89   43  168 1    
    90   44   45 am   BACKBONE|DICT|INTERRES
    91   44  169 1    
    92   45   46 2    
    93   45   47 1    
    94   47   48 1    
    95   47   49 1    
    96   47  170 1    
    97   48  171 1    
    98   48  172 1    
    99   48  173 1    
   100   49   50 am   BACKBONE|DICT|INTERRES
   101   49  174 1    
   102   50   51 2    
   103   50   52 1    
   104   52   53 1    
   105   52   54 1    
   106   52  175 1    
   107   53  176 1    
   108   53  177 1    
   109   53  178 1    
   110   54   55 am   BACKBONE|DICT|INTERRES
   111   54  179 1    
   112   55   56 2    
   113   55   57 1    
   114   57   58 1    
   115   57   59 1    
   116   57  180 1    
   117   58  181 1    
   118   58  182 1    
   119   58  183 1    
   120   59   60 am   BACKBONE|DICT|INTERRES
   121   59  184 1    
   122   60   61 2    
   123   60   62 1    
   124   62   63 1    
   125   62   64 1    
   126   62  185 1    
   127   63  186 1    
   128   63  187 1    
   129   63  188 1    
   130   64   65 am   BACKBONE|DICT|INTERRES
   131   64  189 1    
   132   65   66 2    
   133   67   68 2    
   134   67   69 am   BACKBONE|DICT|INTERRES
   135   69   70 1    
   136   69  190 1    
   137   70   71 1    
   138   70   72 1    
   139   70  191 1    
   140   71  192 1    
   141   71  193 1    
   142   71  194 1    
   143   72   73 2    
   144   72   74 am   BACKBONE|DICT|INTERRES
   145   74   75 1    
   146   74  195 1    
   147   75   76 1    
   148   75   77 1    
   149   75  196 1    
   150   76  197 1    
   151   76  198 1    
   152   76  199 1    
   153   77   78 2    
   154   77   79 am   BACKBONE|DICT|INTERRES
   155   79   80 1    
   156   79  200 1    
   157   80   81 1    
   158   80   82 1    
   159   80  201 1    
   160   81  202 1    
   161   81  203 1    
   162   81  204 1    
   163   82   83 2    
   164   82   84 am   BACKBONE|DICT|INTERRES
   165   84   85 1    
   166   84  205 1    
   167   85   86 1    
   168   85   87 1    
   169   85  206 1    
   170   86  207 1    
   171   86  208 1    
   172   86  209 1    
   173   87   88 2    
   174   87   89 am   BACKBONE|DICT|INTERRES
   175   89   90 1    
   176   89  210 1    
   177   90   91 1    
   178   90   92 1    
   179   90  211 1    
   180   91  212 1    
   181   91  213 1    
   182   91  214 1    
   183   92   93 2    
   184   92   94 am   BACKBONE|DICT|INTERRES
   185   94   95 1    
   186   94  215 1    
   187   95   96 1    
   188   95   97 1    
   189   95  216 1    
   190   96  217 1    
   191   96  218 1    
   192   96  219 1    
   193   97   98 2    
   194   97   99 am   BACKBONE|DICT|INTERRES
   195   99  100 1    
   196   99  220 1    
   197  100  101 1    
   198  100  102 1    
   199  100  221 1    
   200  101  222 1    
   201  101  223 1    
   202  101  224 1    
   203  102  103 2    
   204  102  104 am   BACKBONE|DICT|INTERRES
   205  104  105 1    
   206  104  225 1    
   207  105  106 1    
   208  105  107 1    
   209  105  226 1    
   210  106  227 1    
   211  106  228 1    
   212  106  229 1    
   213  107  108 2    
   214  107  109 am   BACKBONE|DICT|INTERRES
   215  109  110 1    
   216  109  230 1    
   217  110  111 1    
   218  110  112 1    
   219  110  231 1    
   220  111  232 1    
   221  111  233 1    
   222  111  234 1    
   223  112  113 2    
   224  112  114 am   BACKBONE|DICT|INTERRES
   225  114  115 1    
   226  114  235 1    
   227  115  116 1    
   228  115  117 1    
   229  115  236 1    
   230  116  237 1    
   231  116  238 1    
   232  116  239 1    
   233  117  118 2    
   234  117  119 am   BACKBONE|DICT|INTERRES
   235  119  120 1    
   236  119  240 1    
   237  120  121 1    
   238  120  124 1    
   239  120  241 1    
   240  121  122 am   BACKBONE|DICT|INTERRES
   241  121  123 2    
   242  122  242 1    
   243  122  243 1    
   244  124  125 1    
   245  124  244 1    
   246  124  245 1    
   247  125  126 1    
   248  126  246 1    
   249  126  247 1    
@<TRIPOS>SUBSTRUCTURE
     1 UNK         1 GROUP             0       ****    0 ROOT    
