@<TRIPOS>MOLECULE
3R540
247   249    1
SMALL
USER_CHARGES


@<TRIPOS>ATOM
      1 CA         -0.3389  -11.0680  -45.2940 C.3       0 UNK        -0.1800 
      2 C           0.9707  -11.7209  -45.7089 C.2       0 UNK         0.5000 
      3 O           1.7038  -12.2174  -44.8507 O.2       0 UNK        -0.5000 
      4 N           1.2776  -11.6977  -47.0143 N.am      1 UNK        -0.5000 
      5 CA          2.4395  -12.3373  -47.6602 C.3       1 UNK         0.1400 
      6 C6          2.3839  -13.8891  -47.5901 C.3       23 UNK        -0.0398 
      7 S7          0.8875  -14.5743  -48.3789 S.3       23 UNK        -0.2404 
      8 C8          1.6051  -15.5266  -49.7487 C.3       23 UNK        -0.0205 
      9 C9          0.5287  -16.2715  -50.5218 C.ar      23 UNK        -0.0193 
     10 C10        -0.0872  -15.6768  -51.6258 C.ar      23 UNK        -0.1150 
     11 C11        -1.0592  -16.3698  -52.3522 C.ar      23 UNK        -0.0193 
     12 C12        -1.4152  -17.6653  -51.9663 C.ar      23 UNK        -0.1150 
     13 C13        -0.8073  -18.2752  -50.8652 C.ar      23 UNK        -0.0193 
     14 C14         0.1580  -17.5641  -50.1412 C.ar      23 UNK        -0.1150 
     15 C15        -1.2173  -19.6915  -50.4705 C.3       23 UNK        -0.0205 
     16 S16         0.2043  -20.8179  -50.2737 S.3       23 UNK        -0.2404 
     17 C17         0.5302  -20.6518  -48.4828 C.3       23 UNK        -0.0398 
     18 CA          0.2289  -21.9152  -47.6420 C.3       11 UNK         0.1400 
     19 N           0.5185  -21.6793  -46.2274 N.am      11 UNK        -0.5000 
     20 C           0.5128  -22.6132  -45.2670 C.2       10 UNK         0.5000 
     21 O           0.3121  -23.8102  -45.4734 O.2       10 UNK        -0.5000 
     22 CA          0.7162  -22.1127  -43.8254 C.3       10 UNK         0.1400 
     23 CB          2.1995  -21.8248  -43.5511 C.3       10 UNK        -0.1800 
     24 N          -0.0815  -20.9209  -43.5266 N.am      10 UNK        -0.5000 
     25 C          -1.4223  -20.8864  -43.5433 C.2       9 UNK         0.5000 
     26 O          -2.1287  -21.8659  -43.7789 O.2       9 UNK        -0.5000 
     27 CA         -2.0897  -19.5226  -43.2992 C.3       9 UNK         0.1400 
     28 CB         -2.1148  -19.1860  -41.8009 C.3       9 UNK        -0.1800 
     29 N          -1.4445  -18.4368  -44.0352 N.am      9 UNK        -0.5000 
     30 C          -1.3737  -18.3505  -45.3717 C.2       8 UNK         0.5000 
     31 O          -1.8631  -19.1738  -46.1432 O.2       8 UNK        -0.5000 
     32 CA         -0.5684  -17.1700  -45.9384 C.3       8 UNK         0.1400 
     33 CB         -1.3594  -15.8578  -45.8013 C.3       8 UNK        -0.1800 
     34 N           0.7349  -17.0484  -45.2828 N.am      8 UNK        -0.5000 
     35 C           1.7061  -17.9728  -45.3460 C.2       7 UNK         0.5000 
     36 O           1.6272  -19.0065  -46.0077 O.2       7 UNK        -0.5000 
     37 CA          2.9591  -17.7255  -44.4881 C.3       7 UNK         0.1400 
     38 CB          4.0023  -16.9187  -45.2734 C.3       7 UNK        -0.1800 
     39 N           2.6451  -17.0465  -43.2298 N.am      7 UNK        -0.5000 
     40 C           1.9534  -17.6089  -42.2275 C.2       6 UNK         0.5000 
     41 O           1.5478  -18.7717  -42.2418 O.2       6 UNK        -0.5000 
     42 CA          1.5998  -16.6890  -41.0465 C.3       6 UNK         0.1400 
     43 CB          2.8041  -16.5080  -40.1109 C.3       6 UNK        -0.1800 
     44 N           1.1167  -15.3831  -41.5058 N.am      6 UNK        -0.5000 
     45 C          -0.0569  -15.2086  -42.1339 C.2       5 UNK         0.5000 
     46 O          -0.8301  -16.1386  -42.3635 O.2       5 UNK        -0.5000 
     47 CA         -0.4193  -13.8030  -42.6568 C.3       5 UNK         0.1400 
     48 CB         -1.8872  -13.4282  -42.3675 C.3       5 UNK        -0.1800 
     49 N           0.5009  -12.7391  -42.2491 N.am      5 UNK        -0.5000 
     50 C           0.6844  -12.2234  -41.0251 C.2       4 UNK         0.5000 
     51 O           0.0397  -12.5640  -40.0322 O.2       4 UNK        -0.5000 
     52 CA          1.8043  -11.1643  -40.8984 C.3       4 UNK         0.1400 
     53 CB          2.3255  -11.0245  -39.4529 C.3       4 UNK        -0.1800 
     54 N           2.9290  -11.3759  -41.8231 N.am      4 UNK        -0.5000 
     55 C           3.6847  -12.4803  -41.9341 C.2       3 UNK         0.5000 
     56 O           3.4874  -13.5048  -41.2796 O.2       3 UNK        -0.5000 
     57 CA          4.8205  -12.4475  -42.9719 C.3       3 UNK         0.1400 
     58 CB          5.1039  -13.8391  -43.5652 C.3       3 UNK        -0.1800 
     59 N           4.5123  -11.5257  -44.0646 N.am      3 UNK        -0.5000 
     60 C           5.3830  -10.6864  -44.6422 C.2       2 UNK         0.5000 
     61 O           6.5361  -10.5223  -44.2393 O.2       2 UNK        -0.5000 
     62 CA          4.8801   -9.8998  -45.8768 C.3       2 UNK         0.1400 
     63 CB          6.0163   -9.5251  -46.8515 C.3       2 UNK        -0.1800 
     64 N           3.7814  -10.5694  -46.5859 N.am      2 UNK        -0.5000 
     65 C           3.7991  -11.7828  -47.1634 C.2       1 UNK         0.5000 
     66 O           4.8193  -12.4619  -47.2874 O.2       1 UNK        -0.5000 
     67 C          -1.2081  -22.4421  -47.8395 C.2       11 UNK         0.5000 
     68 O          -1.3872  -23.4556  -48.5132 O.2       11 UNK        -0.5000 
     69 N          -2.1971  -21.7820  -47.2190 N.am      12 UNK        -0.5000 
     70 CA         -3.6049  -22.1794  -47.2587 C.3       12 UNK         0.1400 
     71 CB         -4.4680  -21.1263  -46.5499 C.3       12 UNK        -0.1800 
     72 C          -3.8514  -23.5774  -46.6665 C.2       12 UNK         0.5000 
     73 O          -4.6053  -24.3507  -47.2553 O.2       12 UNK        -0.5000 
     74 N          -3.1852  -23.8932  -45.5472 N.am      13 UNK        -0.5000 
     75 CA         -3.2099  -25.2107  -44.9128 C.3       13 UNK         0.1400 
     76 CB         -2.5043  -25.1473  -43.5499 C.3       13 UNK        -0.1800 
     77 C          -2.5940  -26.3046  -45.8032 C.2       13 UNK         0.5000 
     78 O          -3.2047  -27.3609  -45.9683 O.2       13 UNK        -0.5000 
     79 N          -1.4258  -26.0197  -46.3975 N.am      14 UNK        -0.5000 
     80 CA         -0.7306  -26.9068  -47.3354 C.3       14 UNK         0.1400 
     81 CB          0.6582  -26.3317  -47.6520 C.3       14 UNK        -0.1800 
     82 C          -1.5264  -27.1578  -48.6312 C.2       14 UNK         0.5000 
     83 O          -1.5354  -28.2816  -49.1342 O.2       14 UNK        -0.5000 
     84 N          -2.2098  -26.1168  -49.1227 N.am      15 UNK        -0.5000 
     85 CA         -3.1052  -26.1584  -50.2789 C.3       15 UNK         0.1400 
     86 CB         -3.2490  -24.7342  -50.8403 C.3       15 UNK        -0.1800 
     87 C          -4.4946  -26.7524  -49.9673 C.2       15 UNK         0.5000 
     88 O          -5.3098  -26.8569  -50.8835 O.2       15 UNK        -0.5000 
     89 N          -4.7664  -27.0887  -48.6959 N.am      16 UNK        -0.5000 
     90 CA         -6.0319  -27.6102  -48.1627 C.3       16 UNK         0.1400 
     91 CB         -6.2724  -29.0496  -48.6623 C.3       16 UNK        -0.1800 
     92 C          -7.2301  -26.6712  -48.4284 C.2       16 UNK         0.5000 
     93 O          -8.3305  -27.1358  -48.7312 O.2       16 UNK        -0.5000 
     94 N          -6.9695  -25.3584  -48.3397 N.am      17 UNK        -0.5000 
     95 CA         -7.8601  -24.2323  -48.6386 C.3       17 UNK         0.1400 
     96 CB         -9.0540  -24.2013  -47.6623 C.3       17 UNK        -0.1800 
     97 C          -8.2982  -24.1437  -50.1190 C.2       17 UNK         0.5000 
     98 O          -9.2642  -23.4413  -50.4213 O.2       17 UNK        -0.5000 
     99 N          -7.5786  -24.8268  -51.0192 N.am      18 UNK        -0.5000 
    100 CA        -7.8509  -24.8950  -52.4533 C.3       18 UNK         0.1400 
    101 CB        -8.2561  -26.3359  -52.8154 C.3       18 UNK        -0.1800 
    102 C         -6.6328  -24.3930  -53.2493 C.2       18 UNK         0.5000 
    103 O         -6.2008  -25.0434  -54.2033 O.2       18 UNK        -0.5000 
    104 N         -6.0922  -23.2360  -52.8400 N.am      19 UNK        -0.5000 
    105 CA        -5.0219  -22.5257  -53.5437 C.3       19 UNK         0.1400 
    106 CB        -4.4993  -21.3856  -52.6548 C.3       19 UNK        -0.1800 
    107 C         -5.5060  -21.9851  -54.9040 C.2       19 UNK         0.5000 
    108 O         -6.6638  -21.5780  -55.0271 O.2       19 UNK        -0.5000 
    109 N         -4.6087  -21.9799  -55.8961 N.am      20 UNK        -0.5000 
    110 CA        -4.9116  -21.6402  -57.2908 C.3       20 UNK         0.1400 
    111 CB        -3.9703  -22.4425  -58.2057 C.3       20 UNK        -0.1800 
    112 C         -4.8624  -20.1285  -57.6036 C.2       20 UNK         0.5000 
    113 O         -5.0181  -19.7590  -58.7680 O.2       20 UNK        -0.5000 
    114 N         -4.6567  -19.2904  -56.5750 N.am      21 UNK        -0.5000 
    115 CA        -4.5711  -17.8250  -56.6168 C.3       21 UNK         0.1400 
    116 CB        -5.9356  -17.2192  -57.0119 C.3       21 UNK        -0.1800 
    117 C         -3.4084  -17.3189  -57.5091 C.2       21 UNK         0.5000 
    118 O         -3.6650  -16.7241  -58.5560 O.2       21 UNK        -0.5000 
    119 N         -2.1359  -17.5318  -57.1421 N.am      22 UNK        -0.5000 
    120 CA        -1.6328  -18.2114  -55.9328 C.3       22 UNK         0.1400 
    121 C         -1.3138  -19.7166  -56.1526 C.2       22 UNK         0.5000 
    122 N         -1.1832  -20.1923  -57.3841 N.am      22 UNK        -0.7600 
    123 O         -1.2128  -20.4694  -55.1892 O.2       22 UNK        -0.5000 
    124 C124       -0.3923  -17.4888  -55.3465 C.3       23 UNK        -0.0398 
    125 S125       -0.6544  -15.7078  -55.0246 S.3       23 UNK        -0.2404 
    126 C126       -1.7276  -15.7184  -53.5526 C.3       23 UNK        -0.0205 
    127 H127       -0.7429  -10.4366  -46.0854 H         1 UNK         0.0600 
    128 H128       -0.1888  -10.4488  -44.4096 H         1 UNK         0.0600 
    129 H129       -1.0785  -11.8319  -45.0561 H         1 UNK         0.0600 
    130 H130        0.6297  -11.2594  -47.6542 H         1 UNK         0.3000 
    131 H131        2.3884  -12.0570  -48.7134 H         1 UNK         0.0600 
    132 H132        2.4011  -14.2210  -46.5521 H         1 UNK         0.0800 
    133 H133        3.2609  -14.3337  -48.0633 H         1 UNK         0.0800 
    134 H134        2.3356  -16.2357  -49.3556 H         1 UNK         0.0800 
    135 H135        2.1500  -14.8545  -50.4135 H         1 UNK         0.0800 
    136 H136        0.1934  -14.6764  -51.9245 H         1 UNK         0.1150 
    137 H137       -2.1657  -18.2022  -52.5293 H         1 UNK         0.1150 
    138 H138        0.6380  -18.0139  -49.2858 H         1 UNK         0.1150 
    139 H139       -1.8136  -19.6586  -49.5576 H         1 UNK         0.0800 
    140 H140       -1.8668  -20.1201  -51.2352 H         1 UNK         0.0800 
    141 H141       -0.0303  -19.8067  -48.0828 H         1 UNK         0.0800 
    142 H142        1.5820  -20.3859  -48.3696 H         1 UNK         0.0800 
    143 H143        0.9061  -22.7029  -47.9789 H         1 UNK         0.0600 
    144 H144        0.7294  -20.7185  -45.9728 H         1 UNK         0.3000 
    145 H145        0.3933  -22.9071  -43.1495 H         1 UNK         0.0600 
    146 H146        2.3589  -21.5339  -42.5126 H         1 UNK         0.0600 
    147 H147        2.5780  -21.0227  -44.1848 H         1 UNK         0.0600 
    148 H148        2.8099  -22.7088  -43.7394 H         1 UNK         0.0600 
    149 H149        0.4282  -20.0793  -43.2760 H         1 UNK         0.3000 
    150 H150       -3.1218  -19.5914  -43.6485 H         1 UNK         0.0600 
    151 H151       -2.6013  -19.9777  -41.2299 H         1 UNK         0.0600 
    152 H152       -2.6659  -18.2641  -41.6145 H         1 UNK         0.0600 
    153 H153       -1.1090  -19.0593  -41.3989 H         1 UNK         0.0600 
    154 H154       -1.0443  -17.6908  -43.4729 H         1 UNK         0.3000 
    155 H155       -0.3897  -17.3517  -47.0003 H         1 UNK         0.0600 
    156 H156       -1.7415  -15.7092  -44.7923 H         1 UNK         0.0600 
    157 H157       -2.2196  -15.8602  -46.4716 H         1 UNK         0.0600 
    158 H158       -0.7535  -14.9893  -46.0548 H         1 UNK         0.0600 
    159 H159        0.8769  -16.2439  -44.6940 H         1 UNK         0.3000 
    160 H160        3.3960  -18.6970  -44.2482 H         1 UNK         0.0600 
    161 H161        3.6213  -15.9416  -45.5658 H         1 UNK         0.0600 
    162 H162        4.2898  -17.4416  -46.1865 H         1 UNK         0.0600 
    163 H163        4.9092  -16.7675  -44.6877 H         1 UNK         0.0600 
    164 H164        2.9421  -16.0870  -43.1328 H         1 UNK         0.3000 
    165 H165        0.7996  -17.1663  -40.4767 H         1 UNK         0.0600 
    166 H166        2.5597  -15.8517  -39.2754 H         1 UNK         0.0600 
    167 H167        3.1176  -17.4654  -39.6933 H         1 UNK         0.0600 
    168 H168        3.6629  -16.0825  -40.6307 H         1 UNK         0.0600 
    169 H169        1.7329  -14.5900  -41.3612 H         1 UNK         0.3000 
    170 H170       -0.3148  -13.8680  -43.7397 H         1 UNK         0.0600 
    171 H171       -2.5711  -14.1327  -42.8422 H         1 UNK         0.0600 
    172 H172       -2.1066  -13.4360  -41.2998 H         1 UNK         0.0600 
    173 H173       -2.1260  -12.4373  -42.7532 H         1 UNK         0.0600 
    174 H174        1.1056  -12.4057  -42.9944 H         1 UNK         0.3000 
    175 H175        1.3504  -10.2131  -41.1797 H         1 UNK         0.0600 
    176 H176        2.7457  -11.9605  -39.0834 H         1 UNK         0.0600 
    177 H177        3.0993  -10.2599  -39.3851 H         1 UNK         0.0600 
    178 H178        1.5247  -10.7333  -38.7722 H         1 UNK         0.0600 
    179 H179        3.1589  -10.5942  -42.4201 H         1 UNK         0.3000 
    180 H180        5.7098  -12.1122  -42.4351 H         1 UNK         0.0600 
    181 H181        5.9195  -13.8026  -44.2875 H         1 UNK         0.0600 
    182 H182        4.2237  -14.2288  -44.0752 H         1 UNK         0.0600 
    183 H183        5.3874  -14.5542  -42.7919 H         1 UNK         0.0600 
    184 H184        3.5807  -11.6169  -44.4594 H         1 UNK         0.3000 
    185 H185        4.4646   -8.9696  -45.4869 H         1 UNK         0.0600 
    186 H186        6.5390  -10.4064  -47.2242 H         1 UNK         0.0600 
    187 H187        5.6334   -8.9737  -47.7102 H         1 UNK         0.0600 
    188 H188        6.7565   -8.8895  -46.3644 H         1 UNK         0.0600 
    189 H189        2.8882  -10.0990  -46.5435 H         1 UNK         0.3000 
    190 H190       -1.9819  -20.9330  -46.7005 H         1 UNK         0.3000 
    191 H191       -3.9059  -22.2104  -48.3078 H         1 UNK         0.0600 
    192 H192       -4.3694  -20.1511  -47.0269 H         1 UNK         0.0600 
    193 H193       -4.1879  -21.0158  -45.5021 H         1 UNK         0.0600 
    194 H194       -5.5236  -21.3993  -46.5822 H         1 UNK         0.0600 
    195 H195       -2.6248  -23.1784  -45.0905 H         1 UNK         0.3000 
    196 H196       -4.2550  -25.4752  -44.7388 H         1 UNK         0.0600 
    197 H197       -2.9971  -24.4375  -42.8853 H         1 UNK         0.0600 
    198 H198       -1.4620  -24.8430  -43.6477 H         1 UNK         0.0600 
    199 H199       -2.5188  -26.1197  -43.0562 H         1 UNK         0.0600 
    200 H200       -0.9718  -25.1346  -46.1899 H         1 UNK         0.3000 
    201 H201       -0.5936  -27.8705  -46.8408 H         1 UNK         0.0600 
    202 H202        1.2572  -26.2287  -46.7471 H         1 UNK         0.0600 
    203 H203        0.5900  -25.3494  -48.1204 H         1 UNK         0.0600 
    204 H204        1.2061  -26.9841  -48.3330 H         1 UNK         0.0600 
    205 H205       -2.0817  -25.2056  -48.6884 H         1 UNK         0.3000 
    206 H206       -2.6505  -26.7832  -51.0501 H         1 UNK         0.0600 
    207 H207       -3.7389  -24.0692  -50.1281 H         1 UNK         0.0600 
    208 H208       -2.2779  -24.3044  -51.0865 H         1 UNK         0.0600 
    209 H209       -3.8422  -24.7342  -51.7544 H         1 UNK         0.0600 
    210 H210       -4.0426  -26.9337  -48.0053 H         1 UNK         0.3000 
    211 H211       -5.9123  -27.6507  -47.0792 H         1 UNK         0.0600 
    212 H212       -6.4513  -29.0801  -49.7376 H         1 UNK         0.0600 
    213 H213       -7.1397  -29.4943  -48.1731 H         1 UNK         0.0600 
    214 H214       -5.4162  -29.6888  -48.4463 H         1 UNK         0.0600 
    215 H215       -6.0308  -25.0883  -48.0454 H         1 UNK         0.3000 
    216 H216       -7.2669  -23.3356  -48.4539 H         1 UNK         0.0600 
    217 H217       -9.6248  -23.2783  -47.7696 H         1 UNK         0.0600 
    218 H218       -8.7175  -24.2530  -46.6269 H         1 UNK         0.0600 
    219 H219       -9.7407  -25.0303  -47.8347 H         1 UNK         0.0600 
    220 H220       -6.7951  -25.3883  -50.7031 H         1 UNK         0.3000 
    221 H221       -8.6814  -24.2390  -52.7209 H         1 UNK         0.0600 
    222 H222       -7.4499  -27.0426  -52.6153 H         1 UNK         0.0600 
    223 H223       -9.1274  -26.6541  -52.2428 H         1 UNK         0.0600 
    224 H224       -8.5140  -26.4184  -53.8718 H         1 UNK         0.0600 
    225 H225       -6.5247  -22.7527  -52.0671 H         1 UNK         0.3000 
    226 H226       -4.2054  -23.2294  -53.7186 H         1 UNK         0.0600 
    227 H227       -4.1247  -21.7664  -51.7042 H         1 UNK         0.0600 
    228 H228       -3.6751  -20.8593  -53.1386 H         1 UNK         0.0600 
    229 H229       -5.2777  -20.6523  -52.4402 H         1 UNK         0.0600 
    230 H230       -3.6654  -22.2905  -55.7091 H         1 UNK         0.3000 
    231 H231       -5.9304  -21.9636  -57.5149 H         1 UNK         0.0600 
    232 H232       -4.1767  -22.2467  -59.2587 H         1 UNK         0.0600 
    233 H233       -4.0936  -23.5144  -58.0502 H         1 UNK         0.0600 
    234 H234       -2.9247  -22.1986  -58.0251 H         1 UNK         0.0600 
    235 H235       -4.5472  -19.7118  -55.6647 H         1 UNK         0.3000 
    236 H236       -4.3807  -17.4804  -55.6008 H         1 UNK         0.0600 
    237 H237       -6.2292  -17.4886  -58.0268 H         1 UNK         0.0600 
    238 H238       -6.7239  -17.5534  -56.3374 H         1 UNK         0.0600 
    239 H239       -5.9059  -16.1301  -56.9608 H         1 UNK         0.0600 
    240 H240       -1.4127  -17.1766  -57.7489 H         1 UNK         0.3000 
    241 H241       -2.3911  -18.1905  -55.1530 H         1 UNK         0.0600 
    242 H242       -0.9580  -21.1652  -57.5163 H         1 UNK         0.3800 
    243 H243       -1.2836  -19.5890  -58.1851 H         1 UNK         0.3800 
    244 H244        0.4474  -17.5708  -56.0389 H         1 UNK         0.0800 
    245 H245       -0.0596  -17.9700  -54.4256 H         1 UNK         0.0800 
    246 H246       -2.6696  -16.2145  -53.7894 H         1 UNK         0.0800 
    247 H247       -1.9870  -14.6886  -53.3026 H         1 UNK         0.0800 
@<TRIPOS>BOND
     1    1    2 1    
     2    1  127 1    
     3    1  128 1    
     4    1  129 1    
     5    2    3 2    
     6    2    4 am   BACKBONE|DICT|INTERRES
     7    4    5 1    
     8    4  130 1    
     9    5    6 1    
    10    5   65 1    
    11    5  131 1    
    12    6    7 1    
    13    6  132 1    
    14    6  133 1    
    15    7    8 1    
    16    8    9 1    
    17    8  134 1    
    18    8  135 1    
    19    9   10 ar   
    20    9   14 ar   
    21   10   11 ar   
    22   10  136 1    
    23   11   12 ar   
    24   11  126 1    
    25   12   13 ar   
    26   12  137 1    
    27   13   14 ar   
    28   13   15 1    
    29   14  138 1    
    30   15   16 1    
    31   15  139 1    
    32   15  140 1    
    33   16   17 1    
    34   17   18 1    
    35   17  141 1    
    36   17  142 1    
    37   18   19 1    
    38   18   67 1    
    39   18  143 1    
    40   19   20 am   BACKBONE|DICT|INTERRES
    41   19  144 1    
    42   20   21 2    
    43   20   22 1    
    44   22   23 1    
    45   22   24 1    
    46   22  145 1    
    47   23  146 1    
    48   23  147 1    
    49   23  148 1    
    50   24   25 am   BACKBONE|DICT|INTERRES
    51   24  149 1    
    52   25   26 2    
    53   25   27 1    
    54   27   28 1    
    55   27   29 1    
    56   27  150 1    
    57   28  151 1    
    58   28  152 1    
    59   28  153 1    
    60   29   30 am   BACKBONE|DICT|INTERRES
    61   29  154 1    
    62   30   31 2    
    63   30   32 1    
    64   32   33 1    
    65   32   34 1    
    66   32  155 1    
    67   33  156 1    
    68   33  157 1    
    69   33  158 1    
    70   34   35 am   BACKBONE|DICT|INTERRES
    71   34  159 1    
    72   35   36 2    
    73   35   37 1    
    74   37   38 1    
    75   37   39 1    
    76   37  160 1    
    77   38  161 1    
    78   38  162 1    
    79   38  163 1    
    80   39   40 am   BACKBONE|DICT|INTERRES
    81   39  164 1    
    82   40   41 2    
    83   40   42 1    
    84   42   43 1    
    85   42   44 1    
    86   42  165 1    
    87   43  166 1    
    88   43  167 1    
    89   43  168 1    
    90   44   45 am   BACKBONE|DICT|INTERRES
    91   44  169 1    
    92   45   46 2    
    93   45   47 1    
    94   47   48 1    
    95   47   49 1    
    96   47  170 1    
    97   48  171 1    
    98   48  172 1    
    99   48  173 1    
   100   49   50 am   BACKBONE|DICT|INTERRES
   101   49  174 1    
   102   50   51 2    
   103   50   52 1    
   104   52   53 1    
   105   52   54 1    
   106   52  175 1    
   107   53  176 1    
   108   53  177 1    
   109   53  178 1    
   110   54   55 am   BACKBONE|DICT|INTERRES
   111   54  179 1    
   112   55   56 2    
   113   55   57 1    
   114   57   58 1    
   115   57   59 1    
   116   57  180 1    
   117   58  181 1    
   118   58  182 1    
   119   58  183 1    
   120   59   60 am   BACKBONE|DICT|INTERRES
   121   59  184 1    
   122   60   61 2    
   123   60   62 1    
   124   62   63 1    
   125   62   64 1    
   126   62  185 1    
   127   63  186 1    
   128   63  187 1    
   129   63  188 1    
   130   64   65 am   BACKBONE|DICT|INTERRES
   131   64  189 1    
   132   65   66 2    
   133   67   68 2    
   134   67   69 am   BACKBONE|DICT|INTERRES
   135   69   70 1    
   136   69  190 1    
   137   70   71 1    
   138   70   72 1    
   139   70  191 1    
   140   71  192 1    
   141   71  193 1    
   142   71  194 1    
   143   72   73 2    
   144   72   74 am   BACKBONE|DICT|INTERRES
   145   74   75 1    
   146   74  195 1    
   147   75   76 1    
   148   75   77 1    
   149   75  196 1    
   150   76  197 1    
   151   76  198 1    
   152   76  199 1    
   153   77   78 2    
   154   77   79 am   BACKBONE|DICT|INTERRES
   155   79   80 1    
   156   79  200 1    
   157   80   81 1    
   158   80   82 1    
   159   80  201 1    
   160   81  202 1    
   161   81  203 1    
   162   81  204 1    
   163   82   83 2    
   164   82   84 am   BACKBONE|DICT|INTERRES
   165   84   85 1    
   166   84  205 1    
   167   85   86 1    
   168   85   87 1    
   169   85  206 1    
   170   86  207 1    
   171   86  208 1    
   172   86  209 1    
   173   87   88 2    
   174   87   89 am   BACKBONE|DICT|INTERRES
   175   89   90 1    
   176   89  210 1    
   177   90   91 1    
   178   90   92 1    
   179   90  211 1    
   180   91  212 1    
   181   91  213 1    
   182   91  214 1    
   183   92   93 2    
   184   92   94 am   BACKBONE|DICT|INTERRES
   185   94   95 1    
   186   94  215 1    
   187   95   96 1    
   188   95   97 1    
   189   95  216 1    
   190   96  217 1    
   191   96  218 1    
   192   96  219 1    
   193   97   98 2    
   194   97   99 am   BACKBONE|DICT|INTERRES
   195   99  100 1    
   196   99  220 1    
   197  100  101 1    
   198  100  102 1    
   199  100  221 1    
   200  101  222 1    
   201  101  223 1    
   202  101  224 1    
   203  102  103 2    
   204  102  104 am   BACKBONE|DICT|INTERRES
   205  104  105 1    
   206  104  225 1    
   207  105  106 1    
   208  105  107 1    
   209  105  226 1    
   210  106  227 1    
   211  106  228 1    
   212  106  229 1    
   213  107  108 2    
   214  107  109 am   BACKBONE|DICT|INTERRES
   215  109  110 1    
   216  109  230 1    
   217  110  111 1    
   218  110  112 1    
   219  110  231 1    
   220  111  232 1    
   221  111  233 1    
   222  111  234 1    
   223  112  113 2    
   224  112  114 am   BACKBONE|DICT|INTERRES
   225  114  115 1    
   226  114  235 1    
   227  115  116 1    
   228  115  117 1    
   229  115  236 1    
   230  116  237 1    
   231  116  238 1    
   232  116  239 1    
   233  117  118 2    
   234  117  119 am   BACKBONE|DICT|INTERRES
   235  119  120 1    
   236  119  240 1    
   237  120  121 1    
   238  120  124 1    
   239  120  241 1    
   240  121  122 am   BACKBONE|DICT|INTERRES
   241  121  123 2    
   242  122  242 1    
   243  122  243 1    
   244  124  125 1    
   245  124  244 1    
   246  124  245 1    
   247  125  126 1    
   248  126  246 1    
   249  126  247 1    
@<TRIPOS>SUBSTRUCTURE
     1 UNK         1 GROUP             0       ****    0 ROOT    
