@<TRIPOS>MOLECULE
3R540
247   249    1
SMALL
USER_CHARGES


@<TRIPOS>ATOM
      1 CA          2.1499   -8.1649  -49.2393 C.3       0 UNK        -0.1800 
      2 C           2.0117   -9.4938  -48.5102 C.2       0 UNK         0.5000 
      3 O           1.7195   -9.5098  -47.3137 O.2       0 UNK        -0.5000 
      4 N           2.2208  -10.6081  -49.2226 N.am      1 UNK        -0.5000 
      5 CA          2.0882  -11.9737  -48.7096 C.3       1 UNK         0.1400 
      6 C6          2.9831  -12.9603  -49.5000 C.3       23 UNK        -0.0398 
      7 S7          3.3549  -14.4769  -48.5536 S.3       23 UNK        -0.2404 
      8 C8          3.8013  -15.6283  -49.8896 C.3       23 UNK        -0.0205 
      9 C9          2.6656  -16.5773  -50.2476 C.ar      23 UNK        -0.0193 
     10 C10         1.4846  -16.0955  -50.8214 C.ar      23 UNK        -0.1150 
     11 C11         0.4659  -16.9733  -51.2036 C.ar      23 UNK        -0.0193 
     12 C12         0.6359  -18.3451  -51.0009 C.ar      23 UNK        -0.1150 
     13 C13         1.7992  -18.8402  -50.4087 C.ar      23 UNK        -0.0193 
     14 C14         2.8117  -17.9519  -50.0366 C.ar      23 UNK        -0.1150 
     15 C15         1.9714  -20.3343  -50.1897 C.3       23 UNK        -0.0205 
     16 S16         1.8285  -20.7688  -48.4305 S.3       23 UNK        -0.2404 
     17 C17         2.1876  -22.5558  -48.5040 C.3       23 UNK        -0.0398 
     18 CA          1.3858  -23.4288  -47.5046 C.3       11 UNK         0.1400 
     19 N           1.5906  -23.0127  -46.1128 N.am      11 UNK        -0.5000 
     20 C           1.6790  -23.8420  -45.0649 C.2       10 UNK         0.5000 
     21 O           1.4999  -25.0576  -45.1579 O.2       10 UNK        -0.5000 
     22 CA          1.9822  -23.2129  -43.6897 C.3       10 UNK         0.1400 
     23 CB          2.6219  -24.2058  -42.6976 C.3       10 UNK        -0.1800 
     24 N           2.7658  -21.9787  -43.7735 N.am      10 UNK        -0.5000 
     25 C           4.0214  -21.8051  -44.2097 C.2       9 UNK         0.5000 
     26 O           4.7464  -22.7163  -44.6101 O.2       9 UNK        -0.5000 
     27 CA          4.5589  -20.3570  -44.1989 C.3       9 UNK         0.1400 
     28 CB          4.5377  -19.7670  -45.6178 C.3       9 UNK        -0.1800 
     29 N           3.8083  -19.4687  -43.3055 N.am      9 UNK        -0.5000 
     30 C           3.8483  -19.5127  -41.9658 C.2       8 UNK         0.5000 
     31 O           4.6120  -20.2383  -41.3281 O.2       8 UNK        -0.5000 
     32 CA          2.8276  -18.6354  -41.2139 C.3       8 UNK         0.1400 
     33 CB          3.3490  -17.2004  -41.0446 C.3       8 UNK        -0.1800 
     34 N           1.5182  -18.6141  -41.8721 N.am      8 UNK        -0.5000 
     35 C           0.7012  -19.6738  -41.9652 C.2       7 UNK         0.5000 
     36 O           0.9341  -20.7624  -41.4415 O.2       7 UNK        -0.5000 
     37 CA         -0.5642  -19.5150  -42.8251 C.3       7 UNK         0.1400 
     38 CB         -1.7164  -18.9227  -42.0007 C.3       7 UNK        -0.1800 
     39 N          -0.3333  -18.7013  -44.0192 N.am      7 UNK        -0.5000 
     40 C           0.4162  -19.0787  -45.0656 C.2       6 UNK         0.5000 
     41 O           0.9381  -20.1889  -45.1566 O.2       6 UNK        -0.5000 
     42 CA          0.6500  -18.0331  -46.1744 C.3       6 UNK         0.1400 
     43 CB         -0.4932  -18.0591  -47.1987 C.3       6 UNK        -0.1800 
     44 N           0.8107  -16.6796  -45.6404 N.am      6 UNK        -0.5000 
     45 C           1.8133  -16.3036  -44.8333 C.2       5 UNK         0.5000 
     46 O           2.7508  -17.0383  -44.5240 O.2       5 UNK        -0.5000 
     47 CA          1.7107  -14.9048  -44.2017 C.3       5 UNK         0.1400 
     48 CB          2.2736  -13.8233  -45.1337 C.3       5 UNK        -0.1800 
     49 N           0.3295  -14.5823  -43.8435 N.am      5 UNK        -0.5000 
     50 C          -0.3105  -15.0997  -42.7858 C.2       4 UNK         0.5000 
     51 O           0.2210  -15.8623  -41.9792 O.2       4 UNK        -0.5000 
     52 CA         -1.7984  -14.7324  -42.6182 C.3       4 UNK         0.1400 
     53 CB         -1.9433  -13.4134  -41.8450 C.3       4 UNK        -0.1800 
     54 N          -2.5069  -14.6228  -43.8948 N.am      4 UNK        -0.5000 
     55 C          -2.7604  -15.6543  -44.7130 C.2       3 UNK         0.5000 
     56 O          -2.4764  -16.8193  -44.4434 O.2       3 UNK        -0.5000 
     57 CA         -3.3840  -15.3268  -46.0857 C.3       3 UNK         0.1400 
     58 CB         -4.9159  -15.3968  -46.0102 C.3       3 UNK        -0.1800 
     59 N          -2.9812  -14.0238  -46.6284 N.am      3 UNK        -0.5000 
     60 C          -1.7147  -13.6484  -46.8557 C.2       2 UNK         0.5000 
     61 O          -0.7465  -14.3756  -46.6222 O.2       2 UNK        -0.5000 
     62 CA         -1.5076  -12.2045  -47.3560 C.3       2 UNK         0.1400 
     63 CB         -1.9992  -11.1890  -46.3094 C.3       2 UNK        -0.1800 
     64 N          -0.1037  -11.9122  -47.6396 N.am      2 UNK        -0.5000 
     65 C           0.5963  -12.3727  -48.6825 C.2       1 UNK         0.5000 
     66 O           0.1018  -13.0194  -49.6075 O.2       1 UNK        -0.5000 
     67 C          -0.1129  -23.5925  -47.8487 C.2       11 UNK         0.5000 
     68 O          -0.5779  -23.0760  -48.8638 O.2       11 UNK        -0.5000 
     69 N          -0.8358  -24.3372  -46.9973 N.am      12 UNK        -0.5000 
     70 CA         -2.2366  -24.7512  -47.1451 C.3       12 UNK         0.1400 
     71 CB         -2.3855  -25.7206  -48.3367 C.3       12 UNK        -0.1800 
     72 C          -3.2283  -23.5703  -47.2115 C.2       12 UNK         0.5000 
     73 O          -4.1439  -23.5786  -48.0385 O.2       12 UNK        -0.5000 
     74 N          -3.0250  -22.5737  -46.3363 N.am      13 UNK        -0.5000 
     75 CA         -3.8010  -21.3317  -46.2393 C.3       13 UNK         0.1400 
     76 CB         -3.2648  -20.4771  -45.0846 C.3       13 UNK        -0.1800 
     77 C          -5.3171  -21.5554  -46.1158 C.2       13 UNK         0.5000 
     78 O          -6.0650  -21.1399  -46.9998 O.2       13 UNK        -0.5000 
     79 N          -5.7328  -22.2478  -45.0496 N.am      14 UNK        -0.5000 
     80 CA         -7.1319  -22.6118  -44.8186 C.3       14 UNK         0.1400 
     81 CB         -7.3599  -22.7754  -43.3079 C.3       14 UNK        -0.1800 
     82 C          -7.5353  -23.8987  -45.5622 C.2       14 UNK         0.5000 
     83 O          -8.7139  -24.0753  -45.8715 O.2       14 UNK        -0.5000 
     84 N          -6.5600  -24.7843  -45.8070 N.am      15 UNK        -0.5000 
     85 CA         -6.7783  -26.1264  -46.3444 C.3       15 UNK         0.1400 
     86 CB         -5.5628  -27.0055  -46.0130 C.3       15 UNK        -0.1800 
     87 C          -7.0761  -26.1569  -47.8535 C.2       15 UNK         0.5000 
     88 O          -7.8730  -26.9921  -48.2838 O.2       15 UNK        -0.5000 
     89 N          -6.4333  -25.2753  -48.6310 N.am      16 UNK        -0.5000 
     90 CA         -6.5188  -25.2666  -50.0933 C.3       16 UNK         0.1400 
     91 CB         -5.4455  -26.2046  -50.6806 C.3       16 UNK        -0.1800 
     92 C          -6.4356  -23.8449  -50.6735 C.2       16 UNK         0.5000 
     93 O          -5.9927  -23.6858  -51.8110 O.2       16 UNK        -0.5000 
     94 N          -6.8527  -22.8364  -49.8918 N.am      17 UNK        -0.5000 
     95 CA         -6.8764  -21.4096  -50.2450 C.3       17 UNK         0.1400 
     96 CB         -7.9334  -21.1392  -51.3371 C.3       17 UNK        -0.1800 
     97 C          -5.4780  -20.8718  -50.6166 C.2       17 UNK         0.5000 
     98 O          -5.3084  -20.2452  -51.6642 O.2       17 UNK        -0.5000 
     99 N          -4.4903  -21.1860  -49.7658 N.am      18 UNK        -0.5000 
    100 CA        -3.0592  -20.8964  -49.9261 C.3       18 UNK         0.1400 
    101 CB        -2.8042  -19.3763  -49.8978 C.3       18 UNK        -0.1800 
    102 C         -2.4758  -21.6100  -51.1610 C.2       18 UNK         0.5000 
    103 O         -1.7398  -21.0117  -51.9480 O.2       18 UNK        -0.5000 
    104 N         -2.9036  -22.8705  -51.3387 N.am      19 UNK        -0.5000 
    105 CA        -2.6310  -23.7670  -52.4687 C.3       19 UNK         0.1400 
    106 CB        -1.1414  -24.1668  -52.4788 C.3       19 UNK        -0.1800 
    107 C         -3.1009  -23.2147  -53.8352 C.2       19 UNK         0.5000 
    108 O         -2.6333  -23.6846  -54.8736 O.2       19 UNK        -0.5000 
    109 N         -3.9872  -22.2059  -53.8076 N.am      20 UNK        -0.5000 
    110 CA        -4.4525  -21.3732  -54.9199 C.3       20 UNK         0.1400 
    111 CB        -5.2926  -22.2047  -55.9101 C.3       20 UNK        -0.1800 
    112 C         -3.3240  -20.5795  -55.6189 C.2       20 UNK         0.5000 
    113 O         -3.5241  -20.1006  -56.7369 O.2       20 UNK        -0.5000 
    114 N         -2.1646  -20.4300  -54.9573 N.am      21 UNK        -0.5000 
    115 CA        -0.9406  -19.8515  -55.5208 C.3       21 UNK         0.1400 
    116 CB         0.2214  -20.0907  -54.5455 C.3       21 UNK        -0.1800 
    117 C         -1.0559  -18.3558  -55.8664 C.2       21 UNK         0.5000 
    118 O         -0.3580  -17.8871  -56.7669 O.2       21 UNK        -0.5000 
    119 N         -1.9461  -17.6515  -55.1604 N.am      22 UNK        -0.5000 
    120 CA        -2.2831  -16.2368  -55.3802 C.3       22 UNK         0.1400 
    121 C         -3.6530  -16.0491  -56.0982 C.2       22 UNK         0.5000 
    122 N         -4.2798  -17.0930  -56.6312 N.am      22 UNK        -0.7600 
    123 O         -4.1554  -14.9325  -56.1919 O.2       22 UNK        -0.5000 
    124 C124       -2.1901  -15.4178  -54.0653 C.3       23 UNK        -0.0398 
    125 S125       -0.5160  -15.4830  -53.3361 S.3       23 UNK        -0.2404 
    126 C126       -0.8226  -16.4464  -51.8211 C.3       23 UNK        -0.0205 
    127 H127        1.2098   -7.6148  -49.1968 H         1 UNK         0.0600 
    128 H128        2.4164   -8.3027  -50.2875 H         1 UNK         0.0600 
    129 H129        2.9231   -7.5577  -48.7688 H         1 UNK         0.0600 
    130 H130        2.4267  -10.5295  -50.2085 H         1 UNK         0.3000 
    131 H131        2.4487  -11.9733  -47.6782 H         1 UNK         0.0600 
    132 H132        2.5528  -13.2003  -50.4726 H         1 UNK         0.0800 
    133 H133        3.9446  -12.4913  -49.7139 H         1 UNK         0.0800 
    134 H134        4.6776  -16.1929  -49.5678 H         1 UNK         0.0800 
    135 H135        4.1111  -15.0789  -50.7796 H         1 UNK         0.0800 
    136 H136        1.3545  -15.0361  -50.9831 H         1 UNK         0.1150 
    137 H137       -0.1384  -19.0332  -51.3048 H         1 UNK         0.1150 
    138 H138        3.7169  -18.3374  -49.5887 H         1 UNK         0.1150 
    139 H139        2.9482  -20.6440  -50.5639 H         1 UNK         0.0800 
    140 H140        1.2256  -20.8939  -50.7578 H         1 UNK         0.0800 
    141 H141        3.2537  -22.6791  -48.3096 H         1 UNK         0.0800 
    142 H142        2.0343  -22.9201  -49.5213 H         1 UNK         0.0800 
    143 H143        1.8006  -24.4332  -47.6148 H         1 UNK         0.0600 
    144 H144        1.6497  -22.0125  -45.9487 H         1 UNK         0.3000 
    145 H145        1.0145  -22.9213  -43.2799 H         1 UNK         0.0600 
    146 H146        2.8139  -23.7301  -41.7356 H         1 UNK         0.0600 
    147 H147        1.9626  -25.0544  -42.5122 H         1 UNK         0.0600 
    148 H148        3.5663  -24.6018  -43.0717 H         1 UNK         0.0600 
    149 H149        2.2557  -21.1400  -43.5315 H         1 UNK         0.3000 
    150 H150        5.5954  -20.3924  -43.8577 H         1 UNK         0.0600 
    151 H151        5.1137  -20.3837  -46.3088 H         1 UNK         0.0600 
    152 H152        4.9687  -18.7659  -45.6363 H         1 UNK         0.0600 
    153 H153        3.5226  -19.6995  -46.0089 H         1 UNK         0.0600 
    154 H154        3.2120  -18.7763  -43.7501 H         1 UNK         0.3000 
    155 H155        2.6933  -19.0627  -40.2179 H         1 UNK         0.0600 
    156 H156        4.2916  -17.1923  -40.4962 H         1 UNK         0.0600 
    157 H157        2.6418  -16.5869  -40.4860 H         1 UNK         0.0600 
    158 H158        3.5263  -16.7165  -42.0044 H         1 UNK         0.0600 
    159 H159        1.2251  -17.7347  -42.2810 H         1 UNK         0.3000 
    160 H160       -0.8642  -20.5127  -43.1517 H         1 UNK         0.0600 
    161 H161       -1.4864  -17.9180  -41.6477 H         1 UNK         0.0600 
    162 H162       -1.9252  -19.5380  -41.1248 H         1 UNK         0.0600 
    163 H163       -2.6345  -18.8692  -42.5854 H         1 UNK         0.0600 
    164 H164       -0.8203  -17.8120  -44.0642 H         1 UNK         0.3000 
    165 H165        1.5746  -18.2943  -46.6924 H         1 UNK         0.0600 
    166 H166       -1.4529  -17.8246  -46.7409 H         1 UNK         0.0600 
    167 H167       -0.3175  -17.3477  -48.0064 H         1 UNK         0.0600 
    168 H168       -0.5824  -19.0480  -47.6489 H         1 UNK         0.0600 
    169 H169        0.1091  -15.9909  -45.8947 H         1 UNK         0.3000 
    170 H170        2.3137  -14.9043  -43.2912 H         1 UNK         0.0600 
    171 H171        3.3193  -14.0222  -45.3713 H         1 UNK         0.0600 
    172 H172        1.7281  -13.7803  -46.0749 H         1 UNK         0.0600 
    173 H173        2.2255  -12.8372  -44.6718 H         1 UNK         0.0600 
    174 H174       -0.1939  -14.0408  -44.5176 H         1 UNK         0.3000 
    175 H175       -2.2721  -15.5239  -42.0336 H         1 UNK         0.0600 
    176 H176       -1.4407  -13.4708  -40.8785 H         1 UNK         0.0600 
    177 H177       -1.5093  -12.5751  -42.3917 H         1 UNK         0.0600 
    178 H178       -2.9910  -13.1826  -41.6518 H         1 UNK         0.0600 
    179 H179       -2.7790  -13.6970  -44.1895 H         1 UNK         0.3000 
    180 H180       -3.0459  -16.0896  -46.7890 H         1 UNK         0.0600 
    181 H181       -5.2439  -16.3664  -45.6326 H         1 UNK         0.0600 
    182 H182       -5.3221  -14.6316  -45.3477 H         1 UNK         0.0600 
    183 H183       -5.3664  -15.2645  -46.9941 H         1 UNK         0.0600 
    184 H184       -3.7276  -13.3752  -46.8332 H         1 UNK         0.3000 
    185 H185       -2.0837  -12.0765  -48.2746 H         1 UNK         0.0600 
    186 H186       -3.0667  -11.2973  -46.1149 H         1 UNK         0.0600 
    187 H187       -1.4773  -11.3065  -45.3586 H         1 UNK         0.0600 
    188 H188       -1.8412  -10.1656  -46.6510 H         1 UNK         0.0600 
    189 H189        0.3792  -11.3288  -46.9691 H         1 UNK         0.3000 
    190 H190       -0.3410  -24.7261  -46.2025 H         1 UNK         0.3000 
    191 H191       -2.4869  -25.3046  -46.2393 H         1 UNK         0.0600 
    192 H192       -2.2067  -25.2224  -49.2902 H         1 UNK         0.0600 
    193 H193       -3.3874  -26.1471  -48.3745 H         1 UNK         0.0600 
    194 H194       -1.6859  -26.5526  -48.2581 H         1 UNK         0.0600 
    195 H195       -2.2374  -22.6551  -45.7106 H         1 UNK         0.3000 
    196 H196       -3.6358  -20.7614  -47.1517 H         1 UNK         0.0600 
    197 H197       -3.8346  -19.5529  -44.9759 H         1 UNK         0.0600 
    198 H198       -2.2328  -20.1945  -45.2772 H         1 UNK         0.0600 
    199 H199       -3.2986  -21.0033  -44.1303 H         1 UNK         0.0600 
    200 H200       -5.0575  -22.5523  -44.3638 H         1 UNK         0.3000 
    201 H201       -7.7802  -21.8064  -45.1711 H         1 UNK         0.0600 
    202 H202       -8.4005  -23.0239  -43.0946 H         1 UNK         0.0600 
    203 H203       -6.7404  -23.5694  -42.8889 H         1 UNK         0.0600 
    204 H204       -7.1314  -21.8533  -42.7731 H         1 UNK         0.0600 
    205 H205       -5.6202  -24.5494  -45.5297 H         1 UNK         0.3000 
    206 H206       -7.6439  -26.5575  -45.8361 H         1 UNK         0.0600 
    207 H207       -5.4187  -27.0879  -44.9356 H         1 UNK         0.0600 
    208 H208       -5.6939  -28.0170  -46.3999 H         1 UNK         0.0600 
    209 H209       -4.6460  -26.6063  -46.4436 H         1 UNK         0.0600 
    210 H210       -5.7628  -24.6302  -48.2217 H         1 UNK         0.3000 
    211 H211       -7.4973  -25.6411  -50.4003 H         1 UNK         0.0600 
    212 H212       -5.5510  -26.2967  -51.7622 H         1 UNK         0.0600 
    213 H213       -5.5228  -27.2091  -50.2645 H         1 UNK         0.0600 
    214 H214       -4.4410  -25.8340  -50.4797 H         1 UNK         0.0600 
    215 H215       -7.1834  -23.0623  -48.9644 H         1 UNK         0.3000 
    216 H216       -7.1892  -20.8679  -49.3522 H         1 UNK         0.0600 
    217 H217       -8.0340  -20.0697  -51.5251 H         1 UNK         0.0600 
    218 H218       -8.9136  -21.5088  -51.0366 H         1 UNK         0.0600 
    219 H219       -7.6721  -21.6130  -52.2840 H         1 UNK         0.0600 
    220 H220       -4.7298  -21.7717  -48.9731 H         1 UNK         0.3000 
    221 H221       -2.5486  -21.3271  -49.0666 H         1 UNK         0.0600 
    222 H222       -3.1326  -18.8881  -50.8158 H         1 UNK         0.0600 
    223 H223       -3.3197  -18.9032  -49.0621 H         1 UNK         0.0600 
    224 H224       -1.7438  -19.1699  -49.7727 H         1 UNK         0.0600 
    225 H225       -3.5358  -23.2384  -50.6416 H         1 UNK         0.3000 
    226 H226       -3.2174  -24.6689  -52.2914 H         1 UNK         0.0600 
    227 H227       -0.9482  -24.9487  -53.2139 H         1 UNK         0.0600 
    228 H228       -0.4985  -23.3207  -52.7234 H         1 UNK         0.0600 
    229 H229       -0.8308  -24.5516  -51.5072 H         1 UNK         0.0600 
    230 H230       -4.3242  -21.9157  -52.8976 H         1 UNK         0.3000 
    231 H231       -5.1119  -20.6263  -54.4761 H         1 UNK         0.0600 
    232 H232       -6.0822  -22.7507  -55.3934 H         1 UNK         0.0600 
    233 H233       -4.6828  -22.9280  -56.4519 H         1 UNK         0.0600 
    234 H234       -5.7738  -21.5644  -56.6502 H         1 UNK         0.0600 
    235 H235       -2.0903  -20.8033  -54.0164 H         1 UNK         0.3000 
    236 H236       -0.7213  -20.3849  -56.4479 H         1 UNK         0.0600 
    237 H237        0.3458  -21.1518  -54.3287 H         1 UNK         0.0600 
    238 H238        1.1628  -19.7285  -54.9603 H         1 UNK         0.0600 
    239 H239        0.0597  -19.5729  -53.6005 H         1 UNK         0.0600 
    240 H240       -2.4832  -18.1347  -54.4560 H         1 UNK         0.3000 
    241 H241       -1.5574  -15.8011  -56.0691 H         1 UNK         0.0600 
    242 H242       -3.8693  -18.0187  -56.6172 H         1 UNK         0.3800 
    243 H243       -5.1610  -16.9494  -57.0987 H         1 UNK         0.3800 
    244 H244       -2.4186  -14.3674  -54.2526 H         1 UNK         0.0800 
    245 H245       -2.9305  -15.7639  -53.3426 H         1 UNK         0.0800 
    246 H246       -1.4930  -17.2747  -52.0553 H         1 UNK         0.0800 
    247 H247       -1.3387  -15.8197  -51.0924 H         1 UNK         0.0800 
@<TRIPOS>BOND
     1    1    2 1    
     2    1  127 1    
     3    1  128 1    
     4    1  129 1    
     5    2    3 2    
     6    2    4 am   BACKBONE|DICT|INTERRES
     7    4    5 1    
     8    4  130 1    
     9    5    6 1    
    10    5   65 1    
    11    5  131 1    
    12    6    7 1    
    13    6  132 1    
    14    6  133 1    
    15    7    8 1    
    16    8    9 1    
    17    8  134 1    
    18    8  135 1    
    19    9   10 ar   
    20    9   14 ar   
    21   10   11 ar   
    22   10  136 1    
    23   11   12 ar   
    24   11  126 1    
    25   12   13 ar   
    26   12  137 1    
    27   13   14 ar   
    28   13   15 1    
    29   14  138 1    
    30   15   16 1    
    31   15  139 1    
    32   15  140 1    
    33   16   17 1    
    34   17   18 1    
    35   17  141 1    
    36   17  142 1    
    37   18   19 1    
    38   18   67 1    
    39   18  143 1    
    40   19   20 am   BACKBONE|DICT|INTERRES
    41   19  144 1    
    42   20   21 2    
    43   20   22 1    
    44   22   23 1    
    45   22   24 1    
    46   22  145 1    
    47   23  146 1    
    48   23  147 1    
    49   23  148 1    
    50   24   25 am   BACKBONE|DICT|INTERRES
    51   24  149 1    
    52   25   26 2    
    53   25   27 1    
    54   27   28 1    
    55   27   29 1    
    56   27  150 1    
    57   28  151 1    
    58   28  152 1    
    59   28  153 1    
    60   29   30 am   BACKBONE|DICT|INTERRES
    61   29  154 1    
    62   30   31 2    
    63   30   32 1    
    64   32   33 1    
    65   32   34 1    
    66   32  155 1    
    67   33  156 1    
    68   33  157 1    
    69   33  158 1    
    70   34   35 am   BACKBONE|DICT|INTERRES
    71   34  159 1    
    72   35   36 2    
    73   35   37 1    
    74   37   38 1    
    75   37   39 1    
    76   37  160 1    
    77   38  161 1    
    78   38  162 1    
    79   38  163 1    
    80   39   40 am   BACKBONE|DICT|INTERRES
    81   39  164 1    
    82   40   41 2    
    83   40   42 1    
    84   42   43 1    
    85   42   44 1    
    86   42  165 1    
    87   43  166 1    
    88   43  167 1    
    89   43  168 1    
    90   44   45 am   BACKBONE|DICT|INTERRES
    91   44  169 1    
    92   45   46 2    
    93   45   47 1    
    94   47   48 1    
    95   47   49 1    
    96   47  170 1    
    97   48  171 1    
    98   48  172 1    
    99   48  173 1    
   100   49   50 am   BACKBONE|DICT|INTERRES
   101   49  174 1    
   102   50   51 2    
   103   50   52 1    
   104   52   53 1    
   105   52   54 1    
   106   52  175 1    
   107   53  176 1    
   108   53  177 1    
   109   53  178 1    
   110   54   55 am   BACKBONE|DICT|INTERRES
   111   54  179 1    
   112   55   56 2    
   113   55   57 1    
   114   57   58 1    
   115   57   59 1    
   116   57  180 1    
   117   58  181 1    
   118   58  182 1    
   119   58  183 1    
   120   59   60 am   BACKBONE|DICT|INTERRES
   121   59  184 1    
   122   60   61 2    
   123   60   62 1    
   124   62   63 1    
   125   62   64 1    
   126   62  185 1    
   127   63  186 1    
   128   63  187 1    
   129   63  188 1    
   130   64   65 am   BACKBONE|DICT|INTERRES
   131   64  189 1    
   132   65   66 2    
   133   67   68 2    
   134   67   69 am   BACKBONE|DICT|INTERRES
   135   69   70 1    
   136   69  190 1    
   137   70   71 1    
   138   70   72 1    
   139   70  191 1    
   140   71  192 1    
   141   71  193 1    
   142   71  194 1    
   143   72   73 2    
   144   72   74 am   BACKBONE|DICT|INTERRES
   145   74   75 1    
   146   74  195 1    
   147   75   76 1    
   148   75   77 1    
   149   75  196 1    
   150   76  197 1    
   151   76  198 1    
   152   76  199 1    
   153   77   78 2    
   154   77   79 am   BACKBONE|DICT|INTERRES
   155   79   80 1    
   156   79  200 1    
   157   80   81 1    
   158   80   82 1    
   159   80  201 1    
   160   81  202 1    
   161   81  203 1    
   162   81  204 1    
   163   82   83 2    
   164   82   84 am   BACKBONE|DICT|INTERRES
   165   84   85 1    
   166   84  205 1    
   167   85   86 1    
   168   85   87 1    
   169   85  206 1    
   170   86  207 1    
   171   86  208 1    
   172   86  209 1    
   173   87   88 2    
   174   87   89 am   BACKBONE|DICT|INTERRES
   175   89   90 1    
   176   89  210 1    
   177   90   91 1    
   178   90   92 1    
   179   90  211 1    
   180   91  212 1    
   181   91  213 1    
   182   91  214 1    
   183   92   93 2    
   184   92   94 am   BACKBONE|DICT|INTERRES
   185   94   95 1    
   186   94  215 1    
   187   95   96 1    
   188   95   97 1    
   189   95  216 1    
   190   96  217 1    
   191   96  218 1    
   192   96  219 1    
   193   97   98 2    
   194   97   99 am   BACKBONE|DICT|INTERRES
   195   99  100 1    
   196   99  220 1    
   197  100  101 1    
   198  100  102 1    
   199  100  221 1    
   200  101  222 1    
   201  101  223 1    
   202  101  224 1    
   203  102  103 2    
   204  102  104 am   BACKBONE|DICT|INTERRES
   205  104  105 1    
   206  104  225 1    
   207  105  106 1    
   208  105  107 1    
   209  105  226 1    
   210  106  227 1    
   211  106  228 1    
   212  106  229 1    
   213  107  108 2    
   214  107  109 am   BACKBONE|DICT|INTERRES
   215  109  110 1    
   216  109  230 1    
   217  110  111 1    
   218  110  112 1    
   219  110  231 1    
   220  111  232 1    
   221  111  233 1    
   222  111  234 1    
   223  112  113 2    
   224  112  114 am   BACKBONE|DICT|INTERRES
   225  114  115 1    
   226  114  235 1    
   227  115  116 1    
   228  115  117 1    
   229  115  236 1    
   230  116  237 1    
   231  116  238 1    
   232  116  239 1    
   233  117  118 2    
   234  117  119 am   BACKBONE|DICT|INTERRES
   235  119  120 1    
   236  119  240 1    
   237  120  121 1    
   238  120  124 1    
   239  120  241 1    
   240  121  122 am   BACKBONE|DICT|INTERRES
   241  121  123 2    
   242  122  242 1    
   243  122  243 1    
   244  124  125 1    
   245  124  244 1    
   246  124  245 1    
   247  125  126 1    
   248  126  246 1    
   249  126  247 1    
@<TRIPOS>SUBSTRUCTURE
     1 UNK         1 GROUP             0       ****    0 ROOT    
