@<TRIPOS>MOLECULE
3R540
247   249    1
SMALL
USER_CHARGES


@<TRIPOS>ATOM
      1 CA         -6.6924  -12.9317  -44.7188 C.3       0 UNK        -0.1800 
      2 C          -5.2951  -13.1766  -45.2672 C.2       0 UNK         0.5000 
      3 O          -4.3590  -12.4695  -44.8966 O.2       0 UNK        -0.5000 
      4 N          -5.1415  -14.1867  -46.1330 N.am      1 UNK        -0.5000 
      5 CA         -3.8885  -14.5828  -46.7952 C.3       1 UNK         0.1400 
      6 C6         -4.1222  -15.7249  -47.8138 C.3       23 UNK        -0.0398 
      7 S7         -4.8633  -17.2222  -47.0654 S.3       23 UNK        -0.2404 
      8 C8         -3.8398  -18.5562  -47.7551 C.3       23 UNK        -0.0205 
      9 C9         -2.3684  -18.4484  -47.3859 C.ar      23 UNK        -0.0193 
     10 C10        -1.4194  -18.1590  -48.3688 C.ar      23 UNK        -0.1150 
     11 C11        -0.0566  -18.1470  -48.0627 C.ar      23 UNK        -0.0193 
     12 C12         0.3539  -18.3982  -46.7489 C.ar      23 UNK        -0.1150 
     13 C13        -0.5887  -18.6674  -45.7504 C.ar      23 UNK        -0.0193 
     14 C14        -1.9484  -18.6901  -46.0763 C.ar      23 UNK        -0.1150 
     15 C15        -0.1402  -18.9252  -44.3186 C.3       23 UNK        -0.0205 
     16 S16         0.3249  -20.6611  -44.0348 S.3       23 UNK        -0.2404 
     17 C17        -1.2763  -21.5245  -44.1725 C.3       23 UNK        -0.0398 
     18 CA         -1.4017  -22.2978  -45.5057 C.3       11 UNK         0.1400 
     19 N          -0.3357  -23.2938  -45.6618 N.am      11 UNK        -0.5000 
     20 C          -0.1226  -24.0589  -46.7400 C.2       10 UNK         0.5000 
     21 O          -0.8763  -24.0854  -47.7145 O.2       10 UNK        -0.5000 
     22 CA          1.1229  -24.9684  -46.6949 C.3       10 UNK         0.1400 
     23 CB          1.5946  -25.3994  -48.0996 C.3       10 UNK        -0.1800 
     24 N           2.2346  -24.4127  -45.9065 N.am      10 UNK        -0.5000 
     25 C           2.9460  -23.3071  -46.1781 C.2       9 UNK         0.5000 
     26 O           2.7243  -22.5682  -47.1389 O.2       9 UNK        -0.5000 
     27 CA          4.1176  -23.0026  -45.2203 C.3       9 UNK         0.1400 
     28 CB          5.1459  -24.1485  -45.2198 C.3       9 UNK        -0.1800 
     29 N           4.8089  -21.7750  -45.6128 N.am      9 UNK        -0.5000 
     30 C           4.5000  -20.5447  -45.1896 C.2       8 UNK         0.5000 
     31 O           3.6687  -20.3057  -44.3116 O.2       8 UNK        -0.5000 
     32 CA          5.2467  -19.3974  -45.8974 C.3       8 UNK         0.1400 
     33 CB          4.7139  -19.2001  -47.3231 C.3       8 UNK        -0.1800 
     34 N           5.1325  -18.1206  -45.2013 N.am      8 UNK        -0.5000 
     35 C           5.7194  -17.7894  -44.0506 C.2       7 UNK         0.5000 
     36 O           6.4575  -18.5477  -43.4194 O.2       7 UNK        -0.5000 
     37 CA          5.4758  -16.3596  -43.5234 C.3       7 UNK         0.1400 
     38 CB          6.4689  -15.3729  -44.1662 C.3       7 UNK        -0.1800 
     39 N           4.1015  -15.8374  -43.6172 N.am      7 UNK        -0.5000 
     40 C           3.3450  -15.5755  -44.6954 C.2       6 UNK         0.5000 
     41 O           3.6423  -15.9140  -45.8435 O.2       6 UNK        -0.5000 
     42 CA          2.0246  -14.8141  -44.4235 C.3       6 UNK         0.1400 
     43 CB          2.2058  -13.6986  -43.3689 C.3       6 UNK        -0.1800 
     44 N           1.4016  -14.2529  -45.6291 N.am      6 UNK        -0.5000 
     45 C           1.9415  -13.3704  -46.4860 C.2       5 UNK         0.5000 
     46 O           3.0679  -12.8834  -46.3765 O.2       5 UNK        -0.5000 
     47 CA          1.0336  -12.9076  -47.6324 C.3       5 UNK         0.1400 
     48 CB          0.6294  -14.0723  -48.5548 C.3       5 UNK        -0.1800 
     49 N          -0.1535  -12.2717  -47.0647 N.am      5 UNK        -0.5000 
     50 C          -0.3014  -10.9474  -46.9260 C.2       4 UNK         0.5000 
     51 O           0.4979  -10.1175  -47.3619 O.2       4 UNK        -0.5000 
     52 CA         -1.5464  -10.4570  -46.1664 C.3       4 UNK         0.1400 
     53 CB         -2.7765  -10.4433  -47.0866 C.3       4 UNK        -0.1800 
     54 N          -1.8434  -11.2384  -44.9654 N.am      4 UNK        -0.5000 
     55 C          -1.1083  -11.2243  -43.8435 C.2       3 UNK         0.5000 
     56 O          -0.0612  -10.5885  -43.7217 O.2       3 UNK        -0.5000 
     57 CA         -1.6314  -12.0454  -42.6521 C.3       3 UNK         0.1400 
     58 CB         -2.7392  -11.2783  -41.9128 C.3       3 UNK        -0.1800 
     59 N          -2.1544  -13.3354  -43.0966 N.am      3 UNK        -0.5000 
     60 C          -1.5824  -14.5217  -42.8512 C.2       2 UNK         0.5000 
     61 O          -0.6080  -14.6717  -42.1147 O.2       2 UNK        -0.5000 
     62 CA         -2.1812  -15.7633  -43.5431 C.3       2 UNK         0.1400 
     63 CB         -2.9096  -16.6591  -42.5299 C.3       2 UNK        -0.1800 
     64 N          -3.0954  -15.4575  -44.6417 N.am      2 UNK        -0.5000 
     65 C          -2.7415  -14.9094  -45.8114 C.2       1 UNK         0.5000 
     66 O          -1.5836  -14.5983  -46.0933 O.2       1 UNK        -0.5000 
     67 C          -2.8178  -22.8917  -45.6503 C.2       11 UNK         0.5000 
     68 O          -3.6930  -22.2343  -46.2105 O.2       11 UNK        -0.5000 
     69 N          -3.0118  -24.1306  -45.1745 N.am      12 UNK        -0.5000 
     70 CA         -4.2763  -24.8637  -45.2696 C.3       12 UNK         0.1400 
     71 CB         -4.2058  -26.1137  -44.3797 C.3       12 UNK        -0.1800 
     72 C          -4.6427  -25.2471  -46.7158 C.2       12 UNK         0.5000 
     73 O          -5.8187  -25.1974  -47.0770 O.2       12 UNK        -0.5000 
     74 N          -3.6303  -25.5964  -47.5222 N.am      13 UNK        -0.5000 
     75 CA         -3.7807  -25.8705  -48.9509 C.3       13 UNK         0.1400 
     76 CB         -2.5625  -26.6538  -49.4644 C.3       13 UNK        -0.1800 
     77 C          -3.9648  -24.5668  -49.7403 C.2       13 UNK         0.5000 
     78 O          -4.8485  -24.4857  -50.5922 O.2       13 UNK        -0.5000 
     79 N          -3.1560  -23.5535  -49.4058 N.am      14 UNK        -0.5000 
     80 CA         -3.1819  -22.2221  -50.0065 C.3       14 UNK         0.1400 
     81 CB         -1.9871  -21.4242  -49.4795 C.3       14 UNK        -0.1800 
     82 C          -4.5020  -21.4650  -49.7806 C.2       14 UNK         0.5000 
     83 O          -4.8911  -20.6706  -50.6341 O.2       14 UNK        -0.5000 
     84 N          -5.1893  -21.7316  -48.6632 N.am      15 UNK        -0.5000 
     85 CA         -6.5177  -21.1931  -48.3683 C.3       15 UNK         0.1400 
     86 CB         -6.8771  -21.4942  -46.9060 C.3       15 UNK        -0.1800 
     87 C          -7.6047  -21.7300  -49.3196 C.2       15 UNK         0.5000 
     88 O          -8.5315  -20.9922  -49.6550 O.2       15 UNK        -0.5000 
     89 N          -7.4640  -22.9909  -49.7507 N.am      16 UNK        -0.5000 
     90 CA         -8.3518  -23.6357  -50.7172 C.3       16 UNK         0.1400 
     91 CB         -8.3306  -25.1558  -50.4923 C.3       16 UNK        -0.1800 
     92 C          -7.9611  -23.2900  -52.1649 C.2       16 UNK         0.5000 
     93 O          -8.8396  -23.0296  -52.9874 O.2       16 UNK        -0.5000 
     94 N          -6.6514  -23.2882  -52.4478 N.am      17 UNK        -0.5000 
     95 CA         -6.0748  -23.0223  -53.7678 C.3       17 UNK         0.1400 
     96 CB         -4.6484  -23.5933  -53.8044 C.3       17 UNK        -0.1800 
     97 C          -6.0839  -21.5345  -54.1785 C.2       17 UNK         0.5000 
     98 O          -5.8716  -21.2474  -55.3573 O.2       17 UNK        -0.5000 
     99 N          -6.3335  -20.6317  -53.2172 N.am      18 UNK        -0.5000 
    100 CA        -6.2988  -19.1691  -53.3235 C.3       18 UNK         0.1400 
    101 CB        -7.3399  -18.6447  -54.3351 C.3       18 UNK        -0.1800 
    102 C         -4.8649  -18.6756  -53.5966 C.2       18 UNK         0.5000 
    103 O         -4.5740  -18.1466  -54.6713 O.2       18 UNK        -0.5000 
    104 N         -3.9989  -18.9069  -52.6014 N.am      19 UNK        -0.5000 
    105 CA        -2.5403  -18.7901  -52.6304 C.3       19 UNK         0.1400 
    106 CB        -2.0702  -17.3641  -52.9944 C.3       19 UNK        -0.1800 
    107 C         -1.9330  -19.9173  -53.4894 C.2       19 UNK         0.5000 
    108 O         -2.4709  -21.0265  -53.4849 O.2       19 UNK        -0.5000 
    109 N         -0.8176  -19.6378  -54.1775 N.am      20 UNK        -0.5000 
    110 CA        -0.0643  -20.5039  -55.0965 C.3       20 UNK         0.1400 
    111 CB        -0.9285  -20.9397  -56.2959 C.3       20 UNK        -0.1800 
    112 C          0.6179  -21.7159  -54.4310 C.2       20 UNK         0.5000 
    113 O          1.8281  -21.8840  -54.5850 O.2       20 UNK        -0.5000 
    114 N         -0.1472  -22.5223  -53.6836 N.am      21 UNK        -0.5000 
    115 CA         0.3092  -23.7254  -52.9782 C.3       21 UNK         0.1400 
    116 CB        -0.9045  -24.4602  -52.3897 C.3       21 UNK        -0.1800 
    117 C          1.3503  -23.4362  -51.8792 C.2       21 UNK         0.5000 
    118 O          2.1750  -24.3006  -51.5821 O.2       21 UNK        -0.5000 
    119 N          1.3107  -22.2172  -51.3289 N.am      22 UNK        -0.5000 
    120 CA         2.3202  -21.6653  -50.4167 C.3       22 UNK         0.1400 
    121 C          3.6465  -21.2206  -51.1078 C.2       22 UNK         0.5000 
    122 N          3.7596  -21.2296  -52.4318 N.am      22 UNK        -0.7600 
    123 O          4.6088  -20.8776  -50.4283 O.2       22 UNK        -0.5000 
    124 C124        1.7188  -20.5561  -49.5137 C.3       23 UNK        -0.0398 
    125 S125        0.9831  -19.1604  -50.4375 S.3       23 UNK        -0.2404 
    126 C126        0.9603  -17.8599  -49.1590 C.3       23 UNK        -0.0205 
    127 H127       -7.4159  -13.6418  -45.1201 H         1 UNK         0.0600 
    128 H128       -7.0231  -11.9254  -44.9755 H         1 UNK         0.0600 
    129 H129       -6.6892  -13.0242  -43.6328 H         1 UNK         0.0600 
    130 H130       -5.9460  -14.7475  -46.3766 H         1 UNK         0.3000 
    131 H131       -3.5558  -13.7144  -47.3653 H         1 UNK         0.0600 
    132 H132       -4.7976  -15.3793  -48.5973 H         1 UNK         0.0800 
    133 H133       -3.1913  -15.9696  -48.3260 H         1 UNK         0.0800 
    134 H134       -4.2173  -19.5053  -47.3752 H         1 UNK         0.0800 
    135 H135       -3.9702  -18.5812  -48.8379 H         1 UNK         0.0800 
    136 H136       -1.7361  -17.9703  -49.3844 H         1 UNK         0.1150 
    137 H137        1.4057  -18.3873  -46.4999 H         1 UNK         0.1150 
    138 H138       -2.6856  -18.9037  -45.3158 H         1 UNK         0.1150 
    139 H139        0.7183  -18.2928  -44.0873 H         1 UNK         0.0800 
    140 H140       -0.9226  -18.6469  -43.6122 H         1 UNK         0.0800 
    141 H141       -2.0873  -20.8041  -44.0581 H         1 UNK         0.0800 
    142 H142       -1.3636  -22.2080  -43.3262 H         1 UNK         0.0800 
    143 H143       -1.2756  -21.5798  -46.3170 H         1 UNK         0.0600 
    144 H144        0.3482  -23.3223  -44.9203 H         1 UNK         0.3000 
    145 H145        0.8073  -25.8717  -46.1713 H         1 UNK         0.0600 
    146 H146        2.4751  -26.0391  -48.0432 H         1 UNK         0.0600 
    147 H147        0.8185  -25.9627  -48.6188 H         1 UNK         0.0600 
    148 H148        1.8421  -24.5418  -48.7248 H         1 UNK         0.0600 
    149 H149        2.4919  -24.9525  -45.0918 H         1 UNK         0.3000 
    150 H150        3.7132  -22.8934  -44.2117 H         1 UNK         0.0600 
    151 H151        5.5327  -24.3425  -46.2213 H         1 UNK         0.0600 
    152 H152        4.7106  -25.0775  -44.8503 H         1 UNK         0.0600 
    153 H153        5.9930  -23.9158  -44.5741 H         1 UNK         0.0600 
    154 H154        5.4623  -21.8699  -46.3764 H         1 UNK         0.3000 
    155 H155        6.3043  -19.6636  -45.9516 H         1 UNK         0.0600 
    156 H156        3.6750  -18.8712  -47.3135 H         1 UNK         0.0600 
    157 H157        4.7643  -20.1266  -47.8946 H         1 UNK         0.0600 
    158 H158        5.2954  -18.4536  -47.8644 H         1 UNK         0.0600 
    159 H159        4.5335  -17.4161  -45.6279 H         1 UNK         0.3000 
    160 H160        5.6986  -16.3901  -42.4556 H         1 UNK         0.0600 
    161 H161        6.2999  -15.2691  -45.2386 H         1 UNK         0.0600 
    162 H162        7.4978  -15.7080  -44.0289 H         1 UNK         0.0600 
    163 H163        6.3873  -14.3829  -43.7174 H         1 UNK         0.0600 
    164 H164        3.7148  -15.5619  -42.7255 H         1 UNK         0.3000 
    165 H165        1.3167  -15.5452  -44.0316 H         1 UNK         0.0600 
    166 H166        1.3103  -13.0841  -43.2873 H         1 UNK         0.0600 
    167 H167        2.3949  -14.1110  -42.3777 H         1 UNK         0.0600 
    168 H168        3.0356  -13.0358  -43.6176 H         1 UNK         0.0600 
    169 H169        0.4602  -14.5760  -45.8254 H         1 UNK         0.3000 
    170 H170        1.5948  -12.1942  -48.2398 H         1 UNK         0.0600 
    171 H171        1.5117  -14.5255  -49.0080 H         1 UNK         0.0600 
    172 H172        0.0965  -14.8623  -48.0265 H         1 UNK         0.0600 
    173 H173       -0.0108  -13.7256  -49.3659 H         1 UNK         0.0600 
    174 H174       -0.8309  -12.8968  -46.6398 H         1 UNK         0.3000 
    175 H175       -1.3557   -9.4284  -45.8528 H         1 UNK         0.0600 
    176 H176       -3.0310  -11.4434  -47.4353 H         1 UNK         0.0600 
    177 H177       -3.6482  -10.0363  -46.5737 H         1 UNK         0.0600 
    178 H178       -2.5983   -9.8245  -47.9669 H         1 UNK         0.0600 
    179 H179       -2.7288  -11.7401  -44.9657 H         1 UNK         0.3000 
    180 H180       -0.7997  -12.1846  -41.9584 H         1 UNK         0.0600 
    181 H181       -2.3797  -10.3073  -41.5698 H         1 UNK         0.0600 
    182 H182       -3.0778  -11.8286  -41.0349 H         1 UNK         0.0600 
    183 H183       -3.6060  -11.1018  -42.5509 H         1 UNK         0.0600 
    184 H184       -2.9560  -13.3005  -43.7161 H         1 UNK         0.3000 
    185 H185       -1.3424  -16.3224  -43.9594 H         1 UNK         0.0600 
    186 H186       -3.2691  -17.5750  -42.9996 H         1 UNK         0.0600 
    187 H187       -2.2446  -16.9522  -41.7165 H         1 UNK         0.0600 
    188 H188       -3.7660  -16.1491  -42.0872 H         1 UNK         0.0600 
    189 H189       -4.0718  -15.6668  -44.4930 H         1 UNK         0.3000 
    190 H190       -2.2387  -24.6064  -44.7333 H         1 UNK         0.3000 
    191 H191       -5.0707  -24.2183  -44.8882 H         1 UNK         0.0600 
    192 H192       -4.0269  -25.8467  -43.3380 H         1 UNK         0.0600 
    193 H193       -5.1432  -26.6706  -44.4146 H         1 UNK         0.0600 
    194 H194       -3.4103  -26.7899  -44.6952 H         1 UNK         0.0600 
    195 H195       -2.6864  -25.5530  -47.1657 H         1 UNK         0.3000 
    196 H196       -4.6697  -26.4869  -49.1017 H         1 UNK         0.0600 
    197 H197       -2.6733  -26.8924  -50.5230 H         1 UNK         0.0600 
    198 H198       -2.4455  -27.5959  -48.9289 H         1 UNK         0.0600 
    199 H199       -1.6372  -26.0880  -49.3538 H         1 UNK         0.0600 
    200 H200       -2.4321  -23.7202  -48.7108 H         1 UNK         0.3000 
    201 H201       -3.0605  -22.3386  -51.0834 H         1 UNK         0.0600 
    202 H202       -1.9025  -20.4643  -49.9824 H         1 UNK         0.0600 
    203 H203       -1.0546  -21.9621  -49.6453 H         1 UNK         0.0600 
    204 H204       -2.0772  -21.2280  -48.4126 H         1 UNK         0.0600 
    205 H205       -4.7591  -22.3101  -47.9497 H         1 UNK         0.3000 
    206 H206       -6.4796  -20.1087  -48.4915 H         1 UNK         0.0600 
    207 H207       -6.1715  -21.0209  -46.2230 H         1 UNK         0.0600 
    208 H208       -7.8696  -21.1148  -46.6600 H         1 UNK         0.0600 
    209 H209       -6.8729  -22.5658  -46.7032 H         1 UNK         0.0600 
    210 H210       -6.6542  -23.5194  -49.4545 H         1 UNK         0.3000 
    211 H211       -9.3742  -23.2886  -50.5524 H         1 UNK         0.0600 
    212 H212       -7.3354  -25.5757  -50.6411 H         1 UNK         0.0600 
    213 H213       -9.0063  -25.6611  -51.1834 H         1 UNK         0.0600 
    214 H214       -8.6507  -25.4079  -49.4811 H         1 UNK         0.0600 
    215 H215       -5.9983  -23.5775  -51.7231 H         1 UNK         0.3000 
    216 H216       -6.6671  -23.5594  -54.5115 H         1 UNK         0.0600 
    217 H217       -4.1723  -23.4116  -54.7688 H         1 UNK         0.0600 
    218 H218       -4.6500  -24.6706  -53.6386 H         1 UNK         0.0600 
    219 H219       -4.0191  -23.1414  -53.0394 H         1 UNK         0.0600 
    220 H220       -6.4161  -20.9871  -52.2737 H         1 UNK         0.3000 
    221 H221       -6.5824  -18.7857  -52.3419 H         1 UNK         0.0600 
    222 H222       -7.1105  -18.9428  -55.3582 H         1 UNK         0.0600 
    223 H223       -8.3387  -19.0095  -54.0958 H         1 UNK         0.0600 
    224 H224       -7.3780  -17.5551  -54.3177 H         1 UNK         0.0600 
    225 H225       -4.3576  -19.4453  -51.8139 H         1 UNK         0.3000 
    226 H226       -2.2103  -18.9779  -51.6106 H         1 UNK         0.0600 
    227 H227       -1.0076  -17.2360  -52.7851 H         1 UNK         0.0600 
    228 H228       -2.2307  -17.1325  -54.0477 H         1 UNK         0.0600 
    229 H229       -2.6009  -16.6163  -52.4050 H         1 UNK         0.0600 
    230 H230       -0.4404  -18.7059  -54.0778 H         1 UNK         0.3000 
    231 H231        0.7376  -19.8780  -55.4914 H         1 UNK         0.0600 
    232 H232       -1.7585  -21.5795  -55.9948 H         1 UNK         0.0600 
    233 H233       -0.3343  -21.4986  -57.0198 H         1 UNK         0.0600 
    234 H234       -1.3446  -20.0761  -56.8146 H         1 UNK         0.0600 
    235 H235       -1.1272  -22.2647  -53.5853 H         1 UNK         0.3000 
    236 H236        0.7813  -24.3792  -53.7142 H         1 UNK         0.0600 
    237 H237       -1.6433  -24.6909  -53.1574 H         1 UNK         0.0600 
    238 H238       -0.6051  -25.4030  -51.9303 H         1 UNK         0.0600 
    239 H239       -1.3925  -23.8658  -51.6198 H         1 UNK         0.0600 
    240 H240        0.6113  -21.5659  -51.6514 H         1 UNK         0.3000 
    241 H241        2.6190  -22.4760  -49.7516 H         1 UNK         0.0600 
    242 H242        2.9972  -21.5226  -53.0327 H         1 UNK         0.3800 
    243 H243        4.6318  -20.9447  -52.8474 H         1 UNK         0.3800 
    244 H244        0.9492  -20.9846  -48.8709 H         1 UNK         0.0800 
    245 H245        2.4773  -20.1773  -48.8307 H         1 UNK         0.0800 
    246 H246        1.9614  -17.7334  -48.7444 H         1 UNK         0.0800 
    247 H247        0.7052  -16.9124  -49.6346 H         1 UNK         0.0800 
@<TRIPOS>BOND
     1    1    2 1    
     2    1  127 1    
     3    1  128 1    
     4    1  129 1    
     5    2    3 2    
     6    2    4 am   BACKBONE|DICT|INTERRES
     7    4    5 1    
     8    4  130 1    
     9    5    6 1    
    10    5   65 1    
    11    5  131 1    
    12    6    7 1    
    13    6  132 1    
    14    6  133 1    
    15    7    8 1    
    16    8    9 1    
    17    8  134 1    
    18    8  135 1    
    19    9   10 ar   
    20    9   14 ar   
    21   10   11 ar   
    22   10  136 1    
    23   11   12 ar   
    24   11  126 1    
    25   12   13 ar   
    26   12  137 1    
    27   13   14 ar   
    28   13   15 1    
    29   14  138 1    
    30   15   16 1    
    31   15  139 1    
    32   15  140 1    
    33   16   17 1    
    34   17   18 1    
    35   17  141 1    
    36   17  142 1    
    37   18   19 1    
    38   18   67 1    
    39   18  143 1    
    40   19   20 am   BACKBONE|DICT|INTERRES
    41   19  144 1    
    42   20   21 2    
    43   20   22 1    
    44   22   23 1    
    45   22   24 1    
    46   22  145 1    
    47   23  146 1    
    48   23  147 1    
    49   23  148 1    
    50   24   25 am   BACKBONE|DICT|INTERRES
    51   24  149 1    
    52   25   26 2    
    53   25   27 1    
    54   27   28 1    
    55   27   29 1    
    56   27  150 1    
    57   28  151 1    
    58   28  152 1    
    59   28  153 1    
    60   29   30 am   BACKBONE|DICT|INTERRES
    61   29  154 1    
    62   30   31 2    
    63   30   32 1    
    64   32   33 1    
    65   32   34 1    
    66   32  155 1    
    67   33  156 1    
    68   33  157 1    
    69   33  158 1    
    70   34   35 am   BACKBONE|DICT|INTERRES
    71   34  159 1    
    72   35   36 2    
    73   35   37 1    
    74   37   38 1    
    75   37   39 1    
    76   37  160 1    
    77   38  161 1    
    78   38  162 1    
    79   38  163 1    
    80   39   40 am   BACKBONE|DICT|INTERRES
    81   39  164 1    
    82   40   41 2    
    83   40   42 1    
    84   42   43 1    
    85   42   44 1    
    86   42  165 1    
    87   43  166 1    
    88   43  167 1    
    89   43  168 1    
    90   44   45 am   BACKBONE|DICT|INTERRES
    91   44  169 1    
    92   45   46 2    
    93   45   47 1    
    94   47   48 1    
    95   47   49 1    
    96   47  170 1    
    97   48  171 1    
    98   48  172 1    
    99   48  173 1    
   100   49   50 am   BACKBONE|DICT|INTERRES
   101   49  174 1    
   102   50   51 2    
   103   50   52 1    
   104   52   53 1    
   105   52   54 1    
   106   52  175 1    
   107   53  176 1    
   108   53  177 1    
   109   53  178 1    
   110   54   55 am   BACKBONE|DICT|INTERRES
   111   54  179 1    
   112   55   56 2    
   113   55   57 1    
   114   57   58 1    
   115   57   59 1    
   116   57  180 1    
   117   58  181 1    
   118   58  182 1    
   119   58  183 1    
   120   59   60 am   BACKBONE|DICT|INTERRES
   121   59  184 1    
   122   60   61 2    
   123   60   62 1    
   124   62   63 1    
   125   62   64 1    
   126   62  185 1    
   127   63  186 1    
   128   63  187 1    
   129   63  188 1    
   130   64   65 am   BACKBONE|DICT|INTERRES
   131   64  189 1    
   132   65   66 2    
   133   67   68 2    
   134   67   69 am   BACKBONE|DICT|INTERRES
   135   69   70 1    
   136   69  190 1    
   137   70   71 1    
   138   70   72 1    
   139   70  191 1    
   140   71  192 1    
   141   71  193 1    
   142   71  194 1    
   143   72   73 2    
   144   72   74 am   BACKBONE|DICT|INTERRES
   145   74   75 1    
   146   74  195 1    
   147   75   76 1    
   148   75   77 1    
   149   75  196 1    
   150   76  197 1    
   151   76  198 1    
   152   76  199 1    
   153   77   78 2    
   154   77   79 am   BACKBONE|DICT|INTERRES
   155   79   80 1    
   156   79  200 1    
   157   80   81 1    
   158   80   82 1    
   159   80  201 1    
   160   81  202 1    
   161   81  203 1    
   162   81  204 1    
   163   82   83 2    
   164   82   84 am   BACKBONE|DICT|INTERRES
   165   84   85 1    
   166   84  205 1    
   167   85   86 1    
   168   85   87 1    
   169   85  206 1    
   170   86  207 1    
   171   86  208 1    
   172   86  209 1    
   173   87   88 2    
   174   87   89 am   BACKBONE|DICT|INTERRES
   175   89   90 1    
   176   89  210 1    
   177   90   91 1    
   178   90   92 1    
   179   90  211 1    
   180   91  212 1    
   181   91  213 1    
   182   91  214 1    
   183   92   93 2    
   184   92   94 am   BACKBONE|DICT|INTERRES
   185   94   95 1    
   186   94  215 1    
   187   95   96 1    
   188   95   97 1    
   189   95  216 1    
   190   96  217 1    
   191   96  218 1    
   192   96  219 1    
   193   97   98 2    
   194   97   99 am   BACKBONE|DICT|INTERRES
   195   99  100 1    
   196   99  220 1    
   197  100  101 1    
   198  100  102 1    
   199  100  221 1    
   200  101  222 1    
   201  101  223 1    
   202  101  224 1    
   203  102  103 2    
   204  102  104 am   BACKBONE|DICT|INTERRES
   205  104  105 1    
   206  104  225 1    
   207  105  106 1    
   208  105  107 1    
   209  105  226 1    
   210  106  227 1    
   211  106  228 1    
   212  106  229 1    
   213  107  108 2    
   214  107  109 am   BACKBONE|DICT|INTERRES
   215  109  110 1    
   216  109  230 1    
   217  110  111 1    
   218  110  112 1    
   219  110  231 1    
   220  111  232 1    
   221  111  233 1    
   222  111  234 1    
   223  112  113 2    
   224  112  114 am   BACKBONE|DICT|INTERRES
   225  114  115 1    
   226  114  235 1    
   227  115  116 1    
   228  115  117 1    
   229  115  236 1    
   230  116  237 1    
   231  116  238 1    
   232  116  239 1    
   233  117  118 2    
   234  117  119 am   BACKBONE|DICT|INTERRES
   235  119  120 1    
   236  119  240 1    
   237  120  121 1    
   238  120  124 1    
   239  120  241 1    
   240  121  122 am   BACKBONE|DICT|INTERRES
   241  121  123 2    
   242  122  242 1    
   243  122  243 1    
   244  124  125 1    
   245  124  244 1    
   246  124  245 1    
   247  125  126 1    
   248  126  246 1    
   249  126  247 1    
@<TRIPOS>SUBSTRUCTURE
     1 UNK         1 GROUP             0       ****    0 ROOT    
