@<TRIPOS>MOLECULE
3R540
247   249    1
SMALL
USER_CHARGES


@<TRIPOS>ATOM
      1 CA         -1.2024  -16.8603  -47.8525 C.3       0 UNK        -0.1800 
      2 C          -0.0765  -15.8549  -48.0286 C.2       0 UNK         0.5000 
      3 O           0.9864  -16.0084  -47.4302 O.2       0 UNK        -0.5000 
      4 N          -0.3370  -14.7975  -48.8090 N.am      1 UNK        -0.5000 
      5 CA          0.5276  -13.6243  -49.0152 C.3       1 UNK         0.1400 
      6 C6          1.9164  -13.9526  -49.6352 C.3       23 UNK        -0.0398 
      7 S7          1.7685  -14.5122  -51.3695 S.3       23 UNK        -0.2404 
      8 C8          2.6247  -16.1290  -51.3761 C.3       23 UNK        -0.0205 
      9 C9          1.7772  -17.3358  -50.9677 C.ar      23 UNK        -0.0193 
     10 C10         0.3851  -17.3621  -51.1224 C.ar      23 UNK        -0.1150 
     11 C11        -0.3588  -18.4833  -50.7411 C.ar      23 UNK        -0.0193 
     12 C12         0.3029  -19.6066  -50.2380 C.ar      23 UNK        -0.1150 
     13 C13         1.6945  -19.6111  -50.1079 C.ar      23 UNK        -0.0193 
     14 C14         2.4213  -18.4725  -50.4682 C.ar      23 UNK        -0.1150 
     15 C15         2.4174  -20.8602  -49.6223 C.3       23 UNK        -0.0205 
     16 S16         3.2002  -20.6647  -47.9858 S.3       23 UNK        -0.2404 
     17 C17         1.7929  -20.3534  -46.8665 C.3       23 UNK        -0.0398 
     18 CA          1.0795  -21.6519  -46.3958 C.3       11 UNK         0.1400 
     19 N           0.6682  -21.6061  -44.9862 N.am      11 UNK        -0.5000 
     20 C           0.1145  -22.6259  -44.3101 C.2       10 UNK         0.5000 
     21 O          -0.0653  -23.7423  -44.7899 O.2       10 UNK        -0.5000 
     22 CA         -0.3664  -22.3566  -42.8719 C.3       10 UNK         0.1400 
     23 CB          0.7896  -22.5152  -41.8750 C.3       10 UNK        -0.1800 
     24 N          -0.9918  -21.0431  -42.7185 N.am      10 UNK        -0.5000 
     25 C          -2.1169  -20.6672  -43.3460 C.2       9 UNK         0.5000 
     26 O          -2.7816  -21.4138  -44.0664 O.2       9 UNK        -0.5000 
     27 CA         -2.5263  -19.1882  -43.2006 C.3       9 UNK         0.1400 
     28 CB         -3.2783  -18.9479  -41.8835 C.3       9 UNK        -0.1800 
     29 N          -1.3817  -18.2781  -43.2852 N.am      9 UNK        -0.5000 
     30 C          -0.5665  -18.1865  -44.3461 C.2       8 UNK         0.5000 
     31 O          -0.7262  -18.8219  -45.3889 O.2       8 UNK        -0.5000 
     32 CA          0.6774  -17.3002  -44.1742 C.3       8 UNK         0.1400 
     33 CB          0.3257  -15.8055  -44.2999 C.3       8 UNK        -0.1800 
     34 N           1.3416  -17.5782  -42.8960 N.am      8 UNK        -0.5000 
     35 C           2.0103  -18.7125  -42.6316 C.2       7 UNK         0.5000 
     36 O           2.2200  -19.5815  -43.4751 O.2       7 UNK        -0.5000 
     37 CA          2.4743  -18.9620  -41.1831 C.3       7 UNK         0.1400 
     38 CB          3.9711  -18.6780  -40.9937 C.3       7 UNK        -0.1800 
     39 N           1.6968  -18.2074  -40.2040 N.am      7 UNK        -0.5000 
     40 C           0.4674  -18.5589  -39.8027 C.2       6 UNK         0.5000 
     41 O          -0.1115  -19.5725  -40.1944 O.2       6 UNK        -0.5000 
     42 CA         -0.2560  -17.5855  -38.8525 C.3       6 UNK         0.1400 
     43 CB          0.1040  -17.8875  -37.3906 C.3       6 UNK        -0.1800 
     44 N           0.0399  -16.1806  -39.1457 N.am      6 UNK        -0.5000 
     45 C          -0.2665  -15.5694  -40.2977 C.2       5 UNK         0.5000 
     46 O          -0.8764  -16.1311  -41.2083 O.2       5 UNK        -0.5000 
     47 CA          0.2044  -14.1110  -40.4862 C.3       5 UNK         0.1400 
     48 CB          0.5447  -13.3932  -39.1616 C.3       5 UNK        -0.1800 
     49 N           1.3256  -13.9869  -41.4277 N.am      5 UNK        -0.5000 
     50 C           2.5253  -14.5889  -41.3577 C.2       4 UNK         0.5000 
     51 O           2.8080  -15.4285  -40.5024 O.2       4 UNK        -0.5000 
     52 CA          3.6007  -14.1950  -42.3974 C.3       4 UNK         0.1400 
     53 CB          4.1023  -15.3973  -43.2132 C.3       4 UNK        -0.1800 
     54 N           3.1613  -13.1573  -43.3297 N.am      4 UNK        -0.5000 
     55 C           3.2501  -11.8419  -43.1012 C.2       3 UNK         0.5000 
     56 O           3.7202  -11.3549  -42.0724 O.2       3 UNK        -0.5000 
     57 CA          2.7145  -10.9101  -44.2045 C.3       3 UNK         0.1400 
     58 CB          3.8546  -10.4786  -45.1394 C.3       3 UNK        -0.1800 
     59 N           1.6246  -11.4632  -45.0155 N.am      3 UNK        -0.5000 
     60 C           0.4353  -11.8776  -44.5654 C.2       2 UNK         0.5000 
     61 O           0.1741  -12.0237  -43.3707 O.2       2 UNK        -0.5000 
     62 CA         -0.6641  -12.1521  -45.6098 C.3       2 UNK         0.1400 
     63 CB         -1.3307  -10.8330  -46.0415 C.3       2 UNK        -0.1800 
     64 N          -0.2875  -12.9447  -46.7891 N.am      2 UNK        -0.5000 
     65 C           0.5966  -12.6991  -47.7708 C.2       1 UNK         0.5000 
     66 O           1.3866  -11.7541  -47.7565 O.2       1 UNK        -0.5000 
     67 C          -0.1092  -21.9804  -47.3171 C.2       11 UNK         0.5000 
     68 O          -0.0194  -22.9101  -48.1186 O.2       11 UNK        -0.5000 
     69 N          -1.2122  -21.2345  -47.1548 N.am      12 UNK        -0.5000 
     70 CA         -2.4575  -21.4180  -47.9026 C.3       12 UNK         0.1400 
     71 CB         -3.4593  -20.3259  -47.4997 C.3       12 UNK        -0.1800 
     72 C          -3.0655  -22.8203  -47.7154 C.2       12 UNK         0.5000 
     73 O          -3.4899  -23.4344  -48.6968 O.2       12 UNK        -0.5000 
     74 N          -3.0528  -23.3085  -46.4667 N.am      13 UNK        -0.5000 
     75 CA         -3.5001  -24.6472  -46.0886 C.3       13 UNK         0.1400 
     76 CB         -3.5941  -24.7426  -44.5583 C.3       13 UNK        -0.1800 
     77 C          -2.6015  -25.7623  -46.6548 C.2       13 UNK         0.5000 
     78 O          -3.1243  -26.7358  -47.1968 O.2       13 UNK        -0.5000 
     79 N          -1.2755  -25.5978  -46.5408 N.am      14 UNK        -0.5000 
     80 CA         -0.2676  -26.5446  -47.0264 C.3       14 UNK         0.1400 
     81 CB          1.1184  -26.1473  -46.4963 C.3       14 UNK        -0.1800 
     82 C          -0.2425  -26.6616  -48.5593 C.2       14 UNK         0.5000 
     83 O          -0.1093  -27.7692  -49.0814 O.2       14 UNK        -0.5000 
     84 N          -0.4002  -25.5252  -49.2514 N.am      15 UNK        -0.5000 
     85 CA         -0.5397  -25.4582  -50.7064 C.3       15 UNK         0.1400 
     86 CB         -0.3497  -24.0033  -51.1631 C.3       15 UNK        -0.1800 
     87 C          -1.8962  -25.9911  -51.2056 C.2       15 UNK         0.5000 
     88 O          -2.0004  -26.3588  -52.3759 O.2       15 UNK        -0.5000 
     89 N          -2.9041  -25.9934  -50.3182 N.am      16 UNK        -0.5000 
     90 CA         -4.3173  -26.2974  -50.5642 C.3       16 UNK         0.1400 
     91 CB         -4.5071  -27.7898  -50.9052 C.3       16 UNK        -0.1800 
     92 C          -4.9246  -25.3419  -51.6125 C.2       16 UNK         0.5000 
     93 O          -5.6605  -25.7811  -52.4976 O.2       16 UNK        -0.5000 
     94 N          -4.5645  -24.0553  -51.4800 N.am      17 UNK        -0.5000 
     95 CA         -4.7396  -22.9543  -52.4288 C.3       17 UNK         0.1400 
     96 CB         -6.2256  -22.6880  -52.7385 C.3       17 UNK        -0.1800 
     97 C          -3.8940  -23.1632  -53.7038 C.2       17 UNK         0.5000 
     98 O          -4.2261  -23.9956  -54.5485 O.2       17 UNK        -0.5000 
     99 N          -2.8046  -22.3914  -53.8202 N.am      18 UNK        -0.5000 
    100 CA        -1.8358  -22.4433  -54.9237 C.3       18 UNK         0.1400 
    101 CB        -0.5849  -21.6494  -54.5092 C.3       18 UNK        -0.1800 
    102 C         -2.3705  -21.9103  -56.2718 C.2       18 UNK         0.5000 
    103 O         -1.7311  -22.1160  -57.3042 O.2       18 UNK        -0.5000 
    104 N         -3.5148  -21.2246  -56.2368 N.am      19 UNK        -0.5000 
    105 CA        -4.2260  -20.6228  -57.3578 C.3       19 UNK         0.1400 
    106 CB        -3.5853  -19.2646  -57.7051 C.3       19 UNK        -0.1800 
    107 C         -5.6997  -20.4765  -56.9435 C.2       19 UNK         0.5000 
    108 O         -6.0661  -20.9116  -55.8468 O.2       19 UNK        -0.5000 
    109 N         -6.5184  -19.8419  -57.7937 N.am      20 UNK        -0.5000 
    110 CA        -7.9161  -19.4920  -57.5163 C.3       20 UNK         0.1400 
    111 CB        -8.5112  -18.7798  -58.7414 C.3       20 UNK        -0.1800 
    112 C         -8.0322  -18.6184  -56.2507 C.2       20 UNK         0.5000 
    113 O         -7.5606  -17.4787  -56.2529 O.2       20 UNK        -0.5000 
    114 N         -8.5595  -19.2141  -55.1698 N.am      21 UNK        -0.5000 
    115 CA        -8.6144  -18.6832  -53.7981 C.3       21 UNK         0.1400 
    116 CB        -9.5927  -17.4929  -53.7200 C.3       21 UNK        -0.1800 
    117 C         -7.2247  -18.3455  -53.2033 C.2       21 UNK         0.5000 
    118 O         -7.1304  -17.5293  -52.2855 O.2       21 UNK        -0.5000 
    119 N         -6.1704  -18.9663  -53.7517 N.am      22 UNK        -0.5000 
    120 CA        -4.7528  -18.6548  -53.5181 C.3       22 UNK         0.1400 
    121 C         -4.3171  -17.2348  -54.0052 C.2       22 UNK         0.5000 
    122 N         -5.0459  -16.5960  -54.9149 N.am      22 UNK        -0.7600 
    123 O         -3.2953  -16.7060  -53.5790 O.2       22 UNK        -0.5000 
    124 C124       -4.3007  -19.0076  -52.0735 C.3       23 UNK        -0.0398 
    125 S125       -2.5761  -19.6136  -52.0098 S.3       23 UNK        -0.2404 
    126 C126       -1.8790  -18.4443  -50.8116 C.3       23 UNK        -0.0205 
    127 H127       -2.0008  -16.6994  -48.5754 H         1 UNK         0.0600 
    128 H128       -1.6362  -16.7679  -46.8581 H         1 UNK         0.0600 
    129 H129       -0.8237  -17.8757  -47.9664 H         1 UNK         0.0600 
    130 H130       -1.2310  -14.7469  -49.2773 H         1 UNK         0.3000 
    131 H131       -0.0037  -13.0155  -49.7485 H         1 UNK         0.0600 
    132 H132        2.4561  -14.6896  -49.0409 H         1 UNK         0.0800 
    133 H133        2.5517  -13.0659  -49.6537 H         1 UNK         0.0800 
    134 H134        3.5117  -16.0605  -50.7445 H         1 UNK         0.0800 
    135 H135        2.9875  -16.3103  -52.3885 H         1 UNK         0.0800 
    136 H136       -0.1307  -16.5002  -51.5195 H         1 UNK         0.1150 
    137 H137       -0.2669  -20.4797  -49.9565 H         1 UNK         0.1150 
    138 H138        3.4978  -18.4788  -50.3677 H         1 UNK         0.1150 
    139 H139        1.7463  -21.7180  -49.6083 H         1 UNK         0.0800 
    140 H140        3.1954  -21.1113  -50.3444 H         1 UNK         0.0800 
    141 H141        1.1092  -19.6294  -47.3144 H         1 UNK         0.0800 
    142 H142        2.2197  -19.8343  -46.0099 H         1 UNK         0.0800 
    143 H143        1.7846  -22.4827  -46.4688 H         1 UNK         0.0600 
    144 H144        0.8254  -20.7304  -44.5013 H         1 UNK         0.3000 
    145 H145       -1.1226  -23.1057  -42.6281 H         1 UNK         0.0600 
    146 H146        0.4764  -22.2795  -40.8577 H         1 UNK         0.0600 
    147 H147        1.6315  -21.8739  -42.1303 H         1 UNK         0.0600 
    148 H148        1.1569  -23.5421  -41.8731 H         1 UNK         0.0600 
    149 H149       -0.5409  -20.3880  -42.0903 H         1 UNK         0.3000 
    150 H150       -3.1995  -18.9497  -44.0267 H         1 UNK         0.0600 
    151 H151       -4.1565  -19.5909  -41.8134 H         1 UNK         0.0600 
    152 H152       -3.6227  -17.9162  -41.8095 H         1 UNK         0.0600 
    153 H153       -2.6512  -19.1528  -41.0158 H         1 UNK         0.0600 
    154 H154       -1.1941  -17.6959  -42.4754 H         1 UNK         0.3000 
    155 H155        1.3655  -17.5458  -44.9862 H         1 UNK         0.0600 
    156 H156       -0.1938  -15.4140  -43.4312 H         1 UNK         0.0600 
    157 H157       -0.3309  -15.6266  -45.1489 H         1 UNK         0.0600 
    158 H158        1.2155  -15.1992  -44.4570 H         1 UNK         0.0600 
    159 H159        1.1511  -16.9428  -42.1348 H         1 UNK         0.3000 
    160 H160        2.3316  -20.0252  -40.9857 H         1 UNK         0.0600 
    161 H161        4.1844  -17.6127  -40.9570 H         1 UNK         0.0600 
    162 H162        4.5635  -19.1109  -41.8009 H         1 UNK         0.0600 
    163 H163        4.3303  -19.1121  -40.0606 H         1 UNK         0.0600 
    164 H164        2.0862  -17.3219  -39.8982 H         1 UNK         0.3000 
    165 H165       -1.3300  -17.7369  -38.9796 H         1 UNK         0.0600 
    166 H166       -0.4627  -17.2560  -36.7062 H         1 UNK         0.0600 
    167 H167       -0.1240  -18.9242  -37.1391 H         1 UNK         0.0600 
    168 H168        1.1652  -17.7278  -37.1955 H         1 UNK         0.0600 
    169 H169        0.5637  -15.6683  -38.4510 H         1 UNK         0.3000 
    170 H170       -0.6346  -13.5809  -40.9394 H         1 UNK         0.0600 
    171 H171       -0.2886  -13.4446  -38.4595 H         1 UNK         0.0600 
    172 H172        1.4219  -13.8177  -38.6723 H         1 UNK         0.0600 
    173 H173        0.7489  -12.3369  -39.3376 H         1 UNK         0.0600 
    174 H174        1.1682  -13.3236  -42.1798 H         1 UNK         0.3000 
    175 H175        4.4528  -13.8182  -41.8278 H         1 UNK         0.0600 
    176 H176        3.3077  -15.8725  -43.7842 H         1 UNK         0.0600 
    177 H177        4.8765  -15.0935  -43.9181 H         1 UNK         0.0600 
    178 H178        4.5472  -16.1526  -42.5694 H         1 UNK         0.0600 
    179 H179        2.7584  -13.4630  -44.2032 H         1 UNK         0.3000 
    180 H180        2.3259  -10.0185  -43.7086 H         1 UNK         0.0600 
    181 H181        3.5141   -9.7336  -45.8588 H         1 UNK         0.0600 
    182 H182        4.2560  -11.3249  -45.6984 H         1 UNK         0.0600 
    183 H183        4.6773  -10.0343  -44.5774 H         1 UNK         0.0600 
    184 H184        1.7344  -11.4113  -46.0267 H         1 UNK         0.3000 
    185 H185       -1.4242  -12.7446  -45.0977 H         1 UNK         0.0600 
    186 H186       -0.6405  -10.1890  -46.5874 H         1 UNK         0.0600 
    187 H187       -2.1930  -11.0185  -46.6821 H         1 UNK         0.0600 
    188 H188       -1.6852  -10.2718  -45.1758 H         1 UNK         0.0600 
    189 H189       -0.8519  -13.7707  -46.9238 H         1 UNK         0.3000 
    190 H190       -1.1931  -20.4877  -46.4663 H         1 UNK         0.3000 
    191 H191       -2.2302  -21.2974  -48.9632 H         1 UNK         0.0600 
    192 H192       -3.0412  -19.3301  -47.6441 H         1 UNK         0.0600 
    193 H193       -3.7498  -20.4119  -46.4522 H         1 UNK         0.0600 
    194 H194       -4.3675  -20.3901  -48.1001 H         1 UNK         0.0600 
    195 H195       -2.7104  -22.7152  -45.7184 H         1 UNK         0.3000 
    196 H196       -4.5027  -24.7903  -46.4971 H         1 UNK         0.0600 
    197 H197       -4.2857  -24.0003  -44.1594 H         1 UNK         0.0600 
    198 H198       -2.6256  -24.5840  -44.0835 H         1 UNK         0.0600 
    199 H199       -3.9552  -25.7243  -44.2493 H         1 UNK         0.0600 
    200 H200       -0.9196  -24.7848  -46.0420 H         1 UNK         0.3000 
    201 H201       -0.5142  -27.5291  -46.6238 H         1 UNK         0.0600 
    202 H202        1.1420  -26.1622  -45.4067 H         1 UNK         0.0600 
    203 H203        1.4017  -25.1462  -46.8241 H         1 UNK         0.0600 
    204 H204        1.8858  -26.8386  -46.8469 H         1 UNK         0.0600 
    205 H205       -0.4342  -24.6406  -48.7489 H         1 UNK         0.3000 
    206 H206        0.2457  -26.0668  -51.1594 H         1 UNK         0.0600 
    207 H207       -1.1014  -23.3422  -50.7293 H         1 UNK         0.0600 
    208 H208        0.6328  -23.6252  -50.8810 H         1 UNK         0.0600 
    209 H209       -0.4298  -23.9269  -52.2474 H         1 UNK         0.0600 
    210 H210       -2.6976  -25.6590  -49.3864 H         1 UNK         0.3000 
    211 H211       -4.8409  -26.1019  -49.6272 H         1 UNK         0.0600 
    212 H212       -4.0524  -28.0499  -51.8615 H         1 UNK         0.0600 
    213 H213       -5.5658  -28.0439  -50.9665 H         1 UNK         0.0600 
    214 H214       -4.0645  -28.4261  -50.1387 H         1 UNK         0.0600 
    215 H215       -4.0000  -23.8323  -50.6659 H         1 UNK         0.3000 
    216 H216       -4.3590  -22.0741  -51.9119 H         1 UNK         0.0600 
    217 H217       -6.3396  -21.7765  -53.3233 H         1 UNK         0.0600 
    218 H218       -6.8031  -22.5601  -51.8231 H         1 UNK         0.0600 
    219 H219       -6.6786  -23.4963  -53.3127 H         1 UNK         0.0600 
    220 H220       -2.6044  -21.7120  -53.0975 H         1 UNK         0.3000 
    221 H221       -1.5491  -23.4863  -55.0730 H         1 UNK         0.0600 
    222 H222       -0.8061  -20.5883  -54.3861 H         1 UNK         0.0600 
    223 H223       -0.1684  -22.0120  -53.5703 H         1 UNK         0.0600 
    224 H224        0.1988  -21.7332  -55.2631 H         1 UNK         0.0600 
    225 H225       -4.0343  -21.2030  -55.3699 H         1 UNK         0.3000 
    226 H226       -4.1790  -21.2905  -58.2201 H         1 UNK         0.0600 
    227 H227       -2.5272  -19.3753  -57.9429 H         1 UNK         0.0600 
    228 H228       -4.0599  -18.8094  -58.5747 H         1 UNK         0.0600 
    229 H229       -3.6673  -18.5592  -56.8773 H         1 UNK         0.0600 
    230 H230       -6.1409  -19.4956  -58.6635 H         1 UNK         0.3000 
    231 H231       -8.4707  -20.4196  -57.3607 H         1 UNK         0.0600 
    232 H232       -9.5528  -18.5078  -58.5657 H         1 UNK         0.0600 
    233 H233       -8.4879  -19.4225  -59.6216 H         1 UNK         0.0600 
    234 H234       -7.9686  -17.8640  -58.9799 H         1 UNK         0.0600 
    235 H235       -8.8674  -20.1721  -55.2668 H         1 UNK         0.3000 
    236 H236       -9.0180  -19.4842  -53.1774 H         1 UNK         0.0600 
    237 H237       -9.2181  -16.6248  -54.2632 H         1 UNK         0.0600 
    238 H238      -10.5658  -17.7544  -54.1357 H         1 UNK         0.0600 
    239 H239       -9.7561  -17.1856  -52.6864 H         1 UNK         0.0600 
    240 H240       -6.3470  -19.6367  -54.4950 H         1 UNK         0.3000 
    241 H241       -4.2290  -19.3312  -54.1926 H         1 UNK         0.0600 
    242 H242       -4.7490  -15.6843  -55.2235 H         1 UNK         0.3800 
    243 H243       -5.9037  -16.9908  -55.2876 H         1 UNK         0.3800 
    244 H244       -4.9280  -19.8000  -51.6650 H         1 UNK         0.0800 
    245 H245       -4.4468  -18.1571  -51.4058 H         1 UNK         0.0800 
    246 H246       -2.2913  -18.6786  -49.8312 H         1 UNK         0.0800 
    247 H247       -2.2150  -17.4361  -51.0591 H         1 UNK         0.0800 
@<TRIPOS>BOND
     1    1    2 1    
     2    1  127 1    
     3    1  128 1    
     4    1  129 1    
     5    2    3 2    
     6    2    4 am   BACKBONE|DICT|INTERRES
     7    4    5 1    
     8    4  130 1    
     9    5    6 1    
    10    5   65 1    
    11    5  131 1    
    12    6    7 1    
    13    6  132 1    
    14    6  133 1    
    15    7    8 1    
    16    8    9 1    
    17    8  134 1    
    18    8  135 1    
    19    9   10 ar   
    20    9   14 ar   
    21   10   11 ar   
    22   10  136 1    
    23   11   12 ar   
    24   11  126 1    
    25   12   13 ar   
    26   12  137 1    
    27   13   14 ar   
    28   13   15 1    
    29   14  138 1    
    30   15   16 1    
    31   15  139 1    
    32   15  140 1    
    33   16   17 1    
    34   17   18 1    
    35   17  141 1    
    36   17  142 1    
    37   18   19 1    
    38   18   67 1    
    39   18  143 1    
    40   19   20 am   BACKBONE|DICT|INTERRES
    41   19  144 1    
    42   20   21 2    
    43   20   22 1    
    44   22   23 1    
    45   22   24 1    
    46   22  145 1    
    47   23  146 1    
    48   23  147 1    
    49   23  148 1    
    50   24   25 am   BACKBONE|DICT|INTERRES
    51   24  149 1    
    52   25   26 2    
    53   25   27 1    
    54   27   28 1    
    55   27   29 1    
    56   27  150 1    
    57   28  151 1    
    58   28  152 1    
    59   28  153 1    
    60   29   30 am   BACKBONE|DICT|INTERRES
    61   29  154 1    
    62   30   31 2    
    63   30   32 1    
    64   32   33 1    
    65   32   34 1    
    66   32  155 1    
    67   33  156 1    
    68   33  157 1    
    69   33  158 1    
    70   34   35 am   BACKBONE|DICT|INTERRES
    71   34  159 1    
    72   35   36 2    
    73   35   37 1    
    74   37   38 1    
    75   37   39 1    
    76   37  160 1    
    77   38  161 1    
    78   38  162 1    
    79   38  163 1    
    80   39   40 am   BACKBONE|DICT|INTERRES
    81   39  164 1    
    82   40   41 2    
    83   40   42 1    
    84   42   43 1    
    85   42   44 1    
    86   42  165 1    
    87   43  166 1    
    88   43  167 1    
    89   43  168 1    
    90   44   45 am   BACKBONE|DICT|INTERRES
    91   44  169 1    
    92   45   46 2    
    93   45   47 1    
    94   47   48 1    
    95   47   49 1    
    96   47  170 1    
    97   48  171 1    
    98   48  172 1    
    99   48  173 1    
   100   49   50 am   BACKBONE|DICT|INTERRES
   101   49  174 1    
   102   50   51 2    
   103   50   52 1    
   104   52   53 1    
   105   52   54 1    
   106   52  175 1    
   107   53  176 1    
   108   53  177 1    
   109   53  178 1    
   110   54   55 am   BACKBONE|DICT|INTERRES
   111   54  179 1    
   112   55   56 2    
   113   55   57 1    
   114   57   58 1    
   115   57   59 1    
   116   57  180 1    
   117   58  181 1    
   118   58  182 1    
   119   58  183 1    
   120   59   60 am   BACKBONE|DICT|INTERRES
   121   59  184 1    
   122   60   61 2    
   123   60   62 1    
   124   62   63 1    
   125   62   64 1    
   126   62  185 1    
   127   63  186 1    
   128   63  187 1    
   129   63  188 1    
   130   64   65 am   BACKBONE|DICT|INTERRES
   131   64  189 1    
   132   65   66 2    
   133   67   68 2    
   134   67   69 am   BACKBONE|DICT|INTERRES
   135   69   70 1    
   136   69  190 1    
   137   70   71 1    
   138   70   72 1    
   139   70  191 1    
   140   71  192 1    
   141   71  193 1    
   142   71  194 1    
   143   72   73 2    
   144   72   74 am   BACKBONE|DICT|INTERRES
   145   74   75 1    
   146   74  195 1    
   147   75   76 1    
   148   75   77 1    
   149   75  196 1    
   150   76  197 1    
   151   76  198 1    
   152   76  199 1    
   153   77   78 2    
   154   77   79 am   BACKBONE|DICT|INTERRES
   155   79   80 1    
   156   79  200 1    
   157   80   81 1    
   158   80   82 1    
   159   80  201 1    
   160   81  202 1    
   161   81  203 1    
   162   81  204 1    
   163   82   83 2    
   164   82   84 am   BACKBONE|DICT|INTERRES
   165   84   85 1    
   166   84  205 1    
   167   85   86 1    
   168   85   87 1    
   169   85  206 1    
   170   86  207 1    
   171   86  208 1    
   172   86  209 1    
   173   87   88 2    
   174   87   89 am   BACKBONE|DICT|INTERRES
   175   89   90 1    
   176   89  210 1    
   177   90   91 1    
   178   90   92 1    
   179   90  211 1    
   180   91  212 1    
   181   91  213 1    
   182   91  214 1    
   183   92   93 2    
   184   92   94 am   BACKBONE|DICT|INTERRES
   185   94   95 1    
   186   94  215 1    
   187   95   96 1    
   188   95   97 1    
   189   95  216 1    
   190   96  217 1    
   191   96  218 1    
   192   96  219 1    
   193   97   98 2    
   194   97   99 am   BACKBONE|DICT|INTERRES
   195   99  100 1    
   196   99  220 1    
   197  100  101 1    
   198  100  102 1    
   199  100  221 1    
   200  101  222 1    
   201  101  223 1    
   202  101  224 1    
   203  102  103 2    
   204  102  104 am   BACKBONE|DICT|INTERRES
   205  104  105 1    
   206  104  225 1    
   207  105  106 1    
   208  105  107 1    
   209  105  226 1    
   210  106  227 1    
   211  106  228 1    
   212  106  229 1    
   213  107  108 2    
   214  107  109 am   BACKBONE|DICT|INTERRES
   215  109  110 1    
   216  109  230 1    
   217  110  111 1    
   218  110  112 1    
   219  110  231 1    
   220  111  232 1    
   221  111  233 1    
   222  111  234 1    
   223  112  113 2    
   224  112  114 am   BACKBONE|DICT|INTERRES
   225  114  115 1    
   226  114  235 1    
   227  115  116 1    
   228  115  117 1    
   229  115  236 1    
   230  116  237 1    
   231  116  238 1    
   232  116  239 1    
   233  117  118 2    
   234  117  119 am   BACKBONE|DICT|INTERRES
   235  119  120 1    
   236  119  240 1    
   237  120  121 1    
   238  120  124 1    
   239  120  241 1    
   240  121  122 am   BACKBONE|DICT|INTERRES
   241  121  123 2    
   242  122  242 1    
   243  122  243 1    
   244  124  125 1    
   245  124  244 1    
   246  124  245 1    
   247  125  126 1    
   248  126  246 1    
   249  126  247 1    
@<TRIPOS>SUBSTRUCTURE
     1 UNK         1 GROUP             0       ****    0 ROOT    
