@<TRIPOS>MOLECULE
3R540
247   249    1
SMALL
USER_CHARGES


@<TRIPOS>ATOM
      1 CA          6.4033  -12.4600  -49.0036 C.3       0 UNK        -0.1800 
      2 C           5.4169  -13.0476  -48.0050 C.2       0 UNK         0.5000 
      3 O           5.2865  -12.5308  -46.8959 O.2       0 UNK        -0.5000 
      4 N           4.7095  -14.1154  -48.3984 N.am      1 UNK        -0.5000 
      5 CA          3.7147  -14.8297  -47.5837 C.3       1 UNK         0.1400 
      6 C6          3.2675  -16.1547  -48.2579 C.3       23 UNK        -0.0398 
      7 S7          2.4797  -15.9141  -49.8946 S.3       23 UNK        -0.2404 
      8 C8          3.2843  -17.1766  -50.9282 C.3       23 UNK        -0.0205 
      9 C9          2.5582  -18.5131  -50.8674 C.ar      23 UNK        -0.0193 
     10 C10         1.3637  -18.6888  -51.5745 C.ar      23 UNK        -0.1150 
     11 C11         0.7053  -19.9256  -51.5780 C.ar      23 UNK        -0.0193 
     12 C12         1.2676  -20.9874  -50.8622 C.ar      23 UNK        -0.1150 
     13 C13         2.4665  -20.8327  -50.1588 C.ar      23 UNK        -0.0193 
     14 C14         3.1039  -19.5878  -50.1596 C.ar      23 UNK        -0.1150 
     15 C15         3.0983  -22.0385  -49.4690 C.3       23 UNK        -0.0205 
     16 S16         3.5441  -21.7691  -47.7189 S.3       23 UNK        -0.2404 
     17 C17         1.9737  -21.2293  -46.9669 C.3       23 UNK        -0.0398 
     18 CA          1.1053  -22.3819  -46.4004 C.3       11 UNK         0.1400 
     19 N           0.1707  -21.9015  -45.3772 N.am      11 UNK        -0.5000 
     20 C          -0.6812  -22.6620  -44.6734 C.2       10 UNK         0.5000 
     21 O          -0.7238  -23.8908  -44.7448 O.2       10 UNK        -0.5000 
     22 CA         -1.6900  -21.9187  -43.7765 C.3       10 UNK         0.1400 
     23 CB         -1.0398  -21.4948  -42.4513 C.3       10 UNK        -0.1800 
     24 N          -2.2762  -20.7489  -44.4363 N.am      10 UNK        -0.5000 
     25 C          -3.0733  -20.8077  -45.5137 C.2       9 UNK         0.5000 
     26 O          -3.4427  -21.8616  -46.0293 O.2       9 UNK        -0.5000 
     27 CA         -3.4842  -19.4699  -46.1592 C.3       9 UNK         0.1400 
     28 CB         -4.6607  -18.8274  -45.4117 C.3       9 UNK        -0.1800 
     29 N          -2.3724  -18.5235  -46.2400 N.am      9 UNK        -0.5000 
     30 C          -1.2623  -18.7304  -46.9614 C.2       8 UNK         0.5000 
     31 O          -1.0843  -19.7127  -47.6775 O.2       8 UNK        -0.5000 
     32 CA         -0.1390  -17.6945  -46.8206 C.3       8 UNK         0.1400 
     33 CB         -0.4189  -16.4899  -47.7259 C.3       8 UNK        -0.1800 
     34 N           0.0451  -17.2601  -45.4340 N.am      8 UNK        -0.5000 
     35 C           0.4678  -18.0593  -44.4431 C.2       7 UNK         0.5000 
     36 O           0.7882  -19.2340  -44.6077 O.2       7 UNK        -0.5000 
     37 CA          0.4916  -17.4709  -43.0224 C.3       7 UNK         0.1400 
     38 CB          1.7667  -16.6433  -42.8033 C.3       7 UNK        -0.1800 
     39 N          -0.6851  -16.6494  -42.7468 N.am      7 UNK        -0.5000 
     40 C          -1.9421  -17.1155  -42.6733 C.2       6 UNK         0.5000 
     41 O          -2.2292  -18.3104  -42.7433 O.2       6 UNK        -0.5000 
     42 CA         -3.0727  -16.0676  -42.5706 C.3       6 UNK         0.1400 
     43 CB         -3.3809  -15.7481  -41.1008 C.3       6 UNK        -0.1800 
     44 N          -2.7516  -14.8251  -43.2776 N.am      6 UNK        -0.5000 
     45 C          -2.4797  -14.7540  -44.5872 C.2       5 UNK         0.5000 
     46 O          -2.6942  -15.6873  -45.3606 O.2       5 UNK        -0.5000 
     47 CA         -1.7945  -13.4773  -45.1233 C.3       5 UNK         0.1400 
     48 CB         -2.7215  -12.7386  -46.1004 C.3       5 UNK        -0.1800 
     49 N          -1.2964  -12.5190  -44.1248 N.am      5 UNK        -0.5000 
     50 C          -0.4288  -12.7537  -43.1280 C.2       4 UNK         0.5000 
     51 O          -0.0087  -13.8718  -42.8309 O.2       4 UNK        -0.5000 
     52 CA          0.0545  -11.5073  -42.3612 C.3       4 UNK         0.1400 
     53 CB          0.6742  -11.8343  -40.9855 C.3       4 UNK        -0.1800 
     54 N           0.9615  -10.7225  -43.2047 N.am      4 UNK        -0.5000 
     55 C           2.1706  -11.0873  -43.6574 C.2       3 UNK         0.5000 
     56 O           2.8023  -12.0691  -43.2644 O.2       3 UNK        -0.5000 
     57 CA          2.7326  -10.2403  -44.8141 C.3       3 UNK         0.1400 
     58 CB          4.2464  -10.0052  -44.6795 C.3       3 UNK        -0.1800 
     59 N           2.4602  -10.9225  -46.0779 N.am      3 UNK        -0.5000 
     60 C           1.2420  -11.0484  -46.6259 C.2       2 UNK         0.5000 
     61 O           0.2479  -10.4524  -46.2086 O.2       2 UNK        -0.5000 
     62 CA          1.0900  -11.9974  -47.8311 C.3       2 UNK         0.1400 
     63 CB          0.9164  -11.1968  -49.1304 C.3       2 UNK        -0.1800 
     64 N           2.2009  -12.9339  -48.0019 N.am      2 UNK        -0.5000 
     65 C           2.4999  -13.9559  -47.1861 C.2       1 UNK         0.5000 
     66 O           1.8678  -14.2210  -46.1636 O.2       1 UNK        -0.5000 
     67 C           0.3575  -23.1178  -47.5276 C.2       11 UNK         0.5000 
     68 O           0.7099  -24.2470  -47.8653 O.2       11 UNK        -0.5000 
     69 N          -0.6907  -22.4752  -48.0559 N.am      12 UNK        -0.5000 
     70 CA         -1.5576  -23.0037  -49.0995 C.3       12 UNK         0.1400 
     71 CB         -2.5417  -21.9162  -49.5278 C.3       12 UNK        -0.1800 
     72 C          -2.3093  -24.2727  -48.6775 C.2       12 UNK         0.5000 
     73 O          -2.3787  -25.2096  -49.4685 O.2       12 UNK        -0.5000 
     74 N          -2.8194  -24.3057  -47.4394 N.am      13 UNK        -0.5000 
     75 CA         -3.4776  -25.4736  -46.8529 C.3       13 UNK         0.1400 
     76 CB         -4.0819  -25.0989  -45.4917 C.3       13 UNK        -0.1800 
     77 C          -2.5368  -26.6869  -46.7242 C.2       13 UNK         0.5000 
     78 O          -2.9581  -27.8092  -47.0052 O.2       13 UNK        -0.5000 
     79 N          -1.2758  -26.4383  -46.3429 N.am      14 UNK        -0.5000 
     80 CA         -0.2197  -27.4494  -46.2773 C.3       14 UNK         0.1400 
     81 CB          0.9697  -26.8951  -45.4779 C.3       14 UNK        -0.1800 
     82 C           0.2288  -27.9305  -47.6716 C.2       14 UNK         0.5000 
     83 O           0.4370  -29.1291  -47.8633 O.2       14 UNK        -0.5000 
     84 N           0.3578  -26.9929  -48.6199 N.am      15 UNK        -0.5000 
     85 CA          0.7645  -27.2445  -50.0052 C.3       15 UNK         0.1400 
     86 CB          1.2255  -25.9172  -50.6300 C.3       15 UNK        -0.1800 
     87 C          -0.3332  -27.8849  -50.8796 C.2       15 UNK         0.5000 
     88 O          -0.0140  -28.4032  -51.9504 O.2       15 UNK        -0.5000 
     89 N          -1.5936  -27.8099  -50.4282 N.am      16 UNK        -0.5000 
     90 CA         -2.8267  -28.1482  -51.1482 C.3       16 UNK         0.1400 
     91 CB         -2.8845  -29.6488  -51.5037 C.3       16 UNK        -0.1800 
     92 C          -3.0628  -27.2139  -52.3561 C.2       16 UNK         0.5000 
     93 O          -3.4600  -27.6656  -53.4321 O.2       16 UNK        -0.5000 
     94 N          -2.8018  -25.9199  -52.1413 N.am      17 UNK        -0.5000 
     95 CA         -3.0040  -24.8258  -53.0862 C.3       17 UNK         0.1400 
     96 CB         -1.7504  -23.9331  -53.0663 C.3       17 UNK        -0.1800 
     97 C          -4.2634  -24.0208  -52.7116 C.2       17 UNK         0.5000 
     98 O          -4.9100  -24.3002  -51.6981 O.2       17 UNK        -0.5000 
     99 N          -4.5948  -23.0282  -53.5462 N.am      18 UNK        -0.5000 
    100 CA        -5.7424  -22.1362  -53.3884 C.3       18 UNK         0.1400 
    101 CB        -6.0129  -21.4362  -54.7317 C.3       18 UNK        -0.1800 
    102 C         -5.5340  -21.1214  -52.2470 C.2       18 UNK         0.5000 
    103 O         -5.0962  -19.9951  -52.4903 O.2       18 UNK        -0.5000 
    104 N         -5.8706  -21.5265  -51.0158 N.am      19 UNK        -0.5000 
    105 CA        -5.7897  -20.6985  -49.8072 C.3       19 UNK         0.1400 
    106 CB        -6.1360  -21.5529  -48.5778 C.3       19 UNK        -0.1800 
    107 C         -6.6648  -19.4346  -49.8591 C.2       19 UNK         0.5000 
    108 O         -6.2773  -18.4106  -49.2984 O.2       19 UNK        -0.5000 
    109 N         -7.7942  -19.5116  -50.5755 N.am      20 UNK        -0.5000 
    110 CA        -8.6868  -18.3841  -50.8461 C.3       20 UNK         0.1400 
    111 CB        -9.9938  -18.9193  -51.4510 C.3       20 UNK        -0.1800 
    112 C         -8.0646  -17.3152  -51.7683 C.2       20 UNK         0.5000 
    113 O         -8.4682  -16.1539  -51.6941 O.2       20 UNK        -0.5000 
    114 N         -7.1057  -17.7169  -52.6150 N.am      21 UNK        -0.5000 
    115 CA        -6.3605  -16.8225  -53.4976 C.3       21 UNK         0.1400 
    116 CB        -6.0062  -17.5570  -54.8009 C.3       21 UNK        -0.1800 
    117 C         -5.0957  -16.2954  -52.8021 C.2       21 UNK         0.5000 
    118 O         -4.8388  -15.0916  -52.8512 O.2       21 UNK        -0.5000 
    119 N         -4.3303  -17.1996  -52.1757 N.am      22 UNK        -0.5000 
    120 CA        -3.0757  -16.8747  -51.4787 C.3       22 UNK         0.1400 
    121 C         -3.2726  -16.0966  -50.1483 C.2       22 UNK         0.5000 
    122 N         -4.2968  -16.3770  -49.3528 N.am      22 UNK        -0.7600 
    123 O         -2.4933  -15.1988  -49.8459 O.2       22 UNK        -0.5000 
    124 C124       -2.1789  -18.1242  -51.2833 C.3       23 UNK        -0.0398 
    125 S125       -1.5425  -18.7286  -52.8836 S.3       23 UNK        -0.2404 
    126 C126       -0.5599  -20.1906  -52.4009 C.3       23 UNK        -0.0205 
    127 H127        6.1474  -11.4222  -49.2167 H         1 UNK         0.0600 
    128 H128        6.4045  -13.0106  -49.9446 H         1 UNK         0.0600 
    129 H129        7.4125  -12.4861  -48.5927 H         1 UNK         0.0600 
    130 H130        4.8468  -14.4825  -49.3296 H         1 UNK         0.3000 
    131 H131        4.2115  -15.0962  -46.6483 H         1 UNK         0.0600 
    132 H132        4.1323  -16.8103  -48.3655 H         1 UNK         0.0800 
    133 H133        2.5785  -16.6968  -47.6108 H         1 UNK         0.0800 
    134 H134        3.2853  -16.8251  -51.9610 H         1 UNK         0.0800 
    135 H135        4.3337  -17.2845  -50.6504 H         1 UNK         0.0800 
    136 H136        0.9670  -17.8585  -52.1402 H         1 UNK         0.1150 
    137 H137        0.7863  -21.9542  -50.8847 H         1 UNK         0.1150 
    138 H138        4.0391  -19.4657  -49.6315 H         1 UNK         0.1150 
    139 H139        2.4458  -22.9092  -49.5370 H         1 UNK         0.0800 
    140 H140        4.0044  -22.3059  -50.0139 H         1 UNK         0.0800 
    141 H141        1.4158  -20.5979  -47.6588 H         1 UNK         0.0800 
    142 H142        2.2711  -20.5699  -46.1527 H         1 UNK         0.0800 
    143 H143        1.7612  -23.1035  -45.9091 H         1 UNK         0.0600 
    144 H144        0.1778  -20.8996  -45.2030 H         1 UNK         0.3000 
    145 H145       -2.5014  -22.6123  -43.5468 H         1 UNK         0.0600 
    146 H146       -0.6211  -22.3560  -41.9292 H         1 UNK         0.0600 
    147 H147       -0.2318  -20.7801  -42.6070 H         1 UNK         0.0600 
    148 H148       -1.7692  -21.0331  -41.7854 H         1 UNK         0.0600 
    149 H149       -2.0595  -19.8420  -44.0352 H         1 UNK         0.3000 
    150 H150       -3.8104  -19.6803  -47.1798 H         1 UNK         0.0600 
    151 H151       -5.5186  -19.5003  -45.3858 H         1 UNK         0.0600 
    152 H152       -4.9825  -17.9082  -45.9019 H         1 UNK         0.0600 
    153 H153       -4.4017  -18.5855  -44.3812 H         1 UNK         0.0600 
    154 H154       -2.4597  -17.6552  -45.7216 H         1 UNK         0.3000 
    155 H155        0.7898  -18.1629  -47.1512 H         1 UNK         0.0600 
    156 H156       -1.3958  -16.0495  -47.5329 H         1 UNK         0.0600 
    157 H157        0.3218  -15.7068  -47.6025 H         1 UNK         0.0600 
    158 H158       -0.3968  -16.7862  -48.7743 H         1 UNK         0.0600 
    159 H159       -0.2200  -16.3119  -45.2140 H         1 UNK         0.3000 
    160 H160        0.4969  -18.3011  -42.3131 H         1 UNK         0.0600 
    161 H161        1.8278  -15.8035  -43.4975 H         1 UNK         0.0600 
    162 H162        2.6580  -17.2546  -42.9494 H         1 UNK         0.0600 
    163 H163        1.8080  -16.2420  -41.7906 H         1 UNK         0.0600 
    164 H164       -0.5262  -15.6445  -42.7005 H         1 UNK         0.3000 
    165 H165       -3.9676  -16.4947  -43.0274 H         1 UNK         0.0600 
    166 H166       -4.2232  -15.0615  -41.0144 H         1 UNK         0.0600 
    167 H167       -3.6427  -16.6536  -40.5519 H         1 UNK         0.0600 
    168 H168       -2.5244  -15.2954  -40.5993 H         1 UNK         0.0600 
    169 H169       -2.5349  -14.0221  -42.7066 H         1 UNK         0.3000 
    170 H170       -0.9229  -13.8180  -45.6854 H         1 UNK         0.0600 
    171 H171       -3.0643  -13.4026  -46.8956 H         1 UNK         0.0600 
    172 H172       -3.6047  -12.3459  -45.5952 H         1 UNK         0.0600 
    173 H173       -2.2085  -11.9045  -46.5796 H         1 UNK         0.0600 
    174 H174       -1.5619  -11.5589  -44.2915 H         1 UNK         0.3000 
    175 H175       -0.8208  -10.8819  -42.1789 H         1 UNK         0.0600 
    176 H176        1.5242  -12.5125  -41.0612 H         1 UNK         0.0600 
    177 H177        1.0116  -10.9293  -40.4805 H         1 UNK         0.0600 
    178 H178       -0.0607  -12.3140  -40.3383 H         1 UNK         0.0600 
    179 H179        0.5356   -9.9186  -43.6460 H         1 UNK         0.3000 
    180 H180        2.2398   -9.2657  -44.8212 H         1 UNK         0.0600 
    181 H181        4.8055  -10.9416  -44.6851 H         1 UNK         0.0600 
    182 H182        4.4778   -9.4905  -43.7463 H         1 UNK         0.0600 
    183 H183        4.6231   -9.3879  -45.4952 H         1 UNK         0.0600 
    184 H184        3.2174  -11.4770  -46.4563 H         1 UNK         0.3000 
    185 H185        0.1829  -12.5829  -47.6682 H         1 UNK         0.0600 
    186 H186        0.0717  -10.5105  -49.0575 H         1 UNK         0.0600 
    187 H187        1.8030  -10.6040  -49.3587 H         1 UNK         0.0600 
    188 H188        0.7241  -11.8562  -49.9772 H         1 UNK         0.0600 
    189 H189        2.7784  -12.8029  -48.8194 H         1 UNK         0.3000 
    190 H190       -0.8920  -21.5257  -47.7475 H         1 UNK         0.3000 
    191 H191       -0.9242  -23.2576  -49.9489 H         1 UNK         0.0600 
    192 H192       -2.0238  -21.0073  -49.8256 H         1 UNK         0.0600 
    193 H193       -3.2035  -21.6536  -48.7047 H         1 UNK         0.0600 
    194 H194       -3.1546  -22.2459  -50.3665 H         1 UNK         0.0600 
    195 H195       -2.7790  -23.4672  -46.8663 H         1 UNK         0.3000 
    196 H196       -4.2950  -25.7592  -47.5183 H         1 UNK         0.0600 
    197 H197       -4.5960  -25.9505  -45.0445 H         1 UNK         0.0600 
    198 H198       -4.8113  -24.2951  -45.5932 H         1 UNK         0.0600 
    199 H199       -3.3174  -24.7695  -44.7880 H         1 UNK         0.0600 
    200 H200       -1.0177  -25.4886  -46.0960 H         1 UNK         0.3000 
    201 H201       -0.6118  -28.3143  -45.7381 H         1 UNK         0.0600 
    202 H202        0.6685  -26.6157  -44.4681 H         1 UNK         0.0600 
    203 H203        1.4009  -26.0131  -45.9519 H         1 UNK         0.0600 
    204 H204        1.7611  -27.6402  -45.3882 H         1 UNK         0.0600 
    205 H205        0.2382  -26.0179  -48.3558 H         1 UNK         0.3000 
    206 H206        1.6149  -27.9293  -49.9942 H         1 UNK         0.0600 
    207 H207        2.0481  -25.4792  -50.0645 H         1 UNK         0.0600 
    208 H208        1.5765  -26.0639  -51.6522 H         1 UNK         0.0600 
    209 H209        0.4152  -25.1884  -50.6632 H         1 UNK         0.0600 
    210 H210       -1.7331  -27.2921  -49.5693 H         1 UNK         0.3000 
    211 H211       -3.6416  -27.9482  -50.4508 H         1 UNK         0.0600 
    212 H212       -2.1484  -29.9192  -52.2609 H         1 UNK         0.0600 
    213 H213       -3.8662  -29.9164  -51.8961 H         1 UNK         0.0600 
    214 H214       -2.7066  -30.2686  -50.6249 H         1 UNK         0.0600 
    215 H215       -2.5781  -25.6410  -51.1871 H         1 UNK         0.3000 
    216 H216       -3.1388  -25.2189  -54.0958 H         1 UNK         0.0600 
    217 H217       -0.8481  -24.5167  -53.2513 H         1 UNK         0.0600 
    218 H218       -1.6305  -23.4301  -52.1087 H         1 UNK         0.0600 
    219 H219       -1.7976  -23.1623  -53.8361 H         1 UNK         0.0600 
    220 H220       -4.0019  -22.8446  -54.3424 H         1 UNK         0.3000 
    221 H221       -6.6216  -22.7376  -53.1476 H         1 UNK         0.0600 
    222 H222       -5.1478  -20.8658  -55.0724 H         1 UNK         0.0600 
    223 H223       -6.2628  -22.1589  -55.5086 H         1 UNK         0.0600 
    224 H224       -6.8523  -20.7442  -54.6513 H         1 UNK         0.0600 
    225 H225       -6.1508  -22.4908  -50.8910 H         1 UNK         0.3000 
    226 H226       -4.7621  -20.3476  -49.7138 H         1 UNK         0.0600 
    227 H227       -5.4754  -22.4162  -48.4925 H         1 UNK         0.0600 
    228 H228       -6.0327  -20.9757  -47.6581 H         1 UNK         0.0600 
    229 H229       -7.1615  -21.9213  -48.6213 H         1 UNK         0.0600 
    230 H230       -8.0358  -20.3958  -50.9980 H         1 UNK         0.3000 
    231 H231       -8.9215  -17.9015  -49.8949 H         1 UNK         0.0600 
    232 H232      -10.6977  -18.1078  -51.6403 H         1 UNK         0.0600 
    233 H233      -10.4836  -19.6209  -50.7755 H         1 UNK         0.0600 
    234 H234       -9.8191  -19.4299  -52.3989 H         1 UNK         0.0600 
    235 H235       -6.7834  -18.6746  -52.5736 H         1 UNK         0.3000 
    236 H236       -6.9835  -15.9654  -53.7628 H         1 UNK         0.0600 
    237 H237       -6.9005  -17.9320  -55.2985 H         1 UNK         0.0600 
    238 H238       -5.5023  -16.8865  -55.4980 H         1 UNK         0.0600 
    239 H239       -5.3407  -18.4022  -54.6257 H         1 UNK         0.0600 
    240 H240       -4.5858  -18.1820  -52.2199 H         1 UNK         0.3000 
    241 H241       -2.5231  -16.1928  -52.1292 H         1 UNK         0.0600 
    242 H242       -4.9681  -17.1115  -49.5597 H         1 UNK         0.3800 
    243 H243       -4.4023  -15.8491  -48.5026 H         1 UNK         0.3800 
    244 H244       -1.3218  -17.8961  -50.6484 H         1 UNK         0.0800 
    245 H245       -2.7333  -18.9205  -50.7850 H         1 UNK         0.0800 
    246 H246       -1.2127  -20.8897  -51.8823 H         1 UNK         0.0800 
    247 H247       -0.2543  -20.6974  -53.3170 H         1 UNK         0.0800 
@<TRIPOS>BOND
     1    1    2 1    
     2    1  127 1    
     3    1  128 1    
     4    1  129 1    
     5    2    3 2    
     6    2    4 am   BACKBONE|DICT|INTERRES
     7    4    5 1    
     8    4  130 1    
     9    5    6 1    
    10    5   65 1    
    11    5  131 1    
    12    6    7 1    
    13    6  132 1    
    14    6  133 1    
    15    7    8 1    
    16    8    9 1    
    17    8  134 1    
    18    8  135 1    
    19    9   10 ar   
    20    9   14 ar   
    21   10   11 ar   
    22   10  136 1    
    23   11   12 ar   
    24   11  126 1    
    25   12   13 ar   
    26   12  137 1    
    27   13   14 ar   
    28   13   15 1    
    29   14  138 1    
    30   15   16 1    
    31   15  139 1    
    32   15  140 1    
    33   16   17 1    
    34   17   18 1    
    35   17  141 1    
    36   17  142 1    
    37   18   19 1    
    38   18   67 1    
    39   18  143 1    
    40   19   20 am   BACKBONE|DICT|INTERRES
    41   19  144 1    
    42   20   21 2    
    43   20   22 1    
    44   22   23 1    
    45   22   24 1    
    46   22  145 1    
    47   23  146 1    
    48   23  147 1    
    49   23  148 1    
    50   24   25 am   BACKBONE|DICT|INTERRES
    51   24  149 1    
    52   25   26 2    
    53   25   27 1    
    54   27   28 1    
    55   27   29 1    
    56   27  150 1    
    57   28  151 1    
    58   28  152 1    
    59   28  153 1    
    60   29   30 am   BACKBONE|DICT|INTERRES
    61   29  154 1    
    62   30   31 2    
    63   30   32 1    
    64   32   33 1    
    65   32   34 1    
    66   32  155 1    
    67   33  156 1    
    68   33  157 1    
    69   33  158 1    
    70   34   35 am   BACKBONE|DICT|INTERRES
    71   34  159 1    
    72   35   36 2    
    73   35   37 1    
    74   37   38 1    
    75   37   39 1    
    76   37  160 1    
    77   38  161 1    
    78   38  162 1    
    79   38  163 1    
    80   39   40 am   BACKBONE|DICT|INTERRES
    81   39  164 1    
    82   40   41 2    
    83   40   42 1    
    84   42   43 1    
    85   42   44 1    
    86   42  165 1    
    87   43  166 1    
    88   43  167 1    
    89   43  168 1    
    90   44   45 am   BACKBONE|DICT|INTERRES
    91   44  169 1    
    92   45   46 2    
    93   45   47 1    
    94   47   48 1    
    95   47   49 1    
    96   47  170 1    
    97   48  171 1    
    98   48  172 1    
    99   48  173 1    
   100   49   50 am   BACKBONE|DICT|INTERRES
   101   49  174 1    
   102   50   51 2    
   103   50   52 1    
   104   52   53 1    
   105   52   54 1    
   106   52  175 1    
   107   53  176 1    
   108   53  177 1    
   109   53  178 1    
   110   54   55 am   BACKBONE|DICT|INTERRES
   111   54  179 1    
   112   55   56 2    
   113   55   57 1    
   114   57   58 1    
   115   57   59 1    
   116   57  180 1    
   117   58  181 1    
   118   58  182 1    
   119   58  183 1    
   120   59   60 am   BACKBONE|DICT|INTERRES
   121   59  184 1    
   122   60   61 2    
   123   60   62 1    
   124   62   63 1    
   125   62   64 1    
   126   62  185 1    
   127   63  186 1    
   128   63  187 1    
   129   63  188 1    
   130   64   65 am   BACKBONE|DICT|INTERRES
   131   64  189 1    
   132   65   66 2    
   133   67   68 2    
   134   67   69 am   BACKBONE|DICT|INTERRES
   135   69   70 1    
   136   69  190 1    
   137   70   71 1    
   138   70   72 1    
   139   70  191 1    
   140   71  192 1    
   141   71  193 1    
   142   71  194 1    
   143   72   73 2    
   144   72   74 am   BACKBONE|DICT|INTERRES
   145   74   75 1    
   146   74  195 1    
   147   75   76 1    
   148   75   77 1    
   149   75  196 1    
   150   76  197 1    
   151   76  198 1    
   152   76  199 1    
   153   77   78 2    
   154   77   79 am   BACKBONE|DICT|INTERRES
   155   79   80 1    
   156   79  200 1    
   157   80   81 1    
   158   80   82 1    
   159   80  201 1    
   160   81  202 1    
   161   81  203 1    
   162   81  204 1    
   163   82   83 2    
   164   82   84 am   BACKBONE|DICT|INTERRES
   165   84   85 1    
   166   84  205 1    
   167   85   86 1    
   168   85   87 1    
   169   85  206 1    
   170   86  207 1    
   171   86  208 1    
   172   86  209 1    
   173   87   88 2    
   174   87   89 am   BACKBONE|DICT|INTERRES
   175   89   90 1    
   176   89  210 1    
   177   90   91 1    
   178   90   92 1    
   179   90  211 1    
   180   91  212 1    
   181   91  213 1    
   182   91  214 1    
   183   92   93 2    
   184   92   94 am   BACKBONE|DICT|INTERRES
   185   94   95 1    
   186   94  215 1    
   187   95   96 1    
   188   95   97 1    
   189   95  216 1    
   190   96  217 1    
   191   96  218 1    
   192   96  219 1    
   193   97   98 2    
   194   97   99 am   BACKBONE|DICT|INTERRES
   195   99  100 1    
   196   99  220 1    
   197  100  101 1    
   198  100  102 1    
   199  100  221 1    
   200  101  222 1    
   201  101  223 1    
   202  101  224 1    
   203  102  103 2    
   204  102  104 am   BACKBONE|DICT|INTERRES
   205  104  105 1    
   206  104  225 1    
   207  105  106 1    
   208  105  107 1    
   209  105  226 1    
   210  106  227 1    
   211  106  228 1    
   212  106  229 1    
   213  107  108 2    
   214  107  109 am   BACKBONE|DICT|INTERRES
   215  109  110 1    
   216  109  230 1    
   217  110  111 1    
   218  110  112 1    
   219  110  231 1    
   220  111  232 1    
   221  111  233 1    
   222  111  234 1    
   223  112  113 2    
   224  112  114 am   BACKBONE|DICT|INTERRES
   225  114  115 1    
   226  114  235 1    
   227  115  116 1    
   228  115  117 1    
   229  115  236 1    
   230  116  237 1    
   231  116  238 1    
   232  116  239 1    
   233  117  118 2    
   234  117  119 am   BACKBONE|DICT|INTERRES
   235  119  120 1    
   236  119  240 1    
   237  120  121 1    
   238  120  124 1    
   239  120  241 1    
   240  121  122 am   BACKBONE|DICT|INTERRES
   241  121  123 2    
   242  122  242 1    
   243  122  243 1    
   244  124  125 1    
   245  124  244 1    
   246  124  245 1    
   247  125  126 1    
   248  126  246 1    
   249  126  247 1    
@<TRIPOS>SUBSTRUCTURE
     1 UNK         1 GROUP             0       ****    0 ROOT    
