@<TRIPOS>MOLECULE
3R540
247   249    1
SMALL
USER_CHARGES


@<TRIPOS>ATOM
      1 CA          7.4498  -20.0003  -44.3593 C.3       0 UNK        -0.1800 
      2 C           6.2376  -19.0819  -44.4227 C.2       0 UNK         0.5000 
      3 O           5.3926  -19.1215  -43.5286 O.2       0 UNK        -0.5000 
      4 N           6.1446  -18.2694  -45.4820 N.am      1 UNK        -0.5000 
      5 CA          5.0729  -17.2951  -45.7056 C.3       1 UNK         0.1400 
      6 C6          5.1022  -16.7283  -47.1461 C.3       23 UNK        -0.0398 
      7 S7          4.7945  -18.0203  -48.3904 S.3       23 UNK        -0.2404 
      8 C8          5.0404  -17.0998  -49.9382 C.3       23 UNK        -0.0205 
      9 C9          4.1745  -17.6806  -51.0437 C.ar      23 UNK        -0.0193 
     10 C10         3.0115  -17.0175  -51.4464 C.ar      23 UNK        -0.1150 
     11 C11         2.1813  -17.5718  -52.4249 C.ar      23 UNK        -0.0193 
     12 C12         2.5390  -18.7821  -53.0227 C.ar      23 UNK        -0.1150 
     13 C13         3.6857  -19.4659  -52.6125 C.ar      23 UNK        -0.0193 
     14 C14         4.5103  -18.9024  -51.6348 C.ar      23 UNK        -0.1150 
     15 C15         4.0058  -20.8323  -53.1973 C.3       23 UNK        -0.0205 
     16 S16         3.6144  -22.1824  -52.0351 S.3       23 UNK        -0.2404 
     17 C17         1.7986  -22.0507  -51.8525 C.3       23 UNK        -0.0398 
     18 CA          1.3177  -22.5098  -50.4561 C.3       11 UNK         0.1400 
     19 N           1.9401  -21.7617  -49.3591 N.am      11 UNK        -0.5000 
     20 C           1.9190  -22.1594  -48.0796 C.2       10 UNK         0.5000 
     21 O           1.3666  -23.1885  -47.6931 O.2       10 UNK        -0.5000 
     22 CA          2.5891  -21.2315  -47.0536 C.3       10 UNK         0.1400 
     23 CB          4.1067  -21.4651  -47.0207 C.3       10 UNK        -0.1800 
     24 N           2.3207  -19.8144  -47.2981 N.am      10 UNK        -0.5000 
     25 C           1.1094  -19.2484  -47.2541 C.2       9 UNK         0.5000 
     26 O           0.0632  -19.8775  -47.0831 O.2       9 UNK        -0.5000 
     27 CA          1.0512  -17.7288  -47.4765 C.3       9 UNK         0.1400 
     28 CB          0.6091  -17.4101  -48.9097 C.3       9 UNK        -0.1800 
     29 N           0.1160  -17.1179  -46.5379 N.am      9 UNK        -0.5000 
     30 C           0.3865  -16.8949  -45.2469 C.2       8 UNK         0.5000 
     31 O           1.5181  -17.0125  -44.7684 O.2       8 UNK        -0.5000 
     32 CA         -0.7912  -16.4274  -44.3600 C.3       8 UNK         0.1400 
     33 CB         -2.1737  -16.8839  -44.8790 C.3       8 UNK        -0.1800 
     34 N          -0.6352  -16.7960  -42.9522 N.am      8 UNK        -0.5000 
     35 C          -0.5232  -18.0320  -42.4402 C.2       7 UNK         0.5000 
     36 O          -0.5202  -19.0643  -43.1115 O.2       7 UNK        -0.5000 
     37 CA         -0.4280  -18.1406  -40.9042 C.3       7 UNK         0.1400 
     38 CB          1.0411  -18.1807  -40.4579 C.3       7 UNK        -0.1800 
     39 N          -1.1063  -17.0490  -40.2026 N.am      7 UNK        -0.5000 
     40 C          -2.4294  -16.8287  -40.2089 C.2       6 UNK         0.5000 
     41 O          -3.2456  -17.5912  -40.7277 O.2       6 UNK        -0.5000 
     42 CA         -2.9286  -15.5325  -39.5349 C.3       6 UNK         0.1400 
     43 CB         -3.5436  -15.8433  -38.1614 C.3       6 UNK        -0.1800 
     44 N          -1.8940  -14.5048  -39.3688 N.am      6 UNK        -0.5000 
     45 C          -1.2677  -13.8708  -40.3693 C.2       5 UNK         0.5000 
     46 O          -1.5002  -14.0844  -41.5617 O.2       5 UNK        -0.5000 
     47 CA         -0.1718  -12.8780  -39.9478 C.3       5 UNK         0.1400 
     48 CB          1.0403  -13.6312  -39.3711 C.3       5 UNK        -0.1800 
     49 N           0.2789  -12.0938  -41.0943 N.am      5 UNK        -0.5000 
     50 C          -0.0214  -10.8089  -41.3222 C.2       4 UNK         0.5000 
     51 O          -0.7188  -10.1301  -40.5666 O.2       4 UNK        -0.5000 
     52 CA          0.5677  -10.1480  -42.5869 C.3       4 UNK         0.1400 
     53 CB          1.7000   -9.1808  -42.2060 C.3       4 UNK        -0.1800 
     54 N           1.0879  -11.1095  -43.5598 N.am      4 UNK        -0.5000 
     55 C           0.3373  -11.8115  -44.4183 C.2       3 UNK         0.5000 
     56 O          -0.8806  -11.6729  -44.5330 O.2       3 UNK        -0.5000 
     57 CA          1.0671  -12.8521  -45.2931 C.3       3 UNK         0.1400 
     58 CB          1.3700  -12.2710  -46.6824 C.3       3 UNK        -0.1800 
     59 N           2.3102  -13.3862  -44.7224 N.am      3 UNK        -0.5000 
     60 C           2.4256  -14.0237  -43.5489 C.2       2 UNK         0.5000 
     61 O           1.4934  -14.1819  -42.7619 O.2       2 UNK        -0.5000 
     62 CA          3.8036  -14.6248  -43.2496 C.3       2 UNK         0.1400 
     63 CB          3.9618  -15.0979  -41.7931 C.3       2 UNK        -0.1800 
     64 N           3.9854  -15.7466  -44.1603 N.am      2 UNK        -0.5000 
     65 C           5.1471  -16.1430  -44.6842 C.2       1 UNK         0.5000 
     66 O           6.2338  -15.6180  -44.4283 O.2       1 UNK        -0.5000 
     67 C          -0.2215  -22.4790  -50.3601 C.2       11 UNK         0.5000 
     68 O          -0.8600  -23.4958  -50.6305 O.2       11 UNK        -0.5000 
     69 N          -0.7894  -21.3404  -49.9304 N.am      12 UNK        -0.5000 
     70 CA         -2.2231  -21.1933  -49.6733 C.3       12 UNK         0.1400 
     71 CB         -2.5903  -19.7167  -49.4773 C.3       12 UNK        -0.1800 
     72 C          -2.6784  -22.0251  -48.4665 C.2       12 UNK         0.5000 
     73 O          -3.7156  -22.6814  -48.5484 O.2       12 UNK        -0.5000 
     74 N          -1.8798  -22.0144  -47.3902 N.am      13 UNK        -0.5000 
     75 CA         -2.0945  -22.8166  -46.1868 C.3       13 UNK         0.1400 
     76 CB         -1.0841  -22.4061  -45.1053 C.3       13 UNK        -0.1800 
     77 C          -2.0247  -24.3290  -46.4665 C.2       13 UNK         0.5000 
     78 O          -2.8887  -25.0684  -45.9955 O.2       13 UNK        -0.5000 
     79 N          -1.0340  -24.7536  -47.2649 N.am      14 UNK        -0.5000 
     80 CA         -0.8583  -26.1363  -47.7162 C.3       14 UNK         0.1400 
     81 CB          0.4916  -26.2748  -48.4360 C.3       14 UNK        -0.1800 
     82 C          -2.0063  -26.6257  -48.6189 C.2       14 UNK         0.5000 
     83 O          -2.4427  -27.7688  -48.4799 O.2       14 UNK        -0.5000 
     84 N          -2.4926  -25.7465  -49.5057 N.am      15 UNK        -0.5000 
     85 CA         -3.6439  -25.9949  -50.3757 C.3       15 UNK         0.1400 
     86 CB         -3.6255  -24.9765  -51.5283 C.3       15 UNK        -0.1800 
     87 C          -4.9971  -25.9241  -49.6416 C.2       15 UNK         0.5000 
     88 O          -6.0027  -26.3464  -50.2090 O.2       15 UNK        -0.5000 
     89 N          -5.0183  -25.3440  -48.4322 N.am      16 UNK        -0.5000 
     90 CA         -6.2035  -24.9701  -47.6501 C.3       16 UNK         0.1400 
     91 CB         -6.9536  -26.2222  -47.1512 C.3       16 UNK        -0.1800 
     92 C          -7.1094  -23.9778  -48.4149 C.2       16 UNK         0.5000 
     93 O          -8.3357  -24.0839  -48.3656 O.2       16 UNK        -0.5000 
     94 N          -6.4629  -23.0530  -49.1414 N.am      17 UNK        -0.5000 
     95 CA         -7.0207  -22.0348  -50.0380 C.3       17 UNK         0.1400 
     96 CB         -7.8742  -21.0216  -49.2488 C.3       17 UNK        -0.1800 
     97 C          -7.7656  -22.5883  -51.2756 C.2       17 UNK         0.5000 
     98 O          -8.4247  -21.8123  -51.9719 O.2       17 UNK        -0.5000 
     99 N          -7.6470  -23.8962  -51.5565 N.am      18 UNK        -0.5000 
    100 CA        -8.2648  -24.5593  -52.7075 C.3       18 UNK         0.1400 
    101 CB        -8.0462  -26.0755  -52.6121 C.3       18 UNK        -0.1800 
    102 C         -7.7226  -24.0268  -54.0452 C.2       18 UNK         0.5000 
    103 O         -6.5489  -23.6587  -54.1293 O.2       18 UNK        -0.5000 
    104 N         -8.6021  -23.9819  -55.0562 N.am      19 UNK        -0.5000 
    105 CA        -8.3644  -23.4571  -56.4090 C.3       19 UNK         0.1400 
    106 CB        -7.3499  -24.3404  -57.1658 C.3       19 UNK        -0.1800 
    107 C         -7.9841  -21.9579  -56.4367 C.2       19 UNK         0.5000 
    108 O         -7.3567  -21.5049  -57.3955 O.2       19 UNK        -0.5000 
    109 N         -8.3757  -21.2216  -55.3836 N.am      20 UNK        -0.5000 
    110 CA        -8.0789  -19.8105  -55.1208 C.3       20 UNK         0.1400 
    111 CB        -8.8035  -18.8994  -56.1340 C.3       20 UNK        -0.1800 
    112 C         -6.5646  -19.5276  -55.0215 C.2       20 UNK         0.5000 
    113 O         -6.0856  -18.5290  -55.5651 O.2       20 UNK        -0.5000 
    114 N         -5.8360  -20.4213  -54.3337 N.am      21 UNK        -0.5000 
    115 CA        -4.3951  -20.3363  -54.0824 C.3       21 UNK         0.1400 
    116 CB        -3.9569  -21.5261  -53.2140 C.3       21 UNK        -0.1800 
    117 C         -3.9922  -18.9986  -53.4300 C.2       21 UNK         0.5000 
    118 O         -4.4923  -18.6723  -52.3517 O.2       21 UNK        -0.5000 
    119 N         -3.1294  -18.2495  -54.1276 N.am      22 UNK        -0.5000 
    120 CA        -2.6860  -16.8804  -53.8028 C.3       22 UNK         0.1400 
    121 C         -3.7829  -15.7810  -53.9627 C.2       22 UNK         0.5000 
    122 N         -4.9328  -16.0564  -54.5667 N.am      22 UNK        -0.7600 
    123 O         -3.5770  -14.6376  -53.5642 O.2       22 UNK        -0.5000 
    124 C124       -1.9356  -16.7638  -52.4455 C.3       23 UNK        -0.0398 
    125 S125       -0.5416  -17.9293  -52.2855 S.3       23 UNK        -0.2404 
    126 C126        0.8700  -16.8992  -52.7981 C.3       23 UNK        -0.0205 
    127 H127        8.1090  -19.8620  -45.2167 H         1 UNK         0.0600 
    128 H128        7.1299  -21.0422  -44.3415 H         1 UNK         0.0600 
    129 H129        8.0235  -19.8026  -43.4538 H         1 UNK         0.0600 
    130 H130        6.8765  -18.2767  -46.1775 H         1 UNK         0.3000 
    131 H131        4.1227  -17.8151  -45.5616 H         1 UNK         0.0600 
    132 H132        6.0620  -16.2523  -47.3564 H         1 UNK         0.0800 
    133 H133        4.3387  -15.9580  -47.2720 H         1 UNK         0.0800 
    134 H134        6.0922  -17.1433  -50.2246 H         1 UNK         0.0800 
    135 H135        4.8024  -16.0456  -49.7877 H         1 UNK         0.0800 
    136 H136        2.7345  -16.0863  -50.9727 H         1 UNK         0.1150 
    137 H137        1.8904  -19.2171  -53.7704 H         1 UNK         0.1150 
    138 H138        5.3941  -19.4321  -51.3072 H         1 UNK         0.1150 
    139 H139        3.4641  -20.9921  -54.1310 H         1 UNK         0.0800 
    140 H140        5.0665  -20.8775  -53.4479 H         1 UNK         0.0800 
    141 H141        1.4722  -21.0282  -52.0367 H         1 UNK         0.0800 
    142 H142        1.3410  -22.6614  -52.6330 H         1 UNK         0.0800 
    143 H143        1.6156  -23.5547  -50.3426 H         1 UNK         0.0600 
    144 H144        2.4298  -20.9137  -49.6040 H         1 UNK         0.3000 
    145 H145        2.1852  -21.4798  -46.0700 H         1 UNK         0.0600 
    146 H146        4.5790  -20.8702  -46.2395 H         1 UNK         0.0600 
    147 H147        4.5766  -21.2054  -47.9703 H         1 UNK         0.0600 
    148 H148        4.3367  -22.5113  -46.8154 H         1 UNK         0.0600 
    149 H149        3.1273  -19.2374  -47.4998 H         1 UNK         0.3000 
    150 H150        2.0444  -17.3041  -47.3206 H         1 UNK         0.0600 
    151 H151        1.2020  -17.9719  -49.6308 H         1 UNK         0.0600 
    152 H152        0.7335  -16.3511  -49.1355 H         1 UNK         0.0600 
    153 H153       -0.4355  -17.6669  -49.0817 H         1 UNK         0.0600 
    154 H154       -0.8397  -17.0373  -46.8509 H         1 UNK         0.3000 
    155 H155       -0.7787  -15.3382  -44.3735 H         1 UNK         0.0600 
    156 H156       -2.4134  -16.4242  -45.8382 H         1 UNK         0.0600 
    157 H157       -2.9649  -16.5966  -44.1859 H         1 UNK         0.0600 
    158 H158       -2.2220  -17.9665  -45.0056 H         1 UNK         0.0600 
    159 H159       -0.6108  -16.0103  -42.3134 H         1 UNK         0.3000 
    160 H160       -0.9024  -19.0790  -40.6096 H         1 UNK         0.0600 
    161 H161        1.5517  -17.2446  -40.6836 H         1 UNK         0.0600 
    162 H162        1.5829  -18.9809  -40.9641 H         1 UNK         0.0600 
    163 H163        1.1241  -18.3593  -39.3857 H         1 UNK         0.0600 
    164 H164       -0.5172  -16.3750  -39.7381 H         1 UNK         0.3000 
    165 H165       -3.7110  -15.1179  -40.1741 H         1 UNK         0.0600 
    166 H166       -3.9772  -14.9502  -37.7111 H         1 UNK         0.0600 
    167 H167       -4.3423  -16.5812  -38.2479 H         1 UNK         0.0600 
    168 H168       -2.8011  -16.2432  -37.4696 H         1 UNK         0.0600 
    169 H169       -1.6431  -14.2787  -38.4169 H         1 UNK         0.3000 
    170 H170       -0.5789  -12.2261  -39.1723 H         1 UNK         0.0600 
    171 H171        1.4285  -14.3705  -40.0723 H         1 UNK         0.0600 
    172 H172        1.8515  -12.9444  -39.1287 H         1 UNK         0.0600 
    173 H173        0.7802  -14.1572  -38.4521 H         1 UNK         0.0600 
    174 H174        0.7610  -12.6267  -41.8118 H         1 UNK         0.3000 
    175 H175       -0.2305   -9.5685  -43.0556 H         1 UNK         0.0600 
    176 H176        2.5314   -9.7022  -41.7298 H         1 UNK         0.0600 
    177 H177        2.0865   -8.6605  -43.0826 H         1 UNK         0.0600 
    178 H178        1.3474   -8.4199  -41.5084 H         1 UNK         0.0600 
    179 H179        2.0814  -11.2852  -43.5382 H         1 UNK         0.3000 
    180 H180        0.3843  -13.6907  -45.4284 H         1 UNK         0.0600 
    181 H181        2.0842  -11.4486  -46.6267 H         1 UNK         0.0600 
    182 H182        0.4636  -11.8874  -47.1529 H         1 UNK         0.0600 
    183 H183        1.7813  -13.0308  -47.3474 H         1 UNK         0.0600 
    184 H184        3.1301  -13.3142  -45.3072 H         1 UNK         0.3000 
    185 H185        4.5493  -13.8521  -43.4482 H         1 UNK         0.0600 
    186 H186        4.9674  -15.4761  -41.6094 H         1 UNK         0.0600 
    187 H187        3.7886  -14.2785  -41.0946 H         1 UNK         0.0600 
    188 H188        3.2582  -15.8944  -41.5526 H         1 UNK         0.0600 
    189 H189        3.1242  -16.2324  -44.4148 H         1 UNK         0.3000 
    190 H190       -0.1989  -20.5609  -49.6828 H         1 UNK         0.3000 
    191 H191       -2.7613  -21.5603  -50.5479 H         1 UNK         0.0600 
    192 H192       -2.3193  -19.1243  -50.3485 H         1 UNK         0.0600 
    193 H193       -2.0993  -19.2871  -48.6045 H         1 UNK         0.0600 
    194 H194       -3.6658  -19.6013  -49.3364 H         1 UNK         0.0600 
    195 H195       -1.0738  -21.3947  -47.3843 H         1 UNK         0.3000 
    196 H196       -3.0968  -22.5933  -45.8155 H         1 UNK         0.0600 
    197 H197       -1.1760  -21.3471  -44.8617 H         1 UNK         0.0600 
    198 H198       -0.0569  -22.5856  -45.4225 H         1 UNK         0.0600 
    199 H199       -1.2472  -22.9674  -44.1846 H         1 UNK         0.0600 
    200 H200       -0.3264  -24.0872  -47.5628 H         1 UNK         0.3000 
    201 H201       -0.8378  -26.7750  -46.8308 H         1 UNK         0.0600 
    202 H202        1.3187  -26.0125  -47.7761 H         1 UNK         0.0600 
    203 H203        0.5468  -25.6305  -49.3140 H         1 UNK         0.0600 
    204 H204        0.6543  -27.3004  -48.7693 H         1 UNK         0.0600 
    205 H205       -2.0357  -24.8462  -49.6075 H         1 UNK         0.3000 
    206 H206       -3.5522  -26.9960  -50.8016 H         1 UNK         0.0600 
    207 H207       -2.7070  -25.0549  -52.1099 H         1 UNK         0.0600 
    208 H208       -3.7012  -23.9528  -51.1600 H         1 UNK         0.0600 
    209 H209       -4.4580  -25.1387  -52.2147 H         1 UNK         0.0600 
    210 H210       -4.1386  -25.0017  -48.0681 H         1 UNK         0.3000 
    211 H211       -5.8335  -24.4343  -46.7748 H         1 UNK         0.0600 
    212 H212       -7.4080  -26.7788  -47.9713 H         1 UNK         0.0600 
    213 H213       -7.7522  -25.9486  -46.4608 H         1 UNK         0.0600 
    214 H214       -6.2821  -26.8962  -46.6194 H         1 UNK         0.0600 
    215 H215       -5.4476  -23.0386  -49.0571 H         1 UNK         0.3000 
    216 H216       -6.1605  -21.4927  -50.4325 H         1 UNK         0.0600 
    217 H217       -8.1561  -20.1742  -49.8747 H         1 UNK         0.0600 
    218 H218       -7.3242  -20.6228  -48.3964 H         1 UNK         0.0600 
    219 H219       -8.7947  -21.4709  -48.8754 H         1 UNK         0.0600 
    220 H220       -7.0808  -24.4791  -50.9541 H         1 UNK         0.3000 
    221 H221       -9.3378  -24.3626  -52.6599 H         1 UNK         0.0600 
    222 H222       -6.9897  -26.3336  -52.6940 H         1 UNK         0.0600 
    223 H223       -8.4185  -26.4713  -51.6669 H         1 UNK         0.0600 
    224 H224       -8.5718  -26.5975  -53.4125 H         1 UNK         0.0600 
    225 H225       -9.5440  -24.3062  -54.8834 H         1 UNK         0.3000 
    226 H226       -9.3177  -23.5312  -56.9340 H         1 UNK         0.0600 
    227 H227       -7.6395  -25.3907  -57.1327 H         1 UNK         0.0600 
    228 H228       -7.2895  -24.0559  -58.2169 H         1 UNK         0.0600 
    229 H229       -6.3466  -24.2555  -56.7474 H         1 UNK         0.0600 
    230 H230       -8.8663  -21.7007  -54.6410 H         1 UNK         0.3000 
    231 H231       -8.4892  -19.5929  -54.1335 H         1 UNK         0.0600 
    232 H232       -8.6901  -17.8487  -55.8642 H         1 UNK         0.0600 
    233 H233       -9.8721  -19.1123  -56.1618 H         1 UNK         0.0600 
    234 H234       -8.4105  -19.0208  -57.1437 H         1 UNK         0.0600 
    235 H235       -6.3065  -21.2339  -53.9586 H         1 UNK         0.3000 
    236 H236       -3.8937  -20.4233  -55.0484 H         1 UNK         0.0600 
    237 H237       -4.4928  -21.5493  -52.2651 H         1 UNK         0.0600 
    238 H238       -4.1361  -22.4737  -53.7218 H         1 UNK         0.0600 
    239 H239       -2.8899  -21.4766  -52.9925 H         1 UNK         0.0600 
    240 H240       -2.7961  -18.6029  -55.0127 H         1 UNK         0.3000 
    241 H241       -1.9591  -16.6370  -54.5783 H         1 UNK         0.0600 
    242 H242       -5.6174  -15.3248  -54.6710 H         1 UNK         0.3800 
    243 H243       -5.1471  -16.9881  -54.9119 H         1 UNK         0.3800 
    244 H244       -2.6219  -16.9420  -51.6170 H         1 UNK         0.0800 
    245 H245       -1.5587  -15.7506  -52.2994 H         1 UNK         0.0800 
    246 H246        0.7998  -15.9183  -52.3258 H         1 UNK         0.0800 
    247 H247        0.8320  -16.7353  -53.8758 H         1 UNK         0.0800 
@<TRIPOS>BOND
     1    1    2 1    
     2    1  127 1    
     3    1  128 1    
     4    1  129 1    
     5    2    3 2    
     6    2    4 am   BACKBONE|DICT|INTERRES
     7    4    5 1    
     8    4  130 1    
     9    5    6 1    
    10    5   65 1    
    11    5  131 1    
    12    6    7 1    
    13    6  132 1    
    14    6  133 1    
    15    7    8 1    
    16    8    9 1    
    17    8  134 1    
    18    8  135 1    
    19    9   10 ar   
    20    9   14 ar   
    21   10   11 ar   
    22   10  136 1    
    23   11   12 ar   
    24   11  126 1    
    25   12   13 ar   
    26   12  137 1    
    27   13   14 ar   
    28   13   15 1    
    29   14  138 1    
    30   15   16 1    
    31   15  139 1    
    32   15  140 1    
    33   16   17 1    
    34   17   18 1    
    35   17  141 1    
    36   17  142 1    
    37   18   19 1    
    38   18   67 1    
    39   18  143 1    
    40   19   20 am   BACKBONE|DICT|INTERRES
    41   19  144 1    
    42   20   21 2    
    43   20   22 1    
    44   22   23 1    
    45   22   24 1    
    46   22  145 1    
    47   23  146 1    
    48   23  147 1    
    49   23  148 1    
    50   24   25 am   BACKBONE|DICT|INTERRES
    51   24  149 1    
    52   25   26 2    
    53   25   27 1    
    54   27   28 1    
    55   27   29 1    
    56   27  150 1    
    57   28  151 1    
    58   28  152 1    
    59   28  153 1    
    60   29   30 am   BACKBONE|DICT|INTERRES
    61   29  154 1    
    62   30   31 2    
    63   30   32 1    
    64   32   33 1    
    65   32   34 1    
    66   32  155 1    
    67   33  156 1    
    68   33  157 1    
    69   33  158 1    
    70   34   35 am   BACKBONE|DICT|INTERRES
    71   34  159 1    
    72   35   36 2    
    73   35   37 1    
    74   37   38 1    
    75   37   39 1    
    76   37  160 1    
    77   38  161 1    
    78   38  162 1    
    79   38  163 1    
    80   39   40 am   BACKBONE|DICT|INTERRES
    81   39  164 1    
    82   40   41 2    
    83   40   42 1    
    84   42   43 1    
    85   42   44 1    
    86   42  165 1    
    87   43  166 1    
    88   43  167 1    
    89   43  168 1    
    90   44   45 am   BACKBONE|DICT|INTERRES
    91   44  169 1    
    92   45   46 2    
    93   45   47 1    
    94   47   48 1    
    95   47   49 1    
    96   47  170 1    
    97   48  171 1    
    98   48  172 1    
    99   48  173 1    
   100   49   50 am   BACKBONE|DICT|INTERRES
   101   49  174 1    
   102   50   51 2    
   103   50   52 1    
   104   52   53 1    
   105   52   54 1    
   106   52  175 1    
   107   53  176 1    
   108   53  177 1    
   109   53  178 1    
   110   54   55 am   BACKBONE|DICT|INTERRES
   111   54  179 1    
   112   55   56 2    
   113   55   57 1    
   114   57   58 1    
   115   57   59 1    
   116   57  180 1    
   117   58  181 1    
   118   58  182 1    
   119   58  183 1    
   120   59   60 am   BACKBONE|DICT|INTERRES
   121   59  184 1    
   122   60   61 2    
   123   60   62 1    
   124   62   63 1    
   125   62   64 1    
   126   62  185 1    
   127   63  186 1    
   128   63  187 1    
   129   63  188 1    
   130   64   65 am   BACKBONE|DICT|INTERRES
   131   64  189 1    
   132   65   66 2    
   133   67   68 2    
   134   67   69 am   BACKBONE|DICT|INTERRES
   135   69   70 1    
   136   69  190 1    
   137   70   71 1    
   138   70   72 1    
   139   70  191 1    
   140   71  192 1    
   141   71  193 1    
   142   71  194 1    
   143   72   73 2    
   144   72   74 am   BACKBONE|DICT|INTERRES
   145   74   75 1    
   146   74  195 1    
   147   75   76 1    
   148   75   77 1    
   149   75  196 1    
   150   76  197 1    
   151   76  198 1    
   152   76  199 1    
   153   77   78 2    
   154   77   79 am   BACKBONE|DICT|INTERRES
   155   79   80 1    
   156   79  200 1    
   157   80   81 1    
   158   80   82 1    
   159   80  201 1    
   160   81  202 1    
   161   81  203 1    
   162   81  204 1    
   163   82   83 2    
   164   82   84 am   BACKBONE|DICT|INTERRES
   165   84   85 1    
   166   84  205 1    
   167   85   86 1    
   168   85   87 1    
   169   85  206 1    
   170   86  207 1    
   171   86  208 1    
   172   86  209 1    
   173   87   88 2    
   174   87   89 am   BACKBONE|DICT|INTERRES
   175   89   90 1    
   176   89  210 1    
   177   90   91 1    
   178   90   92 1    
   179   90  211 1    
   180   91  212 1    
   181   91  213 1    
   182   91  214 1    
   183   92   93 2    
   184   92   94 am   BACKBONE|DICT|INTERRES
   185   94   95 1    
   186   94  215 1    
   187   95   96 1    
   188   95   97 1    
   189   95  216 1    
   190   96  217 1    
   191   96  218 1    
   192   96  219 1    
   193   97   98 2    
   194   97   99 am   BACKBONE|DICT|INTERRES
   195   99  100 1    
   196   99  220 1    
   197  100  101 1    
   198  100  102 1    
   199  100  221 1    
   200  101  222 1    
   201  101  223 1    
   202  101  224 1    
   203  102  103 2    
   204  102  104 am   BACKBONE|DICT|INTERRES
   205  104  105 1    
   206  104  225 1    
   207  105  106 1    
   208  105  107 1    
   209  105  226 1    
   210  106  227 1    
   211  106  228 1    
   212  106  229 1    
   213  107  108 2    
   214  107  109 am   BACKBONE|DICT|INTERRES
   215  109  110 1    
   216  109  230 1    
   217  110  111 1    
   218  110  112 1    
   219  110  231 1    
   220  111  232 1    
   221  111  233 1    
   222  111  234 1    
   223  112  113 2    
   224  112  114 am   BACKBONE|DICT|INTERRES
   225  114  115 1    
   226  114  235 1    
   227  115  116 1    
   228  115  117 1    
   229  115  236 1    
   230  116  237 1    
   231  116  238 1    
   232  116  239 1    
   233  117  118 2    
   234  117  119 am   BACKBONE|DICT|INTERRES
   235  119  120 1    
   236  119  240 1    
   237  120  121 1    
   238  120  124 1    
   239  120  241 1    
   240  121  122 am   BACKBONE|DICT|INTERRES
   241  121  123 2    
   242  122  242 1    
   243  122  243 1    
   244  124  125 1    
   245  124  244 1    
   246  124  245 1    
   247  125  126 1    
   248  126  246 1    
   249  126  247 1    
@<TRIPOS>SUBSTRUCTURE
     1 UNK         1 GROUP             0       ****    0 ROOT    
