@<TRIPOS>MOLECULE
3R540
247   249    1
SMALL
USER_CHARGES


@<TRIPOS>ATOM
      1 CA          5.4131  -14.7241  -47.0391 C.3       0 UNK        -0.1800 
      2 C           4.9541  -14.4113  -48.4626 C.2       0 UNK         0.5000 
      3 O           5.7905  -14.1257  -49.3164 O.2       0 UNK        -0.5000 
      4 N           3.6509  -14.4537  -48.7728 N.am      1 UNK        -0.5000 
      5 CA          2.5338  -14.7318  -47.8611 C.3       1 UNK         0.1400 
      6 C6          1.3314  -15.3506  -48.6139 C.3       23 UNK        -0.0398 
      7 S7          0.5538  -14.2553  -49.8594 S.3       23 UNK        -0.2404 
      8 C8          0.1536  -15.4151  -51.2075 C.3       23 UNK        -0.0205 
      9 C9         -0.5826  -16.6577  -50.7234 C.ar      23 UNK        -0.0193 
     10 C10        -1.7901  -16.5499  -50.0254 C.ar      23 UNK        -0.1150 
     11 C11        -2.4431  -17.6942  -49.5588 C.ar      23 UNK        -0.0193 
     12 C12        -1.8896  -18.9525  -49.8084 C.ar      23 UNK        -0.1150 
     13 C13        -0.6940  -19.0738  -50.5213 C.ar      23 UNK        -0.0193 
     14 C14        -0.0463  -17.9232  -50.9759 C.ar      23 UNK        -0.1150 
     15 C15        -0.0967  -20.4456  -50.7953 C.3       23 UNK        -0.0205 
     16 S16         1.4875  -20.7044  -49.9291 S.3       23 UNK        -0.2404 
     17 C17         1.0212  -20.4804  -48.1777 C.3       23 UNK        -0.0398 
     18 CA          0.7473  -21.8101  -47.4388 C.3       11 UNK         0.1400 
     19 N           0.8013  -21.6404  -45.9863 N.am      11 UNK        -0.5000 
     20 C           0.7567  -22.6421  -45.0972 C.2       10 UNK         0.5000 
     21 O           0.7226  -23.8326  -45.4065 O.2       10 UNK        -0.5000 
     22 CA          0.6865  -22.2453  -43.6131 C.3       10 UNK         0.1400 
     23 CB          2.0832  -21.8982  -43.0772 C.3       10 UNK        -0.1800 
     24 N          -0.2326  -21.1307  -43.3743 N.am      10 UNK        -0.5000 
     25 C          -1.5536  -21.1793  -43.6021 C.2       9 UNK         0.5000 
     26 O          -2.1403  -22.1868  -43.9956 O.2       9 UNK        -0.5000 
     27 CA         -2.3501  -19.8782  -43.3997 C.3       9 UNK         0.1400 
     28 CB         -2.6289  -19.6357  -41.9094 C.3       9 UNK        -0.1800 
     29 N          -1.6864  -18.7090  -43.9772 N.am      9 UNK        -0.5000 
     30 C          -1.4275  -18.5476  -45.2830 C.2       8 UNK         0.5000 
     31 O          -1.7450  -19.3607  -46.1501 O.2       8 UNK        -0.5000 
     32 CA         -0.6282  -17.2947  -45.6822 C.3       8 UNK         0.1400 
     33 CB         -1.5271  -16.0500  -45.7224 C.3       8 UNK        -0.1800 
     34 N           0.5058  -17.0526  -44.7901 N.am      8 UNK        -0.5000 
     35 C           1.5465  -17.8853  -44.6477 C.2       7 UNK         0.5000 
     36 O           1.6956  -18.9166  -45.3025 O.2       7 UNK        -0.5000 
     37 CA          2.5586  -17.5336  -43.5464 C.3       7 UNK         0.1400 
     38 CB          3.5429  -16.4540  -44.0260 C.3       7 UNK        -0.1800 
     39 N           1.8843  -17.0992  -42.3211 N.am      7 UNK        -0.5000 
     40 C           1.1980  -17.9250  -41.5150 C.2       6 UNK         0.5000 
     41 O           1.0876  -19.1330  -41.7173 O.2       6 UNK        -0.5000 
     42 CA          0.4867  -17.3069  -40.2959 C.3       6 UNK         0.1400 
     43 CB          1.4329  -17.2683  -39.0869 C.3       6 UNK        -0.1800 
     44 N          -0.0256  -15.9617  -40.5453 N.am      6 UNK        -0.5000 
     45 C          -0.9641  -15.6466  -41.4491 C.2       5 UNK         0.5000 
     46 O          -1.5600  -16.4766  -42.1346 O.2       5 UNK        -0.5000 
     47 CA         -1.2322  -14.1433  -41.6642 C.3       5 UNK         0.1400 
     48 CB         -2.3974  -13.6720  -40.7821 C.3       5 UNK        -0.1800 
     49 N          -0.0562  -13.3011  -41.4085 N.am      5 UNK        -0.5000 
     50 C           1.1012  -13.4027  -42.0749 C.2       4 UNK         0.5000 
     51 O           1.2974  -14.2184  -42.9778 O.2       4 UNK        -0.5000 
     52 CA          2.2550  -12.5133  -41.6044 C.3       4 UNK         0.1400 
     53 CB          3.0473  -13.2255  -40.4903 C.3       4 UNK        -0.1800 
     54 N           3.1115  -12.2445  -42.7529 N.am      4 UNK        -0.5000 
     55 C           4.0791  -11.3234  -42.8143 C.2       3 UNK         0.5000 
     56 O           4.3976  -10.5974  -41.8716 O.2       3 UNK        -0.5000 
     57 CA          4.8058  -11.1713  -44.1650 C.3       3 UNK         0.1400 
     58 CB          5.9957  -12.1407  -44.2439 C.3       3 UNK        -0.1800 
     59 N           3.9423  -11.3780  -45.3311 N.am      3 UNK        -0.5000 
     60 C           2.8711  -10.6359  -45.6485 C.2       2 UNK         0.5000 
     61 O           2.4784   -9.6824  -44.9750 O.2       2 UNK        -0.5000 
     62 CA          2.1178  -10.9973  -46.9445 C.3       2 UNK         0.1400 
     63 CB          2.3315   -9.9120  -48.0117 C.3       2 UNK        -0.1800 
     64 N           2.4956  -12.2913  -47.5182 N.am      2 UNK        -0.5000 
     65 C           2.1109  -13.4866  -47.0484 C.2       1 UNK         0.5000 
     66 O           1.4570  -13.6310  -46.0184 O.2       1 UNK        -0.5000 
     67 C          -0.5807  -22.4568  -47.8832 C.2       11 UNK         0.5000 
     68 O          -0.5548  -23.4276  -48.6390 O.2       11 UNK        -0.5000 
     69 N          -1.7112  -21.9438  -47.3757 N.am      12 UNK        -0.5000 
     70 CA         -3.0495  -22.4777  -47.6320 C.3       12 UNK         0.1400 
     71 CB         -4.1087  -21.5502  -47.0212 C.3       12 UNK        -0.1800 
     72 C          -3.2312  -23.9233  -47.1384 C.2       12 UNK         0.5000 
     73 O          -3.8395  -24.7256  -47.8446 O.2       12 UNK        -0.5000 
     74 N          -2.6728  -24.2415  -45.9628 N.am      13 UNK        -0.5000 
     75 CA         -2.6477  -25.5904  -45.3986 C.3       13 UNK         0.1400 
     76 CB         -2.1563  -25.5353  -43.9442 C.3       13 UNK        -0.1800 
     77 C          -1.7941  -26.5640  -46.2320 C.2       13 UNK         0.5000 
     78 O          -2.2353  -27.6848  -46.4866 O.2       13 UNK        -0.5000 
     79 N          -0.6063  -26.1148  -46.6626 N.am      14 UNK        -0.5000 
     80 CA          0.3213  -26.8801  -47.4986 C.3       14 UNK         0.1400 
     81 CB          1.6725  -26.1521  -47.5665 C.3       14 UNK        -0.1800 
     82 C          -0.2252  -27.1467  -48.9131 C.2       14 UNK         0.5000 
     83 O          -0.0930  -28.2631  -49.4162 O.2       14 UNK        -0.5000 
     84 N          -0.8451  -26.1258  -49.5193 N.am      15 UNK        -0.5000 
     85 CA         -1.4874  -26.2011  -50.8329 C.3       15 UNK         0.1400 
     86 CB         -1.7024  -24.7735  -51.3581 C.3       15 UNK        -0.1800 
     87 C          -2.8312  -26.9541  -50.8141 C.2       15 UNK         0.5000 
     88 O          -3.3109  -27.3511  -51.8762 O.2       15 UNK        -0.5000 
     89 N          -3.4400  -27.0827  -49.6268 N.am      16 UNK        -0.5000 
     90 CA         -4.7650  -27.6278  -49.3015 C.3       16 UNK         0.1400 
     91 CB         -4.9137  -29.0889  -49.7652 C.3       16 UNK        -0.1800 
     92 C          -5.9395  -26.7555  -49.7915 C.2       16 UNK         0.5000 
     93 O          -6.9248  -26.6063  -49.0676 O.2       16 UNK        -0.5000 
     94 N          -5.8113  -26.1795  -50.9894 N.am      17 UNK        -0.5000 
     95 CA         -6.7345  -25.2341  -51.5967 C.3       17 UNK         0.1400 
     96 CB         -7.8430  -25.9905  -52.3522 C.3       17 UNK        -0.1800 
     97 C          -5.9084  -24.3222  -52.5118 C.2       17 UNK         0.5000 
     98 O          -5.7188  -24.6378  -53.6881 O.2       17 UNK        -0.5000 
     99 N          -5.3960  -23.2186  -51.9526 N.am      18 UNK        -0.5000 
    100 CA        -4.5552  -22.2239  -52.6298 C.3       18 UNK         0.1400 
    101 CB        -3.7811  -21.4228  -51.5683 C.3       18 UNK        -0.1800 
    102 C         -5.3481  -21.3069  -53.5889 C.2       18 UNK         0.5000 
    103 O         -5.2200  -20.0826  -53.5273 O.2       18 UNK        -0.5000 
    104 N         -6.1547  -21.9088  -54.4717 N.am      19 UNK        -0.5000 
    105 CA        -7.0390  -21.2385  -55.4311 C.3       19 UNK         0.1400 
    106 CB        -7.9134  -22.2969  -56.1203 C.3       19 UNK        -0.1800 
    107 C         -6.3000  -20.3808  -56.4777 C.2       19 UNK         0.5000 
    108 O         -6.8798  -19.4311  -57.0045 O.2       19 UNK        -0.5000 
    109 N         -5.0306  -20.7166  -56.7423 N.am      20 UNK        -0.5000 
    110 CA        -4.1225  -19.9553  -57.6009 C.3       20 UNK         0.1400 
    111 CB        -2.9667  -20.8749  -58.0263 C.3       20 UNK        -0.1800 
    112 C         -3.5749  -18.6767  -56.9309 C.2       20 UNK         0.5000 
    113 O         -3.0342  -17.8216  -57.6340 O.2       20 UNK        -0.5000 
    114 N         -3.7035  -18.5733  -55.6015 N.am      21 UNK        -0.5000 
    115 CA        -3.2603  -17.4465  -54.7907 C.3       21 UNK         0.1400 
    116 CB        -2.2179  -17.9418  -53.7716 C.3       21 UNK        -0.1800 
    117 C         -4.4958  -16.7854  -54.1563 C.2       21 UNK         0.5000 
    118 O         -5.2395  -16.1094  -54.8694 O.2       21 UNK        -0.5000 
    119 N         -4.6940  -16.9682  -52.8444 N.am      22 UNK        -0.5000 
    120 CA        -5.8174  -16.4015  -52.0824 C.3       22 UNK         0.1400 
    121 C         -7.2084  -17.0469  -52.3553 C.2       22 UNK         0.5000 
    122 N         -7.2922  -18.2321  -52.9450 N.am      22 UNK        -0.7600 
    123 O         -8.2335  -16.4500  -52.0364 O.2       22 UNK        -0.5000 
    124 C124       -5.5035  -16.3219  -50.5669 C.3       23 UNK        -0.0398 
    125 S125       -5.1956  -17.9415  -49.7734 S.3       23 UNK        -0.2404 
    126 C126       -3.7298  -17.5811  -48.7583 C.3       23 UNK        -0.0205 
    127 H127        4.7908  -14.2388  -46.2896 H         1 UNK         0.0600 
    128 H128        5.3913  -15.7998  -46.8659 H         1 UNK         0.0600 
    129 H129        6.4365  -14.3811  -46.8856 H         1 UNK         0.0600 
    130 H130        3.3775  -14.2591  -49.7260 H         1 UNK         0.3000 
    131 H131        2.8584  -15.4801  -47.1355 H         1 UNK         0.0600 
    132 H132        0.5577  -15.6473  -47.9068 H         1 UNK         0.0800 
    133 H133        1.6561  -16.2737  -49.0960 H         1 UNK         0.0800 
    134 H134       -0.4645  -14.9019  -51.9451 H         1 UNK         0.0800 
    135 H135        1.0790  -15.6871  -51.7174 H         1 UNK         0.0800 
    136 H136       -2.2067  -15.5723  -49.8283 H         1 UNK         0.1150 
    137 H137       -2.3912  -19.8362  -49.4403 H         1 UNK         0.1150 
    138 H138        0.8834  -18.0182  -51.5192 H         1 UNK         0.1150 
    139 H139       -0.7945  -21.2369  -50.5204 H         1 UNK         0.0800 
    140 H140        0.0686  -20.5504  -51.8684 H         1 UNK         0.0800 
    141 H141        0.1855  -19.7885  -48.0744 H         1 UNK         0.0800 
    142 H142        1.8686  -19.9782  -47.7103 H         1 UNK         0.0800 
    143 H143        1.5482  -22.5066  -47.6965 H         1 UNK         0.0600 
    144 H144        0.8690  -20.6864  -45.6446 H         1 UNK         0.3000 
    145 H145        0.3153  -23.1084  -43.0569 H         1 UNK         0.0600 
    146 H146        2.0581  -21.7182  -42.0025 H         1 UNK         0.0600 
    147 H147        2.7841  -22.7152  -43.2530 H         1 UNK         0.0600 
    148 H148        2.4889  -21.0067  -43.5565 H         1 UNK         0.0600 
    149 H149        0.1757  -20.2802  -42.9976 H         1 UNK         0.3000 
    150 H150       -3.3095  -19.9954  -43.9076 H         1 UNK         0.0600 
    151 H151       -3.1581  -20.4816  -41.4689 H         1 UNK         0.0600 
    152 H152       -3.2493  -18.7514  -41.7627 H         1 UNK         0.0600 
    153 H153       -1.7071  -19.4957  -41.3454 H         1 UNK         0.0600 
    154 H154       -1.4376  -17.9634  -43.3327 H         1 UNK         0.3000 
    155 H155       -0.2359  -17.4676  -46.6861 H         1 UNK         0.0600 
    156 H156       -1.9590  -15.8303  -44.7459 H         1 UNK         0.0600 
    157 H157       -2.3516  -16.1886  -46.4212 H         1 UNK         0.0600 
    158 H158       -0.9717  -15.1694  -46.0451 H         1 UNK         0.0600 
    159 H159        0.4692  -16.2224  -44.2129 H         1 UNK         0.3000 
    160 H160        3.1336  -18.4336  -43.3175 H         1 UNK         0.0600 
    161 H161        4.2407  -16.1743  -43.2366 H         1 UNK         0.0600 
    162 H162        3.0321  -15.5503  -44.3580 H         1 UNK         0.0600 
    163 H163        4.1328  -16.8191  -44.8672 H         1 UNK         0.0600 
    164 H164        1.8590  -16.1021  -42.1495 H         1 UNK         0.3000 
    165 H165       -0.3617  -17.9464  -40.0455 H         1 UNK         0.0600 
    166 H166        0.9191  -16.9101  -38.1946 H         1 UNK         0.0600 
    167 H167        1.8180  -18.2636  -38.8609 H         1 UNK         0.0600 
    168 H168        2.2898  -16.6174  -39.2661 H         1 UNK         0.0600 
    169 H169        0.4047  -15.2107  -40.0274 H         1 UNK         0.3000 
    170 H170       -1.5166  -14.0097  -42.7101 H         1 UNK         0.0600 
    171 H171       -3.2924  -14.2678  -40.9671 H         1 UNK         0.0600 
    172 H172       -2.1598  -13.7572  -39.7209 H         1 UNK         0.0600 
    173 H173       -2.6530  -12.6324  -40.9877 H         1 UNK         0.0600 
    174 H174       -0.1417  -12.6198  -40.6678 H         1 UNK         0.3000 
    175 H175        1.8500  -11.5701  -41.2323 H         1 UNK         0.0600 
    176 H176        3.4897  -14.1570  -40.8463 H         1 UNK         0.0600 
    177 H177        3.8528  -12.5996  -40.1070 H         1 UNK         0.0600 
    178 H178        2.4035  -13.4694  -39.6444 H         1 UNK         0.0600 
    179 H179        2.8803  -12.7887  -43.5758 H         1 UNK         0.3000 
    180 H180        5.1918  -10.1513  -44.2182 H         1 UNK         0.0600 
    181 H181        5.6724  -13.1811  -44.1930 H         1 UNK         0.0600 
    182 H182        6.6885  -11.9739  -43.4180 H         1 UNK         0.0600 
    183 H183        6.5569  -12.0062  -45.1689 H         1 UNK         0.0600 
    184 H184        4.1944  -12.1270  -45.9559 H         1 UNK         0.3000 
    185 H185        1.0538  -11.0285  -46.7000 H         1 UNK         0.0600 
    186 H186        2.0225   -8.9326  -47.6438 H         1 UNK         0.0600 
    187 H187        3.3795   -9.8369  -48.3045 H         1 UNK         0.0600 
    188 H188        1.7456  -10.1190  -48.9075 H         1 UNK         0.0600 
    189 H189        3.0337  -12.2662  -48.3725 H         1 UNK         0.3000 
    190 H190       -1.6592  -21.1185  -46.7824 H         1 UNK         0.3000 
    191 H191       -3.1965  -22.4868  -48.7119 H         1 UNK         0.0600 
    192 H192       -3.9817  -21.4482  -45.9433 H         1 UNK         0.0600 
    193 H193       -5.1144  -21.9320  -47.2008 H         1 UNK         0.0600 
    194 H194       -4.0575  -20.5549  -47.4602 H         1 UNK         0.0600 
    195 H195       -2.2466  -23.5049  -45.4073 H         1 UNK         0.3000 
    196 H196       -3.6722  -25.9687  -45.3933 H         1 UNK         0.0600 
    197 H197       -1.1451  -25.1343  -43.8740 H         1 UNK         0.0600 
    198 H198       -2.1476  -26.5299  -43.4967 H         1 UNK         0.0600 
    199 H199       -2.8063  -24.9089  -43.3331 H         1 UNK         0.0600 
    200 H200       -0.2965  -25.1914  -46.3723 H         1 UNK         0.3000 
    201 H201        0.4830  -27.8474  -47.0185 H         1 UNK         0.0600 
    202 H202        1.5726  -25.1566  -48.0004 H         1 UNK         0.0600 
    203 H203        2.3865  -26.7072  -48.1761 H         1 UNK         0.0600 
    204 H204        2.1096  -26.0408  -46.5740 H         1 UNK         0.0600 
    205 H205       -0.8529  -25.2154  -49.0630 H         1 UNK         0.3000 
    206 H206       -0.8201  -26.7257  -51.5198 H         1 UNK         0.0600 
    207 H207       -0.7604  -24.2292  -51.4279 H         1 UNK         0.0600 
    208 H208       -2.1514  -24.7799  -52.3522 H         1 UNK         0.0600 
    209 H209       -2.3660  -24.2124  -50.7002 H         1 UNK         0.0600 
    210 H210       -2.9801  -26.6399  -48.8417 H         1 UNK         0.3000 
    211 H211       -4.8129  -27.6255  -48.2113 H         1 UNK         0.0600 
    212 H212       -4.9217  -29.1761  -50.8518 H         1 UNK         0.0600 
    213 H213       -5.8481  -29.5165  -49.4000 H         1 UNK         0.0600 
    214 H214       -4.1014  -29.7074  -49.3833 H         1 UNK         0.0600 
    215 H215       -4.9732  -26.3887  -51.5248 H         1 UNK         0.3000 
    216 H216       -7.1967  -24.6170  -50.8232 H         1 UNK         0.0600 
    217 H217       -8.5109  -25.2954  -52.8623 H         1 UNK         0.0600 
    218 H218       -8.4507  -26.5837  -51.6688 H         1 UNK         0.0600 
    219 H219       -7.4320  -26.6658  -53.1036 H         1 UNK         0.0600 
    220 H220       -5.6083  -23.0284  -50.9841 H         1 UNK         0.3000 
    221 H221       -3.8206  -22.7539  -53.2394 H         1 UNK         0.0600 
    222 H222       -4.4508  -20.8673  -50.9106 H         1 UNK         0.0600 
    223 H223       -3.1659  -22.0746  -50.9530 H         1 UNK         0.0600 
    224 H224       -3.1061  -20.7051  -52.0333 H         1 UNK         0.0600 
    225 H225       -6.1779  -22.9244  -54.4583 H         1 UNK         0.3000 
    226 H226       -7.6924  -20.5699  -54.8676 H         1 UNK         0.0600 
    227 H227       -8.5084  -22.8508  -55.3937 H         1 UNK         0.0600 
    228 H228       -8.6078  -21.8346  -56.8232 H         1 UNK         0.0600 
    229 H229       -7.3102  -23.0149  -56.6772 H         1 UNK         0.0600 
    230 H230       -4.6433  -21.5214  -56.2721 H         1 UNK         0.3000 
    231 H231       -4.6640  -19.6496  -58.4986 H         1 UNK         0.0600 
    232 H232       -3.3356  -21.7545  -58.5541 H         1 UNK         0.0600 
    233 H233       -2.3867  -21.2157  -57.1676 H         1 UNK         0.0600 
    234 H234       -2.2822  -20.3575  -58.6999 H         1 UNK         0.0600 
    235 H235       -4.2242  -19.2849  -55.1009 H         1 UNK         0.3000 
    236 H236       -2.7819  -16.6854  -55.4102 H         1 UNK         0.0600 
    237 H237       -1.8714  -17.1181  -53.1488 H         1 UNK         0.0600 
    238 H238       -2.6138  -18.7169  -53.1164 H         1 UNK         0.0600 
    239 H239       -1.3430  -18.3527  -54.2754 H         1 UNK         0.0600 
    240 H240       -4.0709  -17.5728  -52.3287 H         1 UNK         0.3000 
    241 H241       -5.9221  -15.3682  -52.4194 H         1 UNK         0.0600 
    242 H242       -8.1999  -18.6317  -53.1154 H         1 UNK         0.3800 
    243 H243       -6.4528  -18.7616  -53.1683 H         1 UNK         0.3800 
    244 H244       -4.6358  -15.6782  -50.4221 H         1 UNK         0.0800 
    245 H245       -6.3191  -15.8302  -50.0340 H         1 UNK         0.0800 
    246 H246       -3.8256  -16.5909  -48.3111 H         1 UNK         0.0800 
    247 H247       -3.6949  -18.2824  -47.9243 H         1 UNK         0.0800 
@<TRIPOS>BOND
     1    1    2 1    
     2    1  127 1    
     3    1  128 1    
     4    1  129 1    
     5    2    3 2    
     6    2    4 am   BACKBONE|DICT|INTERRES
     7    4    5 1    
     8    4  130 1    
     9    5    6 1    
    10    5   65 1    
    11    5  131 1    
    12    6    7 1    
    13    6  132 1    
    14    6  133 1    
    15    7    8 1    
    16    8    9 1    
    17    8  134 1    
    18    8  135 1    
    19    9   10 ar   
    20    9   14 ar   
    21   10   11 ar   
    22   10  136 1    
    23   11   12 ar   
    24   11  126 1    
    25   12   13 ar   
    26   12  137 1    
    27   13   14 ar   
    28   13   15 1    
    29   14  138 1    
    30   15   16 1    
    31   15  139 1    
    32   15  140 1    
    33   16   17 1    
    34   17   18 1    
    35   17  141 1    
    36   17  142 1    
    37   18   19 1    
    38   18   67 1    
    39   18  143 1    
    40   19   20 am   BACKBONE|DICT|INTERRES
    41   19  144 1    
    42   20   21 2    
    43   20   22 1    
    44   22   23 1    
    45   22   24 1    
    46   22  145 1    
    47   23  146 1    
    48   23  147 1    
    49   23  148 1    
    50   24   25 am   BACKBONE|DICT|INTERRES
    51   24  149 1    
    52   25   26 2    
    53   25   27 1    
    54   27   28 1    
    55   27   29 1    
    56   27  150 1    
    57   28  151 1    
    58   28  152 1    
    59   28  153 1    
    60   29   30 am   BACKBONE|DICT|INTERRES
    61   29  154 1    
    62   30   31 2    
    63   30   32 1    
    64   32   33 1    
    65   32   34 1    
    66   32  155 1    
    67   33  156 1    
    68   33  157 1    
    69   33  158 1    
    70   34   35 am   BACKBONE|DICT|INTERRES
    71   34  159 1    
    72   35   36 2    
    73   35   37 1    
    74   37   38 1    
    75   37   39 1    
    76   37  160 1    
    77   38  161 1    
    78   38  162 1    
    79   38  163 1    
    80   39   40 am   BACKBONE|DICT|INTERRES
    81   39  164 1    
    82   40   41 2    
    83   40   42 1    
    84   42   43 1    
    85   42   44 1    
    86   42  165 1    
    87   43  166 1    
    88   43  167 1    
    89   43  168 1    
    90   44   45 am   BACKBONE|DICT|INTERRES
    91   44  169 1    
    92   45   46 2    
    93   45   47 1    
    94   47   48 1    
    95   47   49 1    
    96   47  170 1    
    97   48  171 1    
    98   48  172 1    
    99   48  173 1    
   100   49   50 am   BACKBONE|DICT|INTERRES
   101   49  174 1    
   102   50   51 2    
   103   50   52 1    
   104   52   53 1    
   105   52   54 1    
   106   52  175 1    
   107   53  176 1    
   108   53  177 1    
   109   53  178 1    
   110   54   55 am   BACKBONE|DICT|INTERRES
   111   54  179 1    
   112   55   56 2    
   113   55   57 1    
   114   57   58 1    
   115   57   59 1    
   116   57  180 1    
   117   58  181 1    
   118   58  182 1    
   119   58  183 1    
   120   59   60 am   BACKBONE|DICT|INTERRES
   121   59  184 1    
   122   60   61 2    
   123   60   62 1    
   124   62   63 1    
   125   62   64 1    
   126   62  185 1    
   127   63  186 1    
   128   63  187 1    
   129   63  188 1    
   130   64   65 am   BACKBONE|DICT|INTERRES
   131   64  189 1    
   132   65   66 2    
   133   67   68 2    
   134   67   69 am   BACKBONE|DICT|INTERRES
   135   69   70 1    
   136   69  190 1    
   137   70   71 1    
   138   70   72 1    
   139   70  191 1    
   140   71  192 1    
   141   71  193 1    
   142   71  194 1    
   143   72   73 2    
   144   72   74 am   BACKBONE|DICT|INTERRES
   145   74   75 1    
   146   74  195 1    
   147   75   76 1    
   148   75   77 1    
   149   75  196 1    
   150   76  197 1    
   151   76  198 1    
   152   76  199 1    
   153   77   78 2    
   154   77   79 am   BACKBONE|DICT|INTERRES
   155   79   80 1    
   156   79  200 1    
   157   80   81 1    
   158   80   82 1    
   159   80  201 1    
   160   81  202 1    
   161   81  203 1    
   162   81  204 1    
   163   82   83 2    
   164   82   84 am   BACKBONE|DICT|INTERRES
   165   84   85 1    
   166   84  205 1    
   167   85   86 1    
   168   85   87 1    
   169   85  206 1    
   170   86  207 1    
   171   86  208 1    
   172   86  209 1    
   173   87   88 2    
   174   87   89 am   BACKBONE|DICT|INTERRES
   175   89   90 1    
   176   89  210 1    
   177   90   91 1    
   178   90   92 1    
   179   90  211 1    
   180   91  212 1    
   181   91  213 1    
   182   91  214 1    
   183   92   93 2    
   184   92   94 am   BACKBONE|DICT|INTERRES
   185   94   95 1    
   186   94  215 1    
   187   95   96 1    
   188   95   97 1    
   189   95  216 1    
   190   96  217 1    
   191   96  218 1    
   192   96  219 1    
   193   97   98 2    
   194   97   99 am   BACKBONE|DICT|INTERRES
   195   99  100 1    
   196   99  220 1    
   197  100  101 1    
   198  100  102 1    
   199  100  221 1    
   200  101  222 1    
   201  101  223 1    
   202  101  224 1    
   203  102  103 2    
   204  102  104 am   BACKBONE|DICT|INTERRES
   205  104  105 1    
   206  104  225 1    
   207  105  106 1    
   208  105  107 1    
   209  105  226 1    
   210  106  227 1    
   211  106  228 1    
   212  106  229 1    
   213  107  108 2    
   214  107  109 am   BACKBONE|DICT|INTERRES
   215  109  110 1    
   216  109  230 1    
   217  110  111 1    
   218  110  112 1    
   219  110  231 1    
   220  111  232 1    
   221  111  233 1    
   222  111  234 1    
   223  112  113 2    
   224  112  114 am   BACKBONE|DICT|INTERRES
   225  114  115 1    
   226  114  235 1    
   227  115  116 1    
   228  115  117 1    
   229  115  236 1    
   230  116  237 1    
   231  116  238 1    
   232  116  239 1    
   233  117  118 2    
   234  117  119 am   BACKBONE|DICT|INTERRES
   235  119  120 1    
   236  119  240 1    
   237  120  121 1    
   238  120  124 1    
   239  120  241 1    
   240  121  122 am   BACKBONE|DICT|INTERRES
   241  121  123 2    
   242  122  242 1    
   243  122  243 1    
   244  124  125 1    
   245  124  244 1    
   246  124  245 1    
   247  125  126 1    
   248  126  246 1    
   249  126  247 1    
@<TRIPOS>SUBSTRUCTURE
     1 UNK         1 GROUP             0       ****    0 ROOT    
