@<TRIPOS>MOLECULE
3R540
247   249    1
SMALL
USER_CHARGES


@<TRIPOS>ATOM
      1 CA          6.6165  -18.3080  -45.1911 C.3       0 UNK        -0.1800 
      2 C           5.3089  -17.5647  -44.9610 C.2       0 UNK         0.5000 
      3 O           4.5702  -17.8939  -44.0330 O.2       0 UNK        -0.5000 
      4 N           5.0213  -16.5600  -45.7968 N.am      1 UNK        -0.5000 
      5 CA          3.8016  -15.7455  -45.7657 C.3       1 UNK         0.1400 
      6 C6          3.4726  -15.1427  -47.1527 C.3       23 UNK        -0.0398 
      7 S7          2.9884  -16.4354  -48.3401 S.3       23 UNK        -0.2404 
      8 C8          4.4086  -16.4658  -49.4669 C.3       23 UNK        -0.0205 
      9 C9          4.1734  -17.4586  -50.5924 C.ar      23 UNK        -0.0193 
     10 C10         3.3788  -17.0995  -51.6839 C.ar      23 UNK        -0.1150 
     11 C11         3.1639  -17.9973  -52.7327 C.ar      23 UNK        -0.0193 
     12 C12         3.7469  -19.2668  -52.6819 C.ar      23 UNK        -0.1150 
     13 C13         4.5427  -19.6389  -51.5938 C.ar      23 UNK        -0.0193 
     14 C14         4.7518  -18.7302  -50.5513 C.ar      23 UNK        -0.1150 
     15 C15         5.2132  -21.0051  -51.5640 C.3       23 UNK        -0.0205 
     16 S16         4.5896  -22.0655  -50.2227 S.3       23 UNK        -0.2404 
     17 C17         2.9199  -22.4983  -50.8190 C.3       23 UNK        -0.0398 
     18 CA          1.9165  -22.6224  -49.6490 C.3       11 UNK         0.1400 
     19 N           1.7425  -21.3551  -48.9314 N.am      11 UNK        -0.5000 
     20 C           1.1620  -21.2423  -47.7302 C.2       10 UNK         0.5000 
     21 O           0.7098  -22.1969  -47.0986 O.2       10 UNK        -0.5000 
     22 CA          1.0096  -19.8198  -47.1655 C.3       10 UNK         0.1400 
     23 CB          2.2699  -19.4111  -46.3919 C.3       10 UNK        -0.1800 
     24 N           0.6922  -18.7959  -48.1674 N.am      10 UNK        -0.5000 
     25 C          -0.3509  -18.8279  -49.0071 C.2       9 UNK         0.5000 
     26 O          -1.1328  -19.7762  -49.0819 O.2       9 UNK        -0.5000 
     27 CA         -0.5686  -17.5802  -49.8736 C.3       9 UNK         0.1400 
     28 CB         -1.7715  -17.7139  -50.8284 C.3       9 UNK        -0.1800 
     29 N          -0.7727  -16.4371  -48.9918 N.am      9 UNK        -0.5000 
     30 C          -0.3279  -15.1947  -49.2104 C.2       8 UNK         0.5000 
     31 O           0.3027  -14.8656  -50.2156 O.2       8 UNK        -0.5000 
     32 CA         -0.6505  -14.1279  -48.1416 C.3       8 UNK         0.1400 
     33 CB         -1.4219  -12.9496  -48.7594 C.3       8 UNK        -0.1800 
     34 N          -1.4270  -14.6421  -47.0083 N.am      8 UNK        -0.5000 
     35 C          -0.9131  -15.2641  -45.9405 C.2       7 UNK         0.5000 
     36 O           0.2920  -15.4826  -45.8005 O.2       7 UNK        -0.5000 
     37 CA         -1.9248  -15.6524  -44.8385 C.3       7 UNK         0.1400 
     38 CB         -3.1085  -16.4780  -45.3919 C.3       7 UNK        -0.1800 
     39 N          -1.2940  -16.3219  -43.6948 N.am      7 UNK        -0.5000 
     40 C          -0.7389  -17.5429  -43.6656 C.2       6 UNK         0.5000 
     41 O          -0.7830  -18.3439  -44.5983 O.2       6 UNK        -0.5000 
     42 CA          0.0061  -17.9439  -42.3793 C.3       6 UNK         0.1400 
     43 CB          1.5162  -18.0232  -42.6487 C.3       6 UNK        -0.1800 
     44 N          -0.2185  -17.0175  -41.2659 N.am      6 UNK        -0.5000 
     45 C          -1.2044  -17.1361  -40.3682 C.2       5 UNK         0.5000 
     46 O          -2.0785  -18.0013  -40.4316 O.2       5 UNK        -0.5000 
     47 CA         -1.2197  -16.1406  -39.1969 C.3       5 UNK         0.1400 
     48 CB         -0.2582  -16.5961  -38.0865 C.3       5 UNK        -0.1800 
     49 N          -0.8800  -14.7733  -39.6008 N.am      5 UNK        -0.5000 
     50 C          -1.5197  -13.6797  -39.1584 C.2       4 UNK         0.5000 
     51 O          -2.4863  -13.7189  -38.3952 O.2       4 UNK        -0.5000 
     52 CA         -1.0018  -12.2994  -39.6184 C.3       4 UNK         0.1400 
     53 CB         -0.1483  -11.6558  -38.5144 C.3       4 UNK        -0.1800 
     54 N          -0.2199  -12.3321  -40.8534 N.am      4 UNK        -0.5000 
     55 C          -0.7036  -12.6390  -42.0627 C.2       3 UNK         0.5000 
     56 O          -1.8915  -12.8727  -42.2854 O.2       3 UNK        -0.5000 
     57 CA          0.3084  -12.7421  -43.2193 C.3       3 UNK         0.1400 
     58 CB          0.2695  -11.4783  -44.0905 C.3       3 UNK        -0.1800 
     59 N           1.7005  -13.0279  -42.8541 N.am      3 UNK        -0.5000 
     60 C           2.1394  -14.0500  -42.1076 C.2       2 UNK         0.5000 
     61 O           1.4040  -14.7843  -41.4447 O.2       2 UNK        -0.5000 
     62 CA          3.6471  -14.3498  -42.1958 C.3       2 UNK         0.1400 
     63 CB          4.1568  -15.1335  -40.9742 C.3       2 UNK        -0.1800 
     64 N           3.8950  -15.1400  -43.3990 N.am      2 UNK        -0.5000 
     65 C           3.8624  -14.6777  -44.6545 C.2       1 UNK         0.5000 
     66 O           3.8593  -13.4770  -44.9349 O.2       1 UNK        -0.5000 
     67 C           0.5763  -23.2211  -50.1299 C.2       11 UNK         0.5000 
     68 O           0.4769  -24.4422  -50.2520 O.2       11 UNK        -0.5000 
     69 N          -0.4326  -22.3700  -50.3687 N.am      12 UNK        -0.5000 
     70 CA         -1.7960  -22.7917  -50.6831 C.3       12 UNK         0.1400 
     71 CB         -2.4862  -21.7262  -51.5435 C.3       12 UNK        -0.1800 
     72 C          -2.5919  -23.0633  -49.3989 C.2       12 UNK         0.5000 
     73 O          -3.3127  -24.0573  -49.3374 O.2       12 UNK        -0.5000 
     74 N          -2.4270  -22.2079  -48.3796 N.am      13 UNK        -0.5000 
     75 CA         -3.0594  -22.3377  -47.0637 C.3       13 UNK         0.1400 
     76 CB         -2.7194  -21.1140  -46.2012 C.3       13 UNK        -0.1800 
     77 C          -2.6882  -23.6432  -46.3378 C.2       13 UNK         0.5000 
     78 O          -3.5610  -24.2649  -45.7324 O.2       13 UNK        -0.5000 
     79 N          -1.4288  -24.0792  -46.4808 N.am      14 UNK        -0.5000 
     80 CA         -0.9183  -25.3654  -45.9967 C.3       14 UNK         0.1400 
     81 CB          0.5975  -25.4213  -46.2408 C.3       14 UNK        -0.1800 
     82 C          -1.6066  -26.5939  -46.6302 C.2       14 UNK         0.5000 
     83 O          -1.6453  -27.6532  -46.0035 O.2       14 UNK        -0.5000 
     84 N          -2.1478  -26.4285  -47.8441 N.am      15 UNK        -0.5000 
     85 CA         -2.9121  -27.4369  -48.5793 C.3       15 UNK         0.1400 
     86 CB         -2.4856  -27.3791  -50.0567 C.3       15 UNK        -0.1800 
     87 C          -4.4362  -27.2321  -48.4437 C.2       15 UNK         0.5000 
     88 O          -5.1943  -27.9857  -49.0555 O.2       15 UNK        -0.5000 
     89 N          -4.8597  -26.2133  -47.6762 N.am      16 UNK        -0.5000 
     90 CA         -6.2359  -25.7289  -47.5077 C.3       16 UNK         0.1400 
     91 CB         -7.1085  -26.7795  -46.7901 C.3       16 UNK        -0.1800 
     92 C          -6.8636  -25.2150  -48.8242 C.2       16 UNK         0.5000 
     93 O          -8.0773  -25.3121  -49.0122 O.2       16 UNK        -0.5000 
     94 N          -6.0202  -24.6699  -49.7096 N.am      17 UNK        -0.5000 
     95 CA         -6.3604  -24.2060  -51.0538 C.3       17 UNK         0.1400 
     96 CB         -5.4046  -24.8810  -52.0536 C.3       17 UNK        -0.1800 
     97 C          -6.2924  -22.6718  -51.1721 C.2       17 UNK         0.5000 
     98 O          -6.2727  -22.1534  -52.2885 O.2       17 UNK        -0.5000 
     99 N          -6.2623  -21.9536  -50.0390 N.am      18 UNK        -0.5000 
    100 CA        -6.1373  -20.4909  -49.9578 C.3       18 UNK         0.1400 
    101 CB        -6.0561  -20.0678  -48.4838 C.3       18 UNK        -0.1800 
    102 C         -7.2442  -19.6965  -50.6842 C.2       18 UNK         0.5000 
    103 O         -7.0073  -18.5504  -51.0646 O.2       18 UNK        -0.5000 
    104 N         -8.4136  -20.3197  -50.8899 N.am      19 UNK        -0.5000 
    105 CA        -9.5175  -19.7813  -51.6877 C.3       19 UNK         0.1400 
    106 CB       -10.7703  -20.6400  -51.4571 C.3       19 UNK        -0.1800 
    107 C         -9.1886  -19.6961  -53.1929 C.2       19 UNK         0.5000 
    108 O         -9.6464  -18.7665  -53.8587 O.2       19 UNK        -0.5000 
    109 N         -8.3948  -20.6521  -53.6961 N.am      20 UNK        -0.5000 
    110 CA        -7.8452  -20.6448  -55.0539 C.3       20 UNK         0.1400 
    111 CB        -7.6299  -22.0930  -55.5213 C.3       20 UNK        -0.1800 
    112 C         -6.5261  -19.8520  -55.1165 C.2       20 UNK         0.5000 
    113 O         -6.2501  -19.2156  -56.1343 O.2       20 UNK        -0.5000 
    114 N         -5.7653  -19.8947  -54.0129 N.am      21 UNK        -0.5000 
    115 CA        -4.4700  -19.2599  -53.7650 C.3       21 UNK         0.1400 
    116 CB        -4.5395  -17.7311  -53.9692 C.3       21 UNK        -0.1800 
    117 C         -3.3145  -19.9176  -54.5457 C.2       21 UNK         0.5000 
    118 O         -3.5128  -20.8879  -55.2803 O.2       21 UNK        -0.5000 
    119 N         -2.1031  -19.4031  -54.3126 N.am      22 UNK        -0.5000 
    120 CA        -0.8338  -19.9287  -54.8395 C.3       22 UNK         0.1400 
    121 C         -0.5165  -19.5505  -56.3177 C.2       22 UNK         0.5000 
    122 N         -1.3192  -18.7303  -56.9846 N.am      22 UNK        -0.7600 
    123 O          0.4711  -20.0225  -56.8743 O.2       22 UNK        -0.5000 
    124 C124        0.3371  -19.5975  -53.8776 C.3       23 UNK        -0.0398 
    125 S125        0.5463  -17.8035  -53.5906 S.3       23 UNK        -0.2404 
    126 C126        2.3179  -17.5783  -53.9245 C.3       23 UNK        -0.0205 
    127 H127        7.2533  -18.2282  -44.3101 H         1 UNK         0.0600 
    128 H128        7.1645  -17.9105  -46.0457 H         1 UNK         0.0600 
    129 H129        6.4181  -19.3638  -45.3759 H         1 UNK         0.0600 
    130 H130        5.6858  -16.3170  -46.5165 H         1 UNK         0.3000 
    131 H131        2.9637  -16.3907  -45.4958 H         1 UNK         0.0600 
    132 H132        4.3100  -14.5591  -47.5384 H         1 UNK         0.0800 
    133 H133        2.6285  -14.4548  -47.0802 H         1 UNK         0.0800 
    134 H134        4.5676  -15.4698  -49.8830 H         1 UNK         0.0800 
    135 H135        5.3114  -16.7229  -48.9114 H         1 UNK         0.0800 
    136 H136        2.9242  -16.1187  -51.7150 H         1 UNK         0.1150 
    137 H137        3.5926  -19.9601  -53.4966 H         1 UNK         0.1150 
    138 H138        5.3700  -19.0141  -49.7110 H         1 UNK         0.1150 
    139 H139        5.0939  -21.5229  -52.5171 H         1 UNK         0.0800 
    140 H140        6.2863  -20.8650  -51.4272 H         1 UNK         0.0800 
    141 H141        2.5745  -21.7559  -51.5401 H         1 UNK         0.0800 
    142 H142        3.0002  -23.4418  -51.3622 H         1 UNK         0.0800 
    143 H143        2.3297  -23.3414  -48.9375 H         1 UNK         0.0600 
    144 H144        2.1038  -20.5249  -49.3780 H         1 UNK         0.3000 
    145 H145        0.1789  -19.8450  -46.4619 H         1 UNK         0.0600 
    146 H146        2.1090  -18.4721  -45.8647 H         1 UNK         0.0600 
    147 H147        3.1300  -19.2881  -47.0511 H         1 UNK         0.0600 
    148 H148        2.5325  -20.1582  -45.6418 H         1 UNK         0.0600 
    149 H149        1.2845  -17.9746  -48.1673 H         1 UNK         0.3000 
    150 H150        0.3386  -17.4434  -50.4664 H         1 UNK         0.0600 
    151 H151       -1.6524  -18.5757  -51.4844 H         1 UNK         0.0600 
    152 H152       -1.8689  -16.8330  -51.4629 H         1 UNK         0.0600 
    153 H153       -2.7079  -17.8410  -50.2836 H         1 UNK         0.0600 
    154 H154       -1.2513  -16.6284  -48.1235 H         1 UNK         0.3000 
    155 H155        0.3040  -13.7468  -47.7730 H         1 UNK         0.0600 
    156 H156       -1.6095  -12.1702  -48.0205 H         1 UNK         0.0600 
    157 H157       -2.3829  -13.2672  -49.1659 H         1 UNK         0.0600 
    158 H158       -0.8569  -12.4917  -49.5724 H         1 UNK         0.0600 
    159 H159       -2.4243  -14.4891  -47.0522 H         1 UNK         0.3000 
    160 H160       -2.3280  -14.7182  -44.4451 H         1 UNK         0.0600 
    161 H161       -2.7740  -17.3528  -45.9505 H         1 UNK         0.0600 
    162 H162       -3.7281  -15.8832  -46.0633 H         1 UNK         0.0600 
    163 H163       -3.7563  -16.8249  -44.5867 H         1 UNK         0.0600 
    164 H164       -1.1884  -15.7581  -42.8647 H         1 UNK         0.3000 
    165 H165       -0.3371  -18.9415  -42.0975 H         1 UNK         0.0600 
    166 H166        1.9024  -17.0785  -43.0295 H         1 UNK         0.0600 
    167 H167        2.0716  -18.2756  -41.7454 H         1 UNK         0.0600 
    168 H168        1.7412  -18.7889  -43.3917 H         1 UNK         0.0600 
    169 H169        0.4578  -16.2617  -41.1785 H         1 UNK         0.3000 
    170 H170       -2.2341  -16.1677  -38.7934 H         1 UNK         0.0600 
    171 H171       -0.4775  -17.6172  -37.7714 H         1 UNK         0.0600 
    172 H172        0.7803  -16.5687  -38.4190 H         1 UNK         0.0600 
    173 H173       -0.3445  -15.9590  -37.2061 H         1 UNK         0.0600 
    174 H174       -0.0913  -14.6594  -40.2302 H         1 UNK         0.3000 
    175 H175       -1.8740  -11.6650  -39.7895 H         1 UNK         0.0600 
    176 H176        0.7515  -12.2383  -38.3118 H         1 UNK         0.0600 
    177 H177        0.1584  -10.6465  -38.7895 H         1 UNK         0.0600 
    178 H178       -0.7074  -11.5804  -37.5808 H         1 UNK         0.0600 
    179 H179        0.7730  -12.1730  -40.7663 H         1 UNK         0.3000 
    180 H180       -0.0184  -13.5782  -43.8343 H         1 UNK         0.0600 
    181 H181        0.6444  -10.6081  -43.5503 H         1 UNK         0.0600 
    182 H182       -0.7481  -11.2532  -44.4129 H         1 UNK         0.0600 
    183 H183        0.8721  -11.6019  -44.9908 H         1 UNK         0.0600 
    184 H184        2.3965  -12.5289  -43.3931 H         1 UNK         0.3000 
    185 H185        4.1935  -13.4063  -42.2549 H         1 UNK         0.0600 
    186 H186        3.9617  -14.5867  -40.0509 H         1 UNK         0.0600 
    187 H187        3.6758  -16.1089  -40.8871 H         1 UNK         0.0600 
    188 H188        5.2327  -15.2977  -41.0347 H         1 UNK         0.0600 
    189 H189        3.9449  -16.1472  -43.2799 H         1 UNK         0.3000 
    190 H190       -0.3040  -21.3872  -50.1634 H         1 UNK         0.3000 
    191 H191       -1.7662  -23.7168  -51.2631 H         1 UNK         0.0600 
    192 H192       -3.4650  -22.0694  -51.8774 H         1 UNK         0.0600 
    193 H193       -1.8983  -21.5158  -52.4350 H         1 UNK         0.0600 
    194 H194       -2.6327  -20.7908  -51.0043 H         1 UNK         0.0600 
    195 H195       -1.8527  -21.3818  -48.5292 H         1 UNK         0.3000 
    196 H196       -4.1386  -22.3568  -47.2226 H         1 UNK         0.0600 
    197 H197       -3.2892  -21.1232  -45.2714 H         1 UNK         0.0600 
    198 H198       -2.9518  -20.1820  -46.7171 H         1 UNK         0.0600 
    199 H199       -1.6638  -21.0942  -45.9334 H         1 UNK         0.0600 
    200 H200       -0.7553  -23.4695  -46.9370 H         1 UNK         0.3000 
    201 H201       -1.0956  -25.4099  -44.9204 H         1 UNK         0.0600 
    202 H202        1.1116  -24.6190  -45.7112 H         1 UNK         0.0600 
    203 H203        0.8359  -25.3286  -47.3013 H         1 UNK         0.0600 
    204 H204        1.0186  -26.3639  -45.8885 H         1 UNK         0.0600 
    205 H205       -2.1023  -25.5145  -48.2768 H         1 UNK         0.3000 
    206 H206       -2.6829  -28.4341  -48.1989 H         1 UNK         0.0600 
    207 H207       -1.4104  -27.5241  -50.1625 H         1 UNK         0.0600 
    208 H208       -2.9763  -28.1601  -50.6386 H         1 UNK         0.0600 
    209 H209       -2.7399  -26.4222  -50.5138 H         1 UNK         0.0600 
    210 H210       -4.1566  -25.6648  -47.1955 H         1 UNK         0.3000 
    211 H211       -6.1678  -24.8600  -46.8519 H         1 UNK         0.0600 
    212 H212       -7.2873  -27.6551  -47.4146 H         1 UNK         0.0600 
    213 H213       -8.0815  -26.3644  -46.5251 H         1 UNK         0.0600 
    214 H214       -6.6388  -27.1163  -45.8659 H         1 UNK         0.0600 
    215 H215       -5.0335  -24.5996  -49.4650 H         1 UNK         0.3000 
    216 H216       -7.3800  -24.4983  -51.3110 H         1 UNK         0.0600 
    217 H217       -5.6619  -24.6248  -53.0822 H         1 UNK         0.0600 
    218 H218       -5.4520  -25.9669  -51.9696 H         1 UNK         0.0600 
    219 H219       -4.3698  -24.5795  -51.8883 H         1 UNK         0.0600 
    220 H220       -6.2964  -22.4557  -49.1647 H         1 UNK         0.3000 
    221 H221       -5.1933  -20.2211  -50.4354 H         1 UNK         0.0600 
    222 H222       -6.9226  -20.4102  -47.9171 H         1 UNK         0.0600 
    223 H223       -5.1608  -20.4646  -48.0100 H         1 UNK         0.0600 
    224 H224       -6.0084  -18.9821  -48.3877 H         1 UNK         0.0600 
    225 H225       -8.5278  -21.2540  -50.5260 H         1 UNK         0.3000 
    226 H226       -9.7282  -18.7689  -51.3365 H         1 UNK         0.0600 
    227 H227      -11.0563  -20.6461  -50.4051 H         1 UNK         0.0600 
    228 H228      -11.6190  -20.2509  -52.0212 H         1 UNK         0.0600 
    229 H229      -10.6143  -21.6733  -51.7696 H         1 UNK         0.0600 
    230 H230       -8.0167  -21.3515  -53.0690 H         1 UNK         0.3000 
    231 H231       -8.5570  -20.1726  -55.7344 H         1 UNK         0.0600 
    232 H232       -7.2494  -22.1185  -56.5431 H         1 UNK         0.0600 
    233 H233       -8.5639  -22.6548  -55.5073 H         1 UNK         0.0600 
    234 H234       -6.9115  -22.6200  -54.8923 H         1 UNK         0.0600 
    235 H235       -6.0553  -20.5519  -53.2955 H         1 UNK         0.3000 
    236 H236       -4.2636  -19.4384  -52.7089 H         1 UNK         0.0600 
    237 H237       -5.4012  -17.3068  -53.4531 H         1 UNK         0.0600 
    238 H238       -3.6547  -17.2357  -53.5690 H         1 UNK         0.0600 
    239 H239       -4.6140  -17.4623  -55.0231 H         1 UNK         0.0600 
    240 H240       -2.0150  -18.5852  -53.7278 H         1 UNK         0.3000 
    241 H241       -0.9208  -21.0170  -54.8488 H         1 UNK         0.0600 
    242 H242       -2.1378  -18.3447  -56.5429 H         1 UNK         0.3800 
    243 H243       -1.1074  -18.4970  -57.9420 H         1 UNK         0.3800 
    244 H244        0.1618  -20.0690  -52.9098 H         1 UNK         0.0800 
    245 H245        1.2654  -20.0344  -54.2475 H         1 UNK         0.0800 
    246 H246        2.4995  -16.5254  -54.1452 H         1 UNK         0.0800 
    247 H247        2.6052  -18.1279  -54.8223 H         1 UNK         0.0800 
@<TRIPOS>BOND
     1    1    2 1    
     2    1  127 1    
     3    1  128 1    
     4    1  129 1    
     5    2    3 2    
     6    2    4 am   BACKBONE|DICT|INTERRES
     7    4    5 1    
     8    4  130 1    
     9    5    6 1    
    10    5   65 1    
    11    5  131 1    
    12    6    7 1    
    13    6  132 1    
    14    6  133 1    
    15    7    8 1    
    16    8    9 1    
    17    8  134 1    
    18    8  135 1    
    19    9   10 ar   
    20    9   14 ar   
    21   10   11 ar   
    22   10  136 1    
    23   11   12 ar   
    24   11  126 1    
    25   12   13 ar   
    26   12  137 1    
    27   13   14 ar   
    28   13   15 1    
    29   14  138 1    
    30   15   16 1    
    31   15  139 1    
    32   15  140 1    
    33   16   17 1    
    34   17   18 1    
    35   17  141 1    
    36   17  142 1    
    37   18   19 1    
    38   18   67 1    
    39   18  143 1    
    40   19   20 am   BACKBONE|DICT|INTERRES
    41   19  144 1    
    42   20   21 2    
    43   20   22 1    
    44   22   23 1    
    45   22   24 1    
    46   22  145 1    
    47   23  146 1    
    48   23  147 1    
    49   23  148 1    
    50   24   25 am   BACKBONE|DICT|INTERRES
    51   24  149 1    
    52   25   26 2    
    53   25   27 1    
    54   27   28 1    
    55   27   29 1    
    56   27  150 1    
    57   28  151 1    
    58   28  152 1    
    59   28  153 1    
    60   29   30 am   BACKBONE|DICT|INTERRES
    61   29  154 1    
    62   30   31 2    
    63   30   32 1    
    64   32   33 1    
    65   32   34 1    
    66   32  155 1    
    67   33  156 1    
    68   33  157 1    
    69   33  158 1    
    70   34   35 am   BACKBONE|DICT|INTERRES
    71   34  159 1    
    72   35   36 2    
    73   35   37 1    
    74   37   38 1    
    75   37   39 1    
    76   37  160 1    
    77   38  161 1    
    78   38  162 1    
    79   38  163 1    
    80   39   40 am   BACKBONE|DICT|INTERRES
    81   39  164 1    
    82   40   41 2    
    83   40   42 1    
    84   42   43 1    
    85   42   44 1    
    86   42  165 1    
    87   43  166 1    
    88   43  167 1    
    89   43  168 1    
    90   44   45 am   BACKBONE|DICT|INTERRES
    91   44  169 1    
    92   45   46 2    
    93   45   47 1    
    94   47   48 1    
    95   47   49 1    
    96   47  170 1    
    97   48  171 1    
    98   48  172 1    
    99   48  173 1    
   100   49   50 am   BACKBONE|DICT|INTERRES
   101   49  174 1    
   102   50   51 2    
   103   50   52 1    
   104   52   53 1    
   105   52   54 1    
   106   52  175 1    
   107   53  176 1    
   108   53  177 1    
   109   53  178 1    
   110   54   55 am   BACKBONE|DICT|INTERRES
   111   54  179 1    
   112   55   56 2    
   113   55   57 1    
   114   57   58 1    
   115   57   59 1    
   116   57  180 1    
   117   58  181 1    
   118   58  182 1    
   119   58  183 1    
   120   59   60 am   BACKBONE|DICT|INTERRES
   121   59  184 1    
   122   60   61 2    
   123   60   62 1    
   124   62   63 1    
   125   62   64 1    
   126   62  185 1    
   127   63  186 1    
   128   63  187 1    
   129   63  188 1    
   130   64   65 am   BACKBONE|DICT|INTERRES
   131   64  189 1    
   132   65   66 2    
   133   67   68 2    
   134   67   69 am   BACKBONE|DICT|INTERRES
   135   69   70 1    
   136   69  190 1    
   137   70   71 1    
   138   70   72 1    
   139   70  191 1    
   140   71  192 1    
   141   71  193 1    
   142   71  194 1    
   143   72   73 2    
   144   72   74 am   BACKBONE|DICT|INTERRES
   145   74   75 1    
   146   74  195 1    
   147   75   76 1    
   148   75   77 1    
   149   75  196 1    
   150   76  197 1    
   151   76  198 1    
   152   76  199 1    
   153   77   78 2    
   154   77   79 am   BACKBONE|DICT|INTERRES
   155   79   80 1    
   156   79  200 1    
   157   80   81 1    
   158   80   82 1    
   159   80  201 1    
   160   81  202 1    
   161   81  203 1    
   162   81  204 1    
   163   82   83 2    
   164   82   84 am   BACKBONE|DICT|INTERRES
   165   84   85 1    
   166   84  205 1    
   167   85   86 1    
   168   85   87 1    
   169   85  206 1    
   170   86  207 1    
   171   86  208 1    
   172   86  209 1    
   173   87   88 2    
   174   87   89 am   BACKBONE|DICT|INTERRES
   175   89   90 1    
   176   89  210 1    
   177   90   91 1    
   178   90   92 1    
   179   90  211 1    
   180   91  212 1    
   181   91  213 1    
   182   91  214 1    
   183   92   93 2    
   184   92   94 am   BACKBONE|DICT|INTERRES
   185   94   95 1    
   186   94  215 1    
   187   95   96 1    
   188   95   97 1    
   189   95  216 1    
   190   96  217 1    
   191   96  218 1    
   192   96  219 1    
   193   97   98 2    
   194   97   99 am   BACKBONE|DICT|INTERRES
   195   99  100 1    
   196   99  220 1    
   197  100  101 1    
   198  100  102 1    
   199  100  221 1    
   200  101  222 1    
   201  101  223 1    
   202  101  224 1    
   203  102  103 2    
   204  102  104 am   BACKBONE|DICT|INTERRES
   205  104  105 1    
   206  104  225 1    
   207  105  106 1    
   208  105  107 1    
   209  105  226 1    
   210  106  227 1    
   211  106  228 1    
   212  106  229 1    
   213  107  108 2    
   214  107  109 am   BACKBONE|DICT|INTERRES
   215  109  110 1    
   216  109  230 1    
   217  110  111 1    
   218  110  112 1    
   219  110  231 1    
   220  111  232 1    
   221  111  233 1    
   222  111  234 1    
   223  112  113 2    
   224  112  114 am   BACKBONE|DICT|INTERRES
   225  114  115 1    
   226  114  235 1    
   227  115  116 1    
   228  115  117 1    
   229  115  236 1    
   230  116  237 1    
   231  116  238 1    
   232  116  239 1    
   233  117  118 2    
   234  117  119 am   BACKBONE|DICT|INTERRES
   235  119  120 1    
   236  119  240 1    
   237  120  121 1    
   238  120  124 1    
   239  120  241 1    
   240  121  122 am   BACKBONE|DICT|INTERRES
   241  121  123 2    
   242  122  242 1    
   243  122  243 1    
   244  124  125 1    
   245  124  244 1    
   246  124  245 1    
   247  125  126 1    
   248  126  246 1    
   249  126  247 1    
@<TRIPOS>SUBSTRUCTURE
     1 UNK         1 GROUP             0       ****    0 ROOT    
