@<TRIPOS>MOLECULE
3R540
247   249    1
SMALL
USER_CHARGES


@<TRIPOS>ATOM
      1 CA         -4.0404  -16.6572  -46.2598 C.3       0 UNK        -0.1800 
      2 C          -3.0581  -15.7453  -46.9817 C.2       0 UNK         0.5000 
      3 O          -1.8811  -16.0785  -47.0812 O.2       0 UNK        -0.5000 
      4 N          -3.5371  -14.5990  -47.4863 N.am      1 UNK        -0.5000 
      5 CA         -2.7818  -13.6116  -48.2792 C.3       1 UNK         0.1400 
      6 C6         -2.2896  -14.1646  -49.6480 C.3       23 UNK        -0.0398 
      7 S7         -3.6650  -14.5171  -50.7990 S.3       23 UNK        -0.2404 
      8 C8         -3.8989  -16.3164  -50.6424 C.3       23 UNK        -0.0205 
      9 C9         -2.7094  -17.1138  -51.1556 C.ar      23 UNK        -0.0193 
     10 C10        -2.5011  -17.2661  -52.5285 C.ar      23 UNK        -0.1150 
     11 C11        -1.4253  -18.0224  -52.9993 C.ar      23 UNK        -0.0193 
     12 C12        -0.5666  -18.6393  -52.0860 C.ar      23 UNK        -0.1150 
     13 C13        -0.7633  -18.5077  -50.7085 C.ar      23 UNK        -0.0193 
     14 C14        -1.8344  -17.7270  -50.2547 C.ar      23 UNK        -0.1150 
     15 C15         0.2053  -19.2430  -49.7768 C.3       23 UNK        -0.0205 
     16 S16        -0.0384  -19.0352  -47.9796 S.3       23 UNK        -0.2404 
     17 C17        -1.6301  -19.8661  -47.6318 C.3       23 UNK        -0.0398 
     18 CA         -1.5139  -21.3252  -47.1199 C.3       11 UNK         0.1400 
     19 N          -0.5551  -21.4991  -46.0237 N.am      11 UNK        -0.5000 
     20 C          -0.1437  -22.6917  -45.5703 C.2       10 UNK         0.5000 
     21 O          -0.4601  -23.7650  -46.0878 O.2       10 UNK        -0.5000 
     22 CA          0.7358  -22.6992  -44.3068 C.3       10 UNK         0.1400 
     23 CB          2.2185  -22.5270  -44.6685 C.3       10 UNK        -0.1800 
     24 N           0.3322  -21.6885  -43.3255 N.am      10 UNK        -0.5000 
     25 C          -0.8379  -21.7090  -42.6699 C.2       9 UNK         0.5000 
     26 O          -1.6765  -22.5965  -42.8080 O.2       9 UNK        -0.5000 
     27 CA         -1.1550  -20.5290  -41.7350 C.3       9 UNK         0.1400 
     28 CB         -0.4729  -20.7173  -40.3723 C.3       9 UNK        -0.1800 
     29 N          -0.7868  -19.2345  -42.3050 N.am      9 UNK        -0.5000 
     30 C          -1.3071  -18.7237  -43.4311 C.2       8 UNK         0.5000 
     31 O          -2.2021  -19.2647  -44.0813 O.2       8 UNK        -0.5000 
     32 CA         -0.6812  -17.4182  -43.9507 C.3       8 UNK         0.1400 
     33 CB         -1.2787  -16.2003  -43.2301 C.3       8 UNK        -0.1800 
     34 N           0.7759  -17.3935  -43.8269 N.am      8 UNK        -0.5000 
     35 C           1.6069  -18.2845  -44.3860 C.2       7 UNK         0.5000 
     36 O           1.2361  -19.2466  -45.0547 O.2       7 UNK        -0.5000 
     37 CA          3.1012  -18.1210  -44.0743 C.3       7 UNK         0.1400 
     38 CB          3.6999  -16.9076  -44.8044 C.3       7 UNK        -0.1800 
     39 N           3.3288  -18.0128  -42.6340 N.am      7 UNK        -0.5000 
     40 C           3.1348  -19.0153  -41.7640 C.2       6 UNK         0.5000 
     41 O           2.7972  -20.1529  -42.0927 O.2       6 UNK        -0.5000 
     42 CA          3.3224  -18.6829  -40.2724 C.3       6 UNK         0.1400 
     43 CB          4.7932  -18.8499  -39.8627 C.3       6 UNK        -0.1800 
     44 N           2.8769  -17.3306  -39.9328 N.am      6 UNK        -0.5000 
     45 C           1.5986  -16.9269  -39.9500 C.2       5 UNK         0.5000 
     46 O           0.6515  -17.6575  -40.2384 O.2       5 UNK        -0.5000 
     47 CA          1.3488  -15.4375  -39.6483 C.3       5 UNK         0.1400 
     48 CB          1.3579  -15.1782  -38.1343 C.3       5 UNK        -0.1800 
     49 N           2.3162  -14.5515  -40.3052 N.am      5 UNK        -0.5000 
     50 C           2.4602  -14.4596  -41.6328 C.2       4 UNK         0.5000 
     51 O           1.8063  -15.1297  -42.4342 O.2       4 UNK        -0.5000 
     52 CA          3.5324  -13.4979  -42.1562 C.3       4 UNK         0.1400 
     53 CB          4.9186  -14.1686  -42.1477 C.3       4 UNK        -0.1800 
     54 N           3.1599  -13.1108  -43.5117 N.am      4 UNK        -0.5000 
     55 C           3.6197  -12.0612  -44.1962 C.2       3 UNK         0.5000 
     56 O           4.4894  -11.2982  -43.7736 O.2       3 UNK        -0.5000 
     57 CA          2.9730  -11.7862  -45.5673 C.3       3 UNK         0.1400 
     58 CB          3.4635  -12.7785  -46.6407 C.3       3 UNK        -0.1800 
     59 N           1.5062  -11.7031  -45.5091 N.am      3 UNK        -0.5000 
     60 C           0.6081  -12.6815  -45.3183 C.2       2 UNK         0.5000 
     61 O           0.9056  -13.8707  -45.2087 O.2       2 UNK        -0.5000 
     62 CA         -0.8732  -12.2636  -45.1730 C.3       2 UNK         0.1400 
     63 CB         -1.1105  -10.7359  -45.1951 C.3       2 UNK        -0.1800 
     64 N          -1.7508  -12.9252  -46.1427 N.am      2 UNK        -0.5000 
     65 C          -1.6624  -12.8917  -47.4818 C.2       1 UNK         0.5000 
     66 O          -0.7827  -12.2765  -48.0875 O.2       1 UNK        -0.5000 
     67 C          -2.9030  -21.8680  -46.7192 C.2       11 UNK         0.5000 
     68 O          -3.4812  -22.6701  -47.4514 O.2       11 UNK        -0.5000 
     69 N          -3.3951  -21.4552  -45.5403 N.am      12 UNK        -0.5000 
     70 CA         -4.6953  -21.8457  -44.9870 C.3       12 UNK         0.1400 
     71 CB         -4.9769  -21.0246  -43.7200 C.3       12 UNK        -0.1800 
     72 C          -4.8211  -23.3535  -44.6952 C.2       12 UNK         0.5000 
     73 O          -5.8805  -23.9318  -44.9392 O.2       12 UNK        -0.5000 
     74 N          -3.7355  -23.9688  -44.2079 N.am      13 UNK        -0.5000 
     75 CA         -3.6252  -25.4081  -43.9556 C.3       13 UNK         0.1400 
     76 CB         -2.4405  -25.6577  -43.0081 C.3       13 UNK        -0.1800 
     77 C          -3.4633  -26.2511  -45.2366 C.2       13 UNK         0.5000 
     78 O          -3.5223  -27.4785  -45.1522 O.2       13 UNK        -0.5000 
     79 N          -3.2408  -25.5914  -46.3831 N.am      14 UNK        -0.5000 
     80 CA         -2.9716  -26.1659  -47.7032 C.3       14 UNK         0.1400 
     81 CB         -4.1797  -26.9741  -48.2216 C.3       14 UNK        -0.1800 
     82 C          -1.6410  -26.9472  -47.7620 C.2       14 UNK         0.5000 
     83 O          -1.5164  -27.9007  -48.5335 O.2       14 UNK        -0.5000 
     84 N          -0.6582  -26.5143  -46.9589 N.am      15 UNK        -0.5000 
     85 CA          0.7377  -26.9400  -47.0617 C.3       15 UNK         0.1400 
     86 CB          1.4530  -26.6812  -45.7265 C.3       15 UNK        -0.1800 
     87 C           1.4338  -26.1998  -48.2189 C.2       15 UNK         0.5000 
     88 O           2.2196  -26.8032  -48.9505 O.2       15 UNK        -0.5000 
     89 N           1.0833  -24.9186  -48.3827 N.am      16 UNK        -0.5000 
     90 CA          1.3391  -24.1100  -49.5705 C.3       16 UNK         0.1400 
     91 CB          1.8101  -22.7171  -49.1142 C.3       16 UNK        -0.1800 
     92 C           0.0542  -24.0400  -50.4244 C.2       16 UNK         0.5000 
     93 O          -0.9437  -24.6886  -50.0999 O.2       16 UNK        -0.5000 
     94 N           0.0941  -23.2623  -51.5133 N.am      17 UNK        -0.5000 
     95 CA         -1.0617  -22.9814  -52.3731 C.3       17 UNK         0.1400 
     96 CB         -0.5509  -22.3568  -53.6814 C.3       17 UNK        -0.1800 
     97 C          -2.1110  -22.0804  -51.6805 C.2       17 UNK         0.5000 
     98 O          -1.8819  -21.6076  -50.5671 O.2       17 UNK        -0.5000 
     99 N          -3.2497  -21.8520  -52.3420 N.am      18 UNK        -0.5000 
    100 CA        -4.3305  -21.0026  -51.8483 C.3       18 UNK         0.1400 
    101 CB        -5.1289  -21.7440  -50.7558 C.3       18 UNK        -0.1800 
    102 C         -5.2462  -20.5889  -53.0092 C.2       18 UNK         0.5000 
    103 O         -5.1764  -21.1822  -54.0897 O.2       18 UNK        -0.5000 
    104 N         -6.1162  -19.6081  -52.7287 N.am      19 UNK        -0.5000 
    105 CA        -7.1178  -19.0083  -53.6173 C.3       19 UNK         0.1400 
    106 CB        -8.1105  -20.0743  -54.1349 C.3       19 UNK        -0.1800 
    107 C         -6.5003  -18.1632  -54.7519 C.2       19 UNK         0.5000 
    108 O         -5.2976  -17.8973  -54.7569 O.2       19 UNK        -0.5000 
    109 N         -7.3531  -17.7130  -55.6811 N.am      20 UNK        -0.5000 
    110 CA        -6.9778  -16.8643  -56.8150 C.3       20 UNK         0.1400 
    111 CB        -8.2448  -16.1975  -57.3733 C.3       20 UNK        -0.1800 
    112 C         -6.2324  -17.6189  -57.9333 C.2       20 UNK         0.5000 
    113 O         -5.5848  -16.9763  -58.7606 O.2       20 UNK        -0.5000 
    114 N         -6.3313  -18.9568  -57.9450 N.am      21 UNK        -0.5000 
    115 CA        -5.7637  -19.8537  -58.9576 C.3       21 UNK         0.1400 
    116 CB        -6.1644  -21.2982  -58.6205 C.3       21 UNK        -0.1800 
    117 C         -4.2349  -19.7447  -59.1238 C.2       21 UNK         0.5000 
    118 O         -3.7328  -19.9199  -60.2349 O.2       21 UNK        -0.5000 
    119 N         -3.5351  -19.4385  -58.0266 N.am      22 UNK        -0.5000 
    120 CA        -2.0916  -19.1620  -57.9828 C.3       22 UNK         0.1400 
    121 C         -1.7285  -17.6516  -58.1071 C.2       22 UNK         0.5000 
    122 N         -2.6703  -16.7474  -58.3503 N.am      22 UNK        -0.7600 
    123 O         -0.5597  -17.2888  -58.0043 O.2       22 UNK        -0.5000 
    124 C124       -1.4162  -19.8471  -56.7655 C.3       23 UNK        -0.0398 
    125 S125       -2.2240  -19.5179  -55.1617 S.3       23 UNK        -0.2404 
    126 C126       -1.1911  -18.1842  -54.4915 C.3       23 UNK        -0.0205 
    127 H127       -4.1725  -17.5818  -46.8217 H         1 UNK         0.0600 
    128 H128       -5.0170  -16.1880  -46.1397 H         1 UNK         0.0600 
    129 H129       -3.6622  -16.9142  -45.2708 H         1 UNK         0.0600 
    130 H130       -4.5161  -14.3815  -47.3606 H         1 UNK         0.3000 
    131 H131       -3.4969  -12.8170  -48.4981 H         1 UNK         0.0600 
    132 H132       -1.6594  -15.0432  -49.5151 H         1 UNK         0.0800 
    133 H133       -1.6625  -13.4325  -50.1587 H         1 UNK         0.0800 
    134 H134       -4.1164  -16.5682  -49.6044 H         1 UNK         0.0800 
    135 H135       -4.7855  -16.6001  -51.2112 H         1 UNK         0.0800 
    136 H136       -3.1796  -16.8022  -53.2313 H         1 UNK         0.1150 
    137 H137        0.2585  -19.2348  -52.4499 H         1 UNK         0.1150 
    138 H138       -2.0049  -17.5959  -49.1981 H         1 UNK         0.1150 
    139 H139        0.1931  -20.3071  -50.0064 H         1 UNK         0.0800 
    140 H140        1.2152  -18.9008  -50.0056 H         1 UNK         0.0800 
    141 H141       -2.1444  -19.2453  -46.8963 H         1 UNK         0.0800 
    142 H142       -2.2506  -19.8466  -48.5283 H         1 UNK         0.0800 
    143 H143       -1.1657  -21.9347  -47.9554 H         1 UNK         0.0600 
    144 H144       -0.1938  -20.6554  -45.5893 H         1 UNK         0.3000 
    145 H145        0.6204  -23.6781  -43.8366 H         1 UNK         0.0600 
    146 H146        2.8502  -22.5907  -43.7824 H         1 UNK         0.0600 
    147 H147        2.5442  -23.3062  -45.3587 H         1 UNK         0.0600 
    148 H148        2.4119  -21.5680  -45.1481 H         1 UNK         0.0600 
    149 H149        0.9757  -20.9219  -43.1682 H         1 UNK         0.3000 
    150 H150       -2.2343  -20.5197  -41.5713 H         1 UNK         0.0600 
    151 H151       -0.7379  -21.6795  -39.9322 H         1 UNK         0.0600 
    152 H152       -0.7797  -19.9439  -39.6682 H         1 UNK         0.0600 
    153 H153        0.6132  -20.6825  -40.4569 H         1 UNK         0.0600 
    154 H154       -0.0871  -18.6989  -41.8010 H         1 UNK         0.3000 
    155 H155       -0.9169  -17.3439  -45.0129 H         1 UNK         0.0600 
    156 H156       -0.9229  -15.2709  -43.6741 H         1 UNK         0.0600 
    157 H157       -1.0113  -16.1890  -42.1728 H         1 UNK         0.0600 
    158 H158       -2.3669  -16.1974  -43.2960 H         1 UNK         0.0600 
    159 H159        1.1696  -16.6196  -43.2954 H         1 UNK         0.3000 
    160 H160        3.6174  -19.0145  -44.4323 H         1 UNK         0.0600 
    161 H161        3.2280  -15.9726  -44.5036 H         1 UNK         0.0600 
    162 H162        3.5667  -17.0029  -45.8828 H         1 UNK         0.0600 
    163 H163        4.7699  -16.8215  -44.6162 H         1 UNK         0.0600 
    164 H164        3.5507  -17.0974  -42.2747 H         1 UNK         0.3000 
    165 H165        2.7250  -19.3926  -39.6961 H         1 UNK         0.0600 
    166 H166        5.4415  -18.1483  -40.3893 H         1 UNK         0.0600 
    167 H167        4.9249  -18.6911  -38.7922 H         1 UNK         0.0600 
    168 H168        5.1483  -19.8567  -40.0868 H         1 UNK         0.0600 
    169 H169        3.5912  -16.6608  -39.6889 H         1 UNK         0.3000 
    170 H170        0.3561  -15.1879  -40.0294 H         1 UNK         0.0600 
    171 H171        0.6356  -15.8177  -37.6250 H         1 UNK         0.0600 
    172 H172        2.3370  -15.3747  -37.6957 H         1 UNK         0.0600 
    173 H173        1.0902  -14.1456  -37.9097 H         1 UNK         0.0600 
    174 H174        2.8902  -13.9791  -39.7028 H         1 UNK         0.3000 
    175 H175        3.5452  -12.6094  -41.5217 H         1 UNK         0.0600 
    176 H176        5.6943  -13.4825  -42.4873 H         1 UNK         0.0600 
    177 H177        5.1934  -14.4910  -41.1428 H         1 UNK         0.0600 
    178 H178        4.9455  -15.0460  -42.7938 H         1 UNK         0.0600 
    179 H179        2.4118  -13.6692  -43.9200 H         1 UNK         0.3000 
    180 H180        3.3056  -10.7937  -45.8757 H         1 UNK         0.0600 
    181 H181        3.0140  -12.5637  -47.6102 H         1 UNK         0.0600 
    182 H182        4.5454  -12.7123  -46.7607 H         1 UNK         0.0600 
    183 H183        3.2315  -13.8127  -46.3853 H         1 UNK         0.0600 
    184 H184        1.1405  -10.7632  -45.5707 H         1 UNK         0.3000 
    185 H185       -1.1838  -12.6242  -44.1912 H         1 UNK         0.0600 
    186 H186       -0.8270  -10.2881  -46.1484 H         1 UNK         0.0600 
    187 H187       -2.1624  -10.5052  -45.0259 H         1 UNK         0.0600 
    188 H188       -0.5473  -10.2351  -44.4066 H         1 UNK         0.0600 
    189 H189       -2.4899  -13.4885  -45.7483 H         1 UNK         0.3000 
    190 H190       -2.8598  -20.7847  -44.9927 H         1 UNK         0.3000 
    191 H191       -5.4548  -21.5923  -45.7294 H         1 UNK         0.0600 
    192 H192       -5.9514  -21.2749  -43.2990 H         1 UNK         0.0600 
    193 H193       -4.9800  -19.9559  -43.9353 H         1 UNK         0.0600 
    194 H194       -4.2279  -21.2082  -42.9492 H         1 UNK         0.0600 
    195 H195       -2.9261  -23.4067  -43.9546 H         1 UNK         0.3000 
    196 H196       -4.5372  -25.7431  -43.4575 H         1 UNK         0.0600 
    197 H197       -2.3457  -26.7165  -42.7644 H         1 UNK         0.0600 
    198 H198       -2.5674  -25.1208  -42.0679 H         1 UNK         0.0600 
    199 H199       -1.4977  -25.3375  -43.4539 H         1 UNK         0.0600 
    200 H200       -3.2157  -24.5793  -46.3486 H         1 UNK         0.3000 
    201 H201       -2.8473  -25.3123  -48.3699 H         1 UNK         0.0600 
    202 H202       -5.0985  -26.3907  -48.1614 H         1 UNK         0.0600 
    203 H203       -4.3272  -27.8950  -47.6572 H         1 UNK         0.0600 
    204 H204       -4.0413  -27.2518  -49.2670 H         1 UNK         0.0600 
    205 H205       -0.8332  -25.6864  -46.3984 H         1 UNK         0.3000 
    206 H206        0.7741  -28.0119  -47.2671 H         1 UNK         0.0600 
    207 H207        0.9673  -27.2159  -44.9101 H         1 UNK         0.0600 
    208 H208        2.4885  -27.0208  -45.7688 H         1 UNK         0.0600 
    209 H209        1.4662  -25.6219  -45.4708 H         1 UNK         0.0600 
    210 H210        0.4020  -24.5353  -47.7362 H         1 UNK         0.3000 
    211 H211        2.1235  -24.5631  -50.1799 H         1 UNK         0.0600 
    212 H212        1.0394  -22.1917  -48.5521 H         1 UNK         0.0600 
    213 H213        2.0859  -22.0897  -49.9619 H         1 UNK         0.0600 
    214 H214        2.6892  -22.7922  -48.4738 H         1 UNK         0.0600 
    215 H215        0.9359  -22.7448  -51.7152 H         1 UNK         0.3000 
    216 H216       -1.5468  -23.9301  -52.6123 H         1 UNK         0.0600 
    217 H217       -1.3572  -22.2578  -54.4080 H         1 UNK         0.0600 
    218 H218        0.2172  -22.9769  -54.1437 H         1 UNK         0.0600 
    219 H219       -0.1287  -21.3652  -53.5179 H         1 UNK         0.0600 
    220 H220       -3.3900  -22.2021  -53.2815 H         1 UNK         0.3000 
    221 H221       -3.8957  -20.0918  -51.4294 H         1 UNK         0.0600 
    222 H222       -5.5657  -22.6670  -51.1387 H         1 UNK         0.0600 
    223 H223       -4.4981  -22.0027  -49.9057 H         1 UNK         0.0600 
    224 H224       -5.9431  -21.1297  -50.3704 H         1 UNK         0.0600 
    225 H225       -6.0649  -19.1876  -51.8123 H         1 UNK         0.3000 
    226 H226       -7.6799  -18.3109  -52.9945 H         1 UNK         0.0600 
    227 H227       -8.4642  -20.7094  -53.3225 H         1 UNK         0.0600 
    228 H228       -8.9919  -19.6150  -54.5828 H         1 UNK         0.0600 
    229 H229       -7.6596  -20.7197  -54.8896 H         1 UNK         0.0600 
    230 H230       -8.3309  -17.9540  -55.6058 H         1 UNK         0.3000 
    231 H231       -6.3115  -16.0780  -56.4536 H         1 UNK         0.0600 
    232 H232       -8.0032  -15.5294  -58.2011 H         1 UNK         0.0600 
    233 H233       -8.7446  -15.5991  -56.6114 H         1 UNK         0.0600 
    234 H234       -8.9579  -16.9348  -57.7444 H         1 UNK         0.0600 
    235 H235       -6.8722  -19.3929  -57.2134 H         1 UNK         0.3000 
    236 H236       -6.2138  -19.5885  -59.9164 H         1 UNK         0.0600 
    237 H237       -5.7780  -21.6048  -57.6473 H         1 UNK         0.0600 
    238 H238       -7.2482  -21.4145  -58.6039 H         1 UNK         0.0600 
    239 H239       -5.7755  -21.9960  -59.3634 H         1 UNK         0.0600 
    240 H240       -4.0284  -19.3025  -57.1546 H         1 UNK         0.3000 
    241 H241       -1.6343  -19.6127  -58.8653 H         1 UNK         0.0600 
    242 H242       -3.6412  -17.0109  -58.4810 H         1 UNK         0.3800 
    243 H243       -2.4071  -15.7788  -58.4363 H         1 UNK         0.3800 
    244 H244       -1.4485  -20.9270  -56.9141 H         1 UNK         0.0800 
    245 H245       -0.3542  -19.6029  -56.7101 H         1 UNK         0.0800 
    246 H246       -0.1382  -18.3971  -54.6817 H         1 UNK         0.0800 
    247 H247       -1.4193  -17.2523  -55.0108 H         1 UNK         0.0800 
@<TRIPOS>BOND
     1    1    2 1    
     2    1  127 1    
     3    1  128 1    
     4    1  129 1    
     5    2    3 2    
     6    2    4 am   BACKBONE|DICT|INTERRES
     7    4    5 1    
     8    4  130 1    
     9    5    6 1    
    10    5   65 1    
    11    5  131 1    
    12    6    7 1    
    13    6  132 1    
    14    6  133 1    
    15    7    8 1    
    16    8    9 1    
    17    8  134 1    
    18    8  135 1    
    19    9   10 ar   
    20    9   14 ar   
    21   10   11 ar   
    22   10  136 1    
    23   11   12 ar   
    24   11  126 1    
    25   12   13 ar   
    26   12  137 1    
    27   13   14 ar   
    28   13   15 1    
    29   14  138 1    
    30   15   16 1    
    31   15  139 1    
    32   15  140 1    
    33   16   17 1    
    34   17   18 1    
    35   17  141 1    
    36   17  142 1    
    37   18   19 1    
    38   18   67 1    
    39   18  143 1    
    40   19   20 am   BACKBONE|DICT|INTERRES
    41   19  144 1    
    42   20   21 2    
    43   20   22 1    
    44   22   23 1    
    45   22   24 1    
    46   22  145 1    
    47   23  146 1    
    48   23  147 1    
    49   23  148 1    
    50   24   25 am   BACKBONE|DICT|INTERRES
    51   24  149 1    
    52   25   26 2    
    53   25   27 1    
    54   27   28 1    
    55   27   29 1    
    56   27  150 1    
    57   28  151 1    
    58   28  152 1    
    59   28  153 1    
    60   29   30 am   BACKBONE|DICT|INTERRES
    61   29  154 1    
    62   30   31 2    
    63   30   32 1    
    64   32   33 1    
    65   32   34 1    
    66   32  155 1    
    67   33  156 1    
    68   33  157 1    
    69   33  158 1    
    70   34   35 am   BACKBONE|DICT|INTERRES
    71   34  159 1    
    72   35   36 2    
    73   35   37 1    
    74   37   38 1    
    75   37   39 1    
    76   37  160 1    
    77   38  161 1    
    78   38  162 1    
    79   38  163 1    
    80   39   40 am   BACKBONE|DICT|INTERRES
    81   39  164 1    
    82   40   41 2    
    83   40   42 1    
    84   42   43 1    
    85   42   44 1    
    86   42  165 1    
    87   43  166 1    
    88   43  167 1    
    89   43  168 1    
    90   44   45 am   BACKBONE|DICT|INTERRES
    91   44  169 1    
    92   45   46 2    
    93   45   47 1    
    94   47   48 1    
    95   47   49 1    
    96   47  170 1    
    97   48  171 1    
    98   48  172 1    
    99   48  173 1    
   100   49   50 am   BACKBONE|DICT|INTERRES
   101   49  174 1    
   102   50   51 2    
   103   50   52 1    
   104   52   53 1    
   105   52   54 1    
   106   52  175 1    
   107   53  176 1    
   108   53  177 1    
   109   53  178 1    
   110   54   55 am   BACKBONE|DICT|INTERRES
   111   54  179 1    
   112   55   56 2    
   113   55   57 1    
   114   57   58 1    
   115   57   59 1    
   116   57  180 1    
   117   58  181 1    
   118   58  182 1    
   119   58  183 1    
   120   59   60 am   BACKBONE|DICT|INTERRES
   121   59  184 1    
   122   60   61 2    
   123   60   62 1    
   124   62   63 1    
   125   62   64 1    
   126   62  185 1    
   127   63  186 1    
   128   63  187 1    
   129   63  188 1    
   130   64   65 am   BACKBONE|DICT|INTERRES
   131   64  189 1    
   132   65   66 2    
   133   67   68 2    
   134   67   69 am   BACKBONE|DICT|INTERRES
   135   69   70 1    
   136   69  190 1    
   137   70   71 1    
   138   70   72 1    
   139   70  191 1    
   140   71  192 1    
   141   71  193 1    
   142   71  194 1    
   143   72   73 2    
   144   72   74 am   BACKBONE|DICT|INTERRES
   145   74   75 1    
   146   74  195 1    
   147   75   76 1    
   148   75   77 1    
   149   75  196 1    
   150   76  197 1    
   151   76  198 1    
   152   76  199 1    
   153   77   78 2    
   154   77   79 am   BACKBONE|DICT|INTERRES
   155   79   80 1    
   156   79  200 1    
   157   80   81 1    
   158   80   82 1    
   159   80  201 1    
   160   81  202 1    
   161   81  203 1    
   162   81  204 1    
   163   82   83 2    
   164   82   84 am   BACKBONE|DICT|INTERRES
   165   84   85 1    
   166   84  205 1    
   167   85   86 1    
   168   85   87 1    
   169   85  206 1    
   170   86  207 1    
   171   86  208 1    
   172   86  209 1    
   173   87   88 2    
   174   87   89 am   BACKBONE|DICT|INTERRES
   175   89   90 1    
   176   89  210 1    
   177   90   91 1    
   178   90   92 1    
   179   90  211 1    
   180   91  212 1    
   181   91  213 1    
   182   91  214 1    
   183   92   93 2    
   184   92   94 am   BACKBONE|DICT|INTERRES
   185   94   95 1    
   186   94  215 1    
   187   95   96 1    
   188   95   97 1    
   189   95  216 1    
   190   96  217 1    
   191   96  218 1    
   192   96  219 1    
   193   97   98 2    
   194   97   99 am   BACKBONE|DICT|INTERRES
   195   99  100 1    
   196   99  220 1    
   197  100  101 1    
   198  100  102 1    
   199  100  221 1    
   200  101  222 1    
   201  101  223 1    
   202  101  224 1    
   203  102  103 2    
   204  102  104 am   BACKBONE|DICT|INTERRES
   205  104  105 1    
   206  104  225 1    
   207  105  106 1    
   208  105  107 1    
   209  105  226 1    
   210  106  227 1    
   211  106  228 1    
   212  106  229 1    
   213  107  108 2    
   214  107  109 am   BACKBONE|DICT|INTERRES
   215  109  110 1    
   216  109  230 1    
   217  110  111 1    
   218  110  112 1    
   219  110  231 1    
   220  111  232 1    
   221  111  233 1    
   222  111  234 1    
   223  112  113 2    
   224  112  114 am   BACKBONE|DICT|INTERRES
   225  114  115 1    
   226  114  235 1    
   227  115  116 1    
   228  115  117 1    
   229  115  236 1    
   230  116  237 1    
   231  116  238 1    
   232  116  239 1    
   233  117  118 2    
   234  117  119 am   BACKBONE|DICT|INTERRES
   235  119  120 1    
   236  119  240 1    
   237  120  121 1    
   238  120  124 1    
   239  120  241 1    
   240  121  122 am   BACKBONE|DICT|INTERRES
   241  121  123 2    
   242  122  242 1    
   243  122  243 1    
   244  124  125 1    
   245  124  244 1    
   246  124  245 1    
   247  125  126 1    
   248  126  246 1    
   249  126  247 1    
@<TRIPOS>SUBSTRUCTURE
     1 UNK         1 GROUP             0       ****    0 ROOT    
