@<TRIPOS>MOLECULE
3R540
247   249    1
SMALL
USER_CHARGES


@<TRIPOS>ATOM
      1 CA         -3.0731  -12.6816  -43.5093 C.3       0 UNK        -0.1800 
      2 C          -1.5605  -12.7946  -43.6218 C.2       0 UNK         0.5000 
      3 O          -0.8393  -11.9548  -43.0824 O.2       0 UNK        -0.5000 
      4 N          -1.0695  -13.8409  -44.3002 N.am      1 UNK        -0.5000 
      5 CA          0.3606  -14.0771  -44.5499 C.3       1 UNK         0.1400 
      6 C6          0.6184  -15.1820  -45.6019 C.3       23 UNK        -0.0398 
      7 S7         -0.2226  -14.8333  -47.1846 S.3       23 UNK        -0.2404 
      8 C8         -1.4334  -16.1906  -47.2807 C.3       23 UNK        -0.0205 
      9 C9         -1.0611  -17.2034  -48.3539 C.ar      23 UNK        -0.0193 
     10 C10        -1.8474  -17.3337  -49.5021 C.ar      23 UNK        -0.1150 
     11 C11        -1.5089  -18.2578  -50.4944 C.ar      23 UNK        -0.0193 
     12 C12        -0.3717  -19.0547  -50.3346 C.ar      23 UNK        -0.1150 
     13 C13         0.4273  -18.9304  -49.1941 C.ar      23 UNK        -0.0193 
     14 C14         0.0694  -18.0102  -48.2033 C.ar      23 UNK        -0.1150 
     15 C15         1.7042  -19.7495  -49.0576 C.3       23 UNK        -0.0205 
     16 S16         1.4026  -21.4659  -48.5287 S.3       23 UNK        -0.2404 
     17 C17         0.7503  -21.2342  -46.8394 C.3       23 UNK        -0.0398 
     18 CA         -0.5594  -22.0121  -46.5735 C.3       11 UNK         0.1400 
     19 N          -0.9084  -21.9972  -45.1516 N.am      11 UNK        -0.5000 
     20 C          -1.7817  -22.8378  -44.5773 C.2       10 UNK         0.5000 
     21 O          -2.3536  -23.7415  -45.1834 O.2       10 UNK        -0.5000 
     22 CA         -2.1117  -22.6009  -43.0910 C.3       10 UNK         0.1400 
     23 CB         -1.1448  -23.3873  -42.1940 C.3       10 UNK        -0.1800 
     24 N          -2.0708  -21.1865  -42.7189 N.am      10 UNK        -0.5000 
     25 C          -2.8651  -20.2356  -43.2318 C.2       9 UNK         0.5000 
     26 O          -3.7846  -20.4719  -44.0148 O.2       9 UNK        -0.5000 
     27 CA         -2.5345  -18.7762  -42.8578 C.3       9 UNK         0.1400 
     28 CB         -3.4405  -18.2884  -41.7185 C.3       9 UNK        -0.1800 
     29 N          -1.1310  -18.5854  -42.4728 N.am      9 UNK        -0.5000 
     30 C          -0.0920  -18.7134  -43.3077 C.2       8 UNK         0.5000 
     31 O          -0.2061  -18.9723  -44.5088 O.2       8 UNK        -0.5000 
     32 CA          1.3035  -18.5940  -42.6849 C.3       8 UNK         0.1400 
     33 CB          1.7139  -19.9147  -42.0111 C.3       8 UNK        -0.1800 
     34 N           2.2584  -18.2586  -43.7318 N.am      8 UNK        -0.5000 
     35 C           3.3878  -17.5650  -43.5587 C.2       7 UNK         0.5000 
     36 O           3.7675  -17.1456  -42.4642 O.2       7 UNK        -0.5000 
     37 CA          4.2294  -17.2568  -44.8077 C.3       7 UNK         0.1400 
     38 CB          3.6337  -17.8014  -46.1279 C.3       7 UNK        -0.1800 
     39 N           4.4053  -15.8099  -44.8652 N.am      7 UNK        -0.5000 
     40 C           5.2799  -15.1487  -45.6327 C.2       6 UNK         0.5000 
     41 O           6.0635  -15.6927  -46.4113 O.2       6 UNK        -0.5000 
     42 CA          5.2844  -13.6165  -45.5041 C.3       6 UNK         0.1400 
     43 CB          4.2787  -12.9920  -46.4845 C.3       6 UNK        -0.1800 
     44 N           4.9440  -13.1889  -44.1505 N.am      6 UNK        -0.5000 
     45 C           5.8105  -13.0409  -43.1416 C.2       5 UNK         0.5000 
     46 O           7.0230  -13.2336  -43.2488 O.2       5 UNK        -0.5000 
     47 CA          5.2041  -12.6016  -41.7905 C.3       5 UNK         0.1400 
     48 CB          6.2250  -11.9128  -40.8617 C.3       5 UNK        -0.1800 
     49 N           3.9971  -11.7811  -41.9492 N.am      5 UNK        -0.5000 
     50 C           3.8876  -10.5795  -42.5390 C.2       4 UNK         0.5000 
     51 O           4.8414   -9.9393  -42.9824 O.2       4 UNK        -0.5000 
     52 CA          2.4635  -10.0050  -42.6917 C.3       4 UNK         0.1400 
     53 CB          1.9897  -10.1515  -44.1462 C.3       4 UNK        -0.1800 
     54 N           1.4830  -10.6461  -41.8135 N.am      4 UNK        -0.5000 
     55 C           1.4198  -10.4750  -40.4860 C.2       3 UNK         0.5000 
     56 O           2.1317   -9.6896  -39.8595 O.2       3 UNK        -0.5000 
     57 CA          0.4209  -11.3678  -39.7311 C.3       3 UNK         0.1400 
     58 CB         -0.9809  -10.7389  -39.7260 C.3       3 UNK        -0.1800 
     59 N           0.3486  -12.7160  -40.2984 N.am      3 UNK        -0.5000 
     60 C           1.3053  -13.6479  -40.1787 C.2       2 UNK         0.5000 
     61 O           2.3656  -13.4699  -39.5805 O.2       2 UNK        -0.5000 
     62 CA          1.0335  -14.9999  -40.8618 C.3       2 UNK         0.1400 
     63 CB          0.0620  -15.8303  -40.0056 C.3       2 UNK        -0.1800 
     64 N           0.4808  -14.8355  -42.2072 N.am      2 UNK        -0.5000 
     65 C           1.1611  -14.3587  -43.2612 C.2       1 UNK         0.5000 
     66 O           2.3683  -14.1171  -43.2474 O.2       1 UNK        -0.5000 
     67 C          -1.7399  -21.5295  -47.4449 C.2       11 UNK         0.5000 
     68 O          -1.9817  -22.1122  -48.5012 O.2       11 UNK        -0.5000 
     69 N          -2.4988  -20.5330  -46.9619 N.am      12 UNK        -0.5000 
     70 CA         -3.7245  -20.0610  -47.6121 C.3       12 UNK         0.1400 
     71 CB         -4.2148  -18.7649  -46.9492 C.3       12 UNK        -0.1800 
     72 C          -4.8387  -21.1226  -47.5944 C.2       12 UNK         0.5000 
     73 O          -5.5467  -21.2807  -48.5887 O.2       12 UNK        -0.5000 
     74 N          -4.9594  -21.8388  -46.4676 N.am      13 UNK        -0.5000 
     75 CA         -5.9020  -22.9409  -46.2830 C.3       13 UNK         0.1400 
     76 CB         -5.9624  -23.3172  -44.7946 C.3       13 UNK        -0.1800 
     77 C          -5.5577  -24.1674  -47.1494 C.2       13 UNK         0.5000 
     78 O          -6.4562  -24.7503  -47.7575 O.2       13 UNK        -0.5000 
     79 N          -4.2693  -24.5342  -47.1926 N.am      14 UNK        -0.5000 
     80 CA         -3.7553  -25.6616  -47.9719 C.3       14 UNK         0.1400 
     81 CB         -2.3484  -26.0233  -47.4712 C.3       14 UNK        -0.1800 
     82 C          -3.7258  -25.3981  -49.4888 C.2       14 UNK         0.5000 
     83 O          -3.9261  -26.3414  -50.2544 O.2       14 UNK        -0.5000 
     84 N          -3.4721  -24.1363  -49.8704 N.am      15 UNK        -0.5000 
     85 CA         -3.1954  -23.6098  -51.2094 C.3       15 UNK         0.1400 
     86 CB         -4.3221  -23.9200  -52.2145 C.3       15 UNK        -0.1800 
     87 C          -1.8223  -24.0710  -51.7295 C.2       15 UNK         0.5000 
     88 O          -1.5884  -25.2702  -51.8862 O.2       15 UNK        -0.5000 
     89 N          -0.9403  -23.1099  -52.0310 N.am      16 UNK        -0.5000 
     90 CA          0.3963  -23.3511  -52.5839 C.3       16 UNK         0.1400 
     91 CB          1.1834  -22.0326  -52.6110 C.3       16 UNK        -0.1800 
     92 C           0.3600  -23.9939  -53.9842 C.2       16 UNK         0.5000 
     93 O           1.1743  -24.8701  -54.2762 O.2       16 UNK        -0.5000 
     94 N          -0.6110  -23.5741  -54.8046 N.am      17 UNK        -0.5000 
     95 CA         -0.8976  -24.1315  -56.1274 C.3       17 UNK         0.1400 
     96 CB         -1.4858  -23.0188  -57.0112 C.3       17 UNK        -0.1800 
     97 C          -1.8587  -25.3376  -56.0778 C.2       17 UNK         0.5000 
     98 O          -2.2142  -25.8555  -57.1367 O.2       17 UNK        -0.5000 
     99 N          -2.3102  -25.7323  -54.8763 N.am      18 UNK        -0.5000 
    100 CA        -3.2876  -26.7817  -54.5416 C.3       18 UNK         0.1400 
    101 CB        -2.8181  -28.1641  -55.0327 C.3       18 UNK        -0.1800 
    102 C         -4.7372  -26.4932  -54.9915 C.2       18 UNK         0.5000 
    103 O         -5.6736  -26.8969  -54.3009 O.2       18 UNK        -0.5000 
    104 N         -4.9048  -25.8013  -56.1232 N.am      19 UNK        -0.5000 
    105 CA        -6.1752  -25.3253  -56.6631 C.3       19 UNK         0.1400 
    106 CB        -5.9343  -24.8489  -58.1049 C.3       19 UNK        -0.1800 
    107 C         -6.7804  -24.1844  -55.8233 C.2       19 UNK         0.5000 
    108 O         -6.0627  -23.4958  -55.0932 O.2       19 UNK        -0.5000 
    109 N         -8.0881  -23.9539  -56.0067 N.am      20 UNK        -0.5000 
    110 CA        -8.8791  -22.9052  -55.3468 C.3       20 UNK         0.1400 
    111 CB       -10.3550  -23.0811  -55.7365 C.3       20 UNK        -0.1800 
    112 C         -8.4130  -21.4612  -55.6372 C.2       20 UNK         0.5000 
    113 O         -8.7684  -20.5480  -54.8916 O.2       20 UNK        -0.5000 
    114 N         -7.6029  -21.2843  -56.6902 N.am      21 UNK        -0.5000 
    115 CA        -6.8995  -20.0465  -57.0313 C.3       21 UNK         0.1400 
    116 CB        -6.3400  -20.1840  -58.4563 C.3       21 UNK        -0.1800 
    117 C         -5.7691  -19.6769  -56.0439 C.2       21 UNK         0.5000 
    118 O         -5.2505  -18.5623  -56.1216 O.2       21 UNK        -0.5000 
    119 N         -5.3887  -20.6056  -55.1543 N.am      22 UNK        -0.5000 
    120 CA        -4.3516  -20.4888  -54.1169 C.3       22 UNK         0.1400 
    121 C         -2.8985  -20.5066  -54.6631 C.2       22 UNK         0.5000 
    122 N         -2.5930  -19.7844  -55.7314 N.am      22 UNK        -0.7600 
    123 O         -2.0472  -21.2049  -54.1215 O.2       22 UNK        -0.5000 
    124 C124       -4.5948  -19.3076  -53.1405 C.3       23 UNK        -0.0398 
    125 S125       -3.7478  -19.5100  -51.5359 S.3       23 UNK        -0.2404 
    126 C126       -2.3525  -18.3639  -51.7539 C.3       23 UNK        -0.0205 
    127 H127       -3.3718  -12.6849  -42.4611 H         1 UNK         0.0600 
    128 H128       -3.5800  -13.5059  -44.0116 H         1 UNK         0.0600 
    129 H129       -3.4119  -11.7482  -43.9584 H         1 UNK         0.0600 
    130 H130       -1.7067  -14.4877  -44.7415 H         1 UNK         0.3000 
    131 H131        0.7615  -13.1482  -44.9596 H         1 UNK         0.0600 
    132 H132        0.3293  -16.1616  -45.2194 H         1 UNK         0.0800 
    133 H133        1.6852  -15.2473  -45.8185 H         1 UNK         0.0800 
    134 H134       -1.5330  -16.6998  -46.3217 H         1 UNK         0.0800 
    135 H135       -2.4117  -15.7568  -47.4927 H         1 UNK         0.0800 
    136 H136       -2.7234  -16.7133  -49.6286 H         1 UNK         0.1150 
    137 H137       -0.1000  -19.7607  -51.1057 H         1 UNK         0.1150 
    138 H138        0.6780  -17.9035  -47.3184 H         1 UNK         0.1150 
    139 H139        2.2211  -19.7674  -50.0180 H         1 UNK         0.0800 
    140 H140        2.3921  -19.2736  -48.3583 H         1 UNK         0.0800 
    141 H141        0.6143  -20.1759  -46.6284 H         1 UNK         0.0800 
    142 H142        1.5236  -21.5745  -46.1495 H         1 UNK         0.0800 
    143 H143       -0.3741  -23.0541  -46.8442 H         1 UNK         0.0600 
    144 H144       -0.5225  -21.2414  -44.6029 H         1 UNK         0.3000 
    145 H145       -3.1244  -22.9677  -42.9117 H         1 UNK         0.0600 
    146 H146       -1.4140  -23.2891  -41.1422 H         1 UNK         0.0600 
    147 H147       -1.1665  -24.4509  -42.4356 H         1 UNK         0.0600 
    148 H148       -0.1158  -23.0447  -42.3114 H         1 UNK         0.0600 
    149 H149       -1.3530  -20.9104  -42.0665 H         1 UNK         0.3000 
    150 H150       -2.7320  -18.1618  -43.7391 H         1 UNK         0.0600 
    151 H151       -3.2777  -18.8569  -40.8020 H         1 UNK         0.0600 
    152 H152       -4.4931  -18.3910  -41.9860 H         1 UNK         0.0600 
    153 H153       -3.2641  -17.2355  -41.4973 H         1 UNK         0.0600 
    154 H154       -0.9606  -18.3978  -41.4957 H         1 UNK         0.3000 
    155 H155        1.2857  -17.7950  -41.9443 H         1 UNK         0.0600 
    156 H156        1.7371  -20.7399  -42.7243 H         1 UNK         0.0600 
    157 H157        1.0203  -20.1854  -41.2144 H         1 UNK         0.0600 
    158 H158        2.7039  -19.8359  -41.5615 H         1 UNK         0.0600 
    159 H159        1.9695  -18.5337  -44.6613 H         1 UNK         0.3000 
    160 H160        5.2061  -17.7183  -44.6504 H         1 UNK         0.0600 
    161 H161        2.6836  -17.3281  -46.3693 H         1 UNK         0.0600 
    162 H162        3.4744  -18.8793  -46.0776 H         1 UNK         0.0600 
    163 H163        4.3051  -17.6287  -46.9686 H         1 UNK         0.0600 
    164 H164        3.8497  -15.2838  -44.1985 H         1 UNK         0.3000 
    165 H165        6.2829  -13.2561  -45.7605 H         1 UNK         0.0600 
    166 H166        4.3099  -11.9032  -46.4382 H         1 UNK         0.0600 
    167 H167        4.5039  -13.2807  -47.5119 H         1 UNK         0.0600 
    168 H168        3.2563  -13.3057  -46.2712 H         1 UNK         0.0600 
    169 H169        3.9584  -13.0916  -43.9351 H         1 UNK         0.3000 
    170 H170        4.8783  -13.5188  -41.2975 H         1 UNK         0.0600 
    171 H171        7.0489  -12.5851  -40.6200 H         1 UNK         0.0600 
    172 H172        6.6551  -11.0218  -41.3197 H         1 UNK         0.0600 
    173 H173        5.7623  -11.6169  -39.9201 H         1 UNK         0.0600 
    174 H174        3.1430  -12.2173  -41.6308 H         1 UNK         0.3000 
    175 H175        2.5046   -8.9417  -42.4471 H         1 UNK         0.0600 
    176 H176        2.6528   -9.6188  -44.8290 H         1 UNK         0.0600 
    177 H177        1.9716  -11.1957  -44.4574 H         1 UNK         0.0600 
    178 H178        0.9877   -9.7433  -44.2802 H         1 UNK         0.0600 
    179 H179        0.7999  -11.2557  -42.2545 H         1 UNK         0.3000 
    180 H180        0.7607  -11.4485  -38.6962 H         1 UNK         0.0600 
    181 H181       -1.3835  -10.6373  -40.7345 H         1 UNK         0.0600 
    182 H182       -0.9593   -9.7436  -39.2804 H         1 UNK         0.0600 
    183 H183       -1.6804  -11.3396  -39.1445 H         1 UNK         0.0600 
    184 H184       -0.4663  -12.9224  -40.8572 H         1 UNK         0.3000 
    185 H185        1.9806  -15.5386  -40.9378 H         1 UNK         0.0600 
    186 H186        0.4609  -15.9793  -39.0013 H         1 UNK         0.0600 
    187 H187       -0.9070  -15.3403  -39.9018 H         1 UNK         0.0600 
    188 H188       -0.1121  -16.8164  -40.4293 H         1 UNK         0.0600 
    189 H189       -0.5100  -14.9936  -42.3156 H         1 UNK         0.3000 
    190 H190       -2.2599  -20.1183  -46.0733 H         1 UNK         0.3000 
    191 H191       -3.4811  -19.8392  -48.6518 H         1 UNK         0.0600 
    192 H192       -3.4271  -18.0187  -46.9048 H         1 UNK         0.0600 
    193 H193       -5.0395  -18.3322  -47.5167 H         1 UNK         0.0600 
    194 H194       -4.5726  -18.9309  -45.9338 H         1 UNK         0.0600 
    195 H195       -4.3748  -21.5944  -45.6761 H         1 UNK         0.3000 
    196 H196       -6.8917  -22.5888  -46.5817 H         1 UNK         0.0600 
    197 H197       -6.6999  -24.1018  -44.6213 H         1 UNK         0.0600 
    198 H198       -6.2467  -22.4611  -44.1823 H         1 UNK         0.0600 
    199 H199       -5.0028  -23.6841  -44.4306 H         1 UNK         0.0600 
    200 H200       -3.5981  -24.0473  -46.6050 H         1 UNK         0.3000 
    201 H201       -4.4061  -26.5210  -47.7971 H         1 UNK         0.0600 
    202 H202       -1.9436  -26.8740  -48.0211 H         1 UNK         0.0600 
    203 H203       -2.3629  -26.2955  -46.4157 H         1 UNK         0.0600 
    204 H204       -1.6533  -25.1917  -47.5939 H         1 UNK         0.0600 
    205 H205       -3.2601  -23.4716  -49.1325 H         1 UNK         0.3000 
    206 H206       -3.1574  -22.5254  -51.0951 H         1 UNK         0.0600 
    207 H207       -5.2457  -23.4104  -51.9404 H         1 UNK         0.0600 
    208 H208       -4.0484  -23.5914  -53.2169 H         1 UNK         0.0600 
    209 H209       -4.5391  -24.9837  -52.2894 H         1 UNK         0.0600 
    210 H210       -1.2178  -22.1426  -51.9392 H         1 UNK         0.3000 
    211 H211        0.9147  -24.0425  -51.9163 H         1 UNK         0.0600 
    212 H212        0.6773  -21.2724  -53.2076 H         1 UNK         0.0600 
    213 H213        2.1768  -22.1783  -53.0370 H         1 UNK         0.0600 
    214 H214        1.3196  -21.6378  -51.6051 H         1 UNK         0.0600 
    215 H215       -1.2036  -22.8050  -54.4956 H         1 UNK         0.3000 
    216 H216        0.0331  -24.4721  -56.5855 H         1 UNK         0.0600 
    217 H217       -1.6031  -23.3563  -58.0416 H         1 UNK         0.0600 
    218 H218       -0.8371  -22.1430  -57.0302 H         1 UNK         0.0600 
    219 H219       -2.4683  -22.7031  -56.6583 H         1 UNK         0.0600 
    220 H220       -1.9407  -25.2458  -54.0694 H         1 UNK         0.3000 
    221 H221       -3.3091  -26.8184  -53.4513 H         1 UNK         0.0600 
    222 H222       -2.8039  -28.2297  -56.1207 H         1 UNK         0.0600 
    223 H223       -1.8165  -28.3923  -54.6681 H         1 UNK         0.0600 
    224 H224       -3.4824  -28.9494  -54.6701 H         1 UNK         0.0600 
    225 H225       -4.0678  -25.5575  -56.6408 H         1 UNK         0.3000 
    226 H226       -6.8784  -26.1604  -56.6756 H         1 UNK         0.0600 
    227 H227       -5.5243  -25.6500  -58.7206 H         1 UNK         0.0600 
    228 H228       -6.8625  -24.5240  -58.5765 H         1 UNK         0.0600 
    229 H229       -5.2361  -24.0112  -58.1397 H         1 UNK         0.0600 
    230 H230       -8.5974  -24.5512  -56.6424 H         1 UNK         0.3000 
    231 H231       -8.7893  -23.0573  -54.2693 H         1 UNK         0.0600 
    232 H232      -10.5029  -22.9669  -56.8111 H         1 UNK         0.0600 
    233 H233      -10.9833  -22.3413  -55.2383 H         1 UNK         0.0600 
    234 H234      -10.7257  -24.0649  -55.4478 H         1 UNK         0.0600 
    235 H235       -7.3775  -22.0946  -57.2471 H         1 UNK         0.3000 
    236 H236       -7.6218  -19.2278  -57.0208 H         1 UNK         0.0600 
    237 H237       -7.1349  -20.3826  -59.1755 H         1 UNK         0.0600 
    238 H238       -5.8411  -19.2669  -58.7724 H         1 UNK         0.0600 
    239 H239       -5.6125  -20.9939  -58.5259 H         1 UNK         0.0600 
    240 H240       -5.8217  -21.5225  -55.2079 H         1 UNK         0.3000 
    241 H241       -4.4674  -21.4013  -53.5356 H         1 UNK         0.0600 
    242 H242       -1.6541  -19.7921  -56.0945 H         1 UNK         0.3800 
    243 H243       -3.3038  -19.1994  -56.1539 H         1 UNK         0.3800 
    244 H244       -4.3193  -18.3557  -53.5971 H         1 UNK         0.0800 
    245 H245       -5.6607  -19.2313  -52.9218 H         1 UNK         0.0800 
    246 H246       -1.7346  -18.6956  -52.5895 H         1 UNK         0.0800 
    247 H247       -2.7307  -17.3767  -52.0238 H         1 UNK         0.0800 
@<TRIPOS>BOND
     1    1    2 1    
     2    1  127 1    
     3    1  128 1    
     4    1  129 1    
     5    2    3 2    
     6    2    4 am   BACKBONE|DICT|INTERRES
     7    4    5 1    
     8    4  130 1    
     9    5    6 1    
    10    5   65 1    
    11    5  131 1    
    12    6    7 1    
    13    6  132 1    
    14    6  133 1    
    15    7    8 1    
    16    8    9 1    
    17    8  134 1    
    18    8  135 1    
    19    9   10 ar   
    20    9   14 ar   
    21   10   11 ar   
    22   10  136 1    
    23   11   12 ar   
    24   11  126 1    
    25   12   13 ar   
    26   12  137 1    
    27   13   14 ar   
    28   13   15 1    
    29   14  138 1    
    30   15   16 1    
    31   15  139 1    
    32   15  140 1    
    33   16   17 1    
    34   17   18 1    
    35   17  141 1    
    36   17  142 1    
    37   18   19 1    
    38   18   67 1    
    39   18  143 1    
    40   19   20 am   BACKBONE|DICT|INTERRES
    41   19  144 1    
    42   20   21 2    
    43   20   22 1    
    44   22   23 1    
    45   22   24 1    
    46   22  145 1    
    47   23  146 1    
    48   23  147 1    
    49   23  148 1    
    50   24   25 am   BACKBONE|DICT|INTERRES
    51   24  149 1    
    52   25   26 2    
    53   25   27 1    
    54   27   28 1    
    55   27   29 1    
    56   27  150 1    
    57   28  151 1    
    58   28  152 1    
    59   28  153 1    
    60   29   30 am   BACKBONE|DICT|INTERRES
    61   29  154 1    
    62   30   31 2    
    63   30   32 1    
    64   32   33 1    
    65   32   34 1    
    66   32  155 1    
    67   33  156 1    
    68   33  157 1    
    69   33  158 1    
    70   34   35 am   BACKBONE|DICT|INTERRES
    71   34  159 1    
    72   35   36 2    
    73   35   37 1    
    74   37   38 1    
    75   37   39 1    
    76   37  160 1    
    77   38  161 1    
    78   38  162 1    
    79   38  163 1    
    80   39   40 am   BACKBONE|DICT|INTERRES
    81   39  164 1    
    82   40   41 2    
    83   40   42 1    
    84   42   43 1    
    85   42   44 1    
    86   42  165 1    
    87   43  166 1    
    88   43  167 1    
    89   43  168 1    
    90   44   45 am   BACKBONE|DICT|INTERRES
    91   44  169 1    
    92   45   46 2    
    93   45   47 1    
    94   47   48 1    
    95   47   49 1    
    96   47  170 1    
    97   48  171 1    
    98   48  172 1    
    99   48  173 1    
   100   49   50 am   BACKBONE|DICT|INTERRES
   101   49  174 1    
   102   50   51 2    
   103   50   52 1    
   104   52   53 1    
   105   52   54 1    
   106   52  175 1    
   107   53  176 1    
   108   53  177 1    
   109   53  178 1    
   110   54   55 am   BACKBONE|DICT|INTERRES
   111   54  179 1    
   112   55   56 2    
   113   55   57 1    
   114   57   58 1    
   115   57   59 1    
   116   57  180 1    
   117   58  181 1    
   118   58  182 1    
   119   58  183 1    
   120   59   60 am   BACKBONE|DICT|INTERRES
   121   59  184 1    
   122   60   61 2    
   123   60   62 1    
   124   62   63 1    
   125   62   64 1    
   126   62  185 1    
   127   63  186 1    
   128   63  187 1    
   129   63  188 1    
   130   64   65 am   BACKBONE|DICT|INTERRES
   131   64  189 1    
   132   65   66 2    
   133   67   68 2    
   134   67   69 am   BACKBONE|DICT|INTERRES
   135   69   70 1    
   136   69  190 1    
   137   70   71 1    
   138   70   72 1    
   139   70  191 1    
   140   71  192 1    
   141   71  193 1    
   142   71  194 1    
   143   72   73 2    
   144   72   74 am   BACKBONE|DICT|INTERRES
   145   74   75 1    
   146   74  195 1    
   147   75   76 1    
   148   75   77 1    
   149   75  196 1    
   150   76  197 1    
   151   76  198 1    
   152   76  199 1    
   153   77   78 2    
   154   77   79 am   BACKBONE|DICT|INTERRES
   155   79   80 1    
   156   79  200 1    
   157   80   81 1    
   158   80   82 1    
   159   80  201 1    
   160   81  202 1    
   161   81  203 1    
   162   81  204 1    
   163   82   83 2    
   164   82   84 am   BACKBONE|DICT|INTERRES
   165   84   85 1    
   166   84  205 1    
   167   85   86 1    
   168   85   87 1    
   169   85  206 1    
   170   86  207 1    
   171   86  208 1    
   172   86  209 1    
   173   87   88 2    
   174   87   89 am   BACKBONE|DICT|INTERRES
   175   89   90 1    
   176   89  210 1    
   177   90   91 1    
   178   90   92 1    
   179   90  211 1    
   180   91  212 1    
   181   91  213 1    
   182   91  214 1    
   183   92   93 2    
   184   92   94 am   BACKBONE|DICT|INTERRES
   185   94   95 1    
   186   94  215 1    
   187   95   96 1    
   188   95   97 1    
   189   95  216 1    
   190   96  217 1    
   191   96  218 1    
   192   96  219 1    
   193   97   98 2    
   194   97   99 am   BACKBONE|DICT|INTERRES
   195   99  100 1    
   196   99  220 1    
   197  100  101 1    
   198  100  102 1    
   199  100  221 1    
   200  101  222 1    
   201  101  223 1    
   202  101  224 1    
   203  102  103 2    
   204  102  104 am   BACKBONE|DICT|INTERRES
   205  104  105 1    
   206  104  225 1    
   207  105  106 1    
   208  105  107 1    
   209  105  226 1    
   210  106  227 1    
   211  106  228 1    
   212  106  229 1    
   213  107  108 2    
   214  107  109 am   BACKBONE|DICT|INTERRES
   215  109  110 1    
   216  109  230 1    
   217  110  111 1    
   218  110  112 1    
   219  110  231 1    
   220  111  232 1    
   221  111  233 1    
   222  111  234 1    
   223  112  113 2    
   224  112  114 am   BACKBONE|DICT|INTERRES
   225  114  115 1    
   226  114  235 1    
   227  115  116 1    
   228  115  117 1    
   229  115  236 1    
   230  116  237 1    
   231  116  238 1    
   232  116  239 1    
   233  117  118 2    
   234  117  119 am   BACKBONE|DICT|INTERRES
   235  119  120 1    
   236  119  240 1    
   237  120  121 1    
   238  120  124 1    
   239  120  241 1    
   240  121  122 am   BACKBONE|DICT|INTERRES
   241  121  123 2    
   242  122  242 1    
   243  122  243 1    
   244  124  125 1    
   245  124  244 1    
   246  124  245 1    
   247  125  126 1    
   248  126  246 1    
   249  126  247 1    
@<TRIPOS>SUBSTRUCTURE
     1 UNK         1 GROUP             0       ****    0 ROOT    
