@<TRIPOS>MOLECULE
3R540
247   249    1
SMALL
USER_CHARGES


@<TRIPOS>ATOM
      1 CA         -0.7353  -10.0920  -46.0789 C.3       0 UNK        -0.1800 
      2 C           0.0255  -11.0587  -46.9749 C.2       0 UNK         0.5000 
      3 O           0.9119  -10.6381  -47.7181 O.2       0 UNK        -0.5000 
      4 N          -0.3137  -12.3524  -46.9034 N.am      1 UNK        -0.5000 
      5 CA          0.3074  -13.4331  -47.6828 C.3       1 UNK         0.1400 
      6 C6         -0.6022  -14.6891  -47.7459 C.3       23 UNK        -0.0398 
      7 S7         -2.0151  -14.4780  -48.8830 S.3       23 UNK        -0.2404 
      8 C8         -1.2302  -14.5662  -50.5307 C.3       23 UNK        -0.0205 
      9 C9         -0.7530  -15.9664  -50.8892 C.ar      23 UNK        -0.0193 
     10 C10        -1.5391  -16.7949  -51.6937 C.ar      23 UNK        -0.1150 
     11 C11        -1.0929  -18.0709  -52.0498 C.ar      23 UNK        -0.0193 
     12 C12         0.1434  -18.5246  -51.5763 C.ar      23 UNK        -0.1150 
     13 C13         0.9441  -17.7016  -50.7770 C.ar      23 UNK        -0.0193 
     14 C14         0.4972  -16.4179  -50.4592 C.ar      23 UNK        -0.1150 
     15 C15         2.3188  -18.1577  -50.3025 C.3       23 UNK        -0.0205 
     16 S16         2.2912  -19.7107  -49.3509 S.3       23 UNK        -0.2404 
     17 C17         1.4010  -19.2525  -47.8216 C.3       23 UNK        -0.0398 
     18 CA          0.4083  -20.3679  -47.4027 C.3       11 UNK         0.1400 
     19 N           0.2554  -20.4832  -45.9482 N.am      11 UNK        -0.5000 
     20 C          -0.2409  -21.5717  -45.3396 C.2       10 UNK         0.5000 
     21 O          -0.5997  -22.5860  -45.9373 O.2       10 UNK        -0.5000 
     22 CA         -0.3885  -21.5202  -43.8087 C.3       10 UNK         0.1400 
     23 CB          0.9517  -21.8221  -43.1220 C.3       10 UNK        -0.1800 
     24 N          -0.9268  -20.2490  -43.3239 N.am      10 UNK        -0.5000 
     25 C          -2.1498  -19.7862  -43.6217 C.2       9 UNK         0.5000 
     26 O          -2.9546  -20.3906  -44.3265 O.2       9 UNK        -0.5000 
     27 CA         -2.5310  -18.4004  -43.0760 C.3       9 UNK         0.1400 
     28 CB         -2.9745  -18.4963  -41.6088 C.3       9 UNK        -0.1800 
     29 N          -1.4484  -17.4278  -43.2004 N.am      9 UNK        -0.5000 
     30 C          -0.9089  -17.0264  -44.3604 C.2       8 UNK         0.5000 
     31 O          -1.2841  -17.4077  -45.4696 O.2       8 UNK        -0.5000 
     32 CA          0.3026  -16.0876  -44.2517 C.3       8 UNK         0.1400 
     33 CB         -0.1270  -14.6731  -43.8285 C.3       8 UNK        -0.1800 
     34 N           1.2958  -16.5983  -43.3103 N.am      8 UNK        -0.5000 
     35 C           1.9569  -17.7568  -43.4449 C.2       7 UNK         0.5000 
     36 O           1.8265  -18.5161  -44.4056 O.2       7 UNK        -0.5000 
     37 CA          2.8876  -18.1499  -42.2854 C.3       7 UNK         0.1400 
     38 CB          4.2620  -17.4794  -42.4291 C.3       7 UNK        -0.1800 
     39 N           2.3117  -17.8153  -40.9825 N.am      7 UNK        -0.5000 
     40 C           1.2441  -18.4262  -40.4495 C.2       6 UNK         0.5000 
     41 O           0.6481  -19.3582  -40.9880 O.2       6 UNK        -0.5000 
     42 CA          0.7307  -17.8687  -39.1105 C.3       6 UNK         0.1400 
     43 CB          1.5826  -18.3854  -37.9415 C.3       6 UNK        -0.1800 
     44 N           0.7084  -16.4057  -39.0893 N.am      6 UNK        -0.5000 
     45 C          -0.0905  -15.6523  -39.8579 C.2       5 UNK         0.5000 
     46 O          -0.9145  -16.1137  -40.6468 O.2       5 UNK        -0.5000 
     47 CA          0.0906  -14.1268  -39.7581 C.3       5 UNK         0.1400 
     48 CB         -0.7719  -13.5554  -38.6231 C.3       5 UNK        -0.1800 
     49 N           1.4832  -13.7104  -39.5678 N.am      5 UNK        -0.5000 
     50 C           2.4729  -13.9380  -40.4406 C.2       4 UNK         0.5000 
     51 O           2.3394  -14.5933  -41.4770 O.2       4 UNK        -0.5000 
     52 CA          3.8514  -13.3734  -40.0793 C.3       4 UNK         0.1400 
     53 CB          4.7460  -14.4814  -39.5015 C.3       4 UNK        -0.1800 
     54 N           4.4668  -12.8446  -41.2924 N.am      4 UNK        -0.5000 
     55 C           4.7655  -11.5586  -41.5131 C.2       3 UNK         0.5000 
     56 O           4.6360  -10.6707  -40.6692 O.2       3 UNK        -0.5000 
     57 CA          5.3014  -11.1916  -42.9127 C.3       3 UNK         0.1400 
     58 CB          6.8322  -11.0604  -42.8816 C.3       3 UNK        -0.1800 
     59 N           4.9297  -12.1486  -43.9593 N.am      3 UNK        -0.5000 
     60 C           3.6933  -12.2982  -44.4505 C.2       2 UNK         0.5000 
     61 O           2.7209  -11.6324  -44.0820 O.2       2 UNK        -0.5000 
     62 CA          3.5183  -13.3864  -45.5206 C.3       2 UNK         0.1400 
     63 CB          3.7746  -14.7860  -44.9337 C.3       2 UNK        -0.1800 
     64 N           2.1643  -13.2911  -46.0548 N.am      2 UNK        -0.5000 
     65 C           1.7403  -13.7895  -47.2208 C.2       1 UNK         0.5000 
     66 O           2.4416  -14.4952  -47.9462 O.2       1 UNK        -0.5000 
     67 C          -0.9499  -20.2409  -48.1230 C.2       11 UNK         0.5000 
     68 O          -1.1208  -20.8318  -49.1871 O.2       11 UNK        -0.5000 
     69 N          -1.9001  -19.5119  -47.5179 N.am      12 UNK        -0.5000 
     70 CA         -3.2690  -19.3755  -48.0206 C.3       12 UNK         0.1400 
     71 CB         -3.9601  -18.2149  -47.2900 C.3       12 UNK        -0.1800 
     72 C          -4.0994  -20.6719  -47.9016 C.2       12 UNK         0.5000 
     73 O          -5.0345  -20.8613  -48.6806 O.2       12 UNK        -0.5000 
     74 N          -3.7526  -21.5303  -46.9326 N.am      13 UNK        -0.5000 
     75 CA         -4.2966  -22.8729  -46.7368 C.3       13 UNK         0.1400 
     76 CB         -4.2499  -23.2183  -45.2354 C.3       13 UNK        -0.1800 
     77 C          -3.5622  -23.8989  -47.6289 C.2       13 UNK         0.5000 
     78 O          -3.2300  -23.5825  -48.7707 O.2       13 UNK        -0.5000 
     79 N          -3.3569  -25.1267  -47.1251 N.am      14 UNK        -0.5000 
     80 CA         -2.6915  -26.2525  -47.8000 C.3       14 UNK         0.1400 
     81 CB         -1.1855  -25.9622  -47.9745 C.3       14 UNK        -0.1800 
     82 C          -3.3857  -26.6408  -49.1240 C.2       14 UNK         0.5000 
     83 O          -2.7307  -26.7649  -50.1611 O.2       14 UNK        -0.5000 
     84 N          -4.7212  -26.7671  -49.0626 N.am      15 UNK        -0.5000 
     85 CA         -5.6365  -26.9871  -50.1913 C.3       15 UNK         0.1400 
     86 CB         -5.4226  -28.3845  -50.8113 C.3       15 UNK        -0.1800 
     87 C          -5.5605  -25.8477  -51.2303 C.2       15 UNK         0.5000 
     88 O          -5.5375  -26.1065  -52.4344 O.2       15 UNK        -0.5000 
     89 N          -5.4766  -24.6067  -50.7261 N.am      16 UNK        -0.5000 
     90 CA         -5.2345  -23.3616  -51.4615 C.3       16 UNK         0.1400 
     91 CB         -6.4542  -22.9984  -52.3335 C.3       16 UNK        -0.1800 
     92 C          -3.9159  -23.4266  -52.2562 C.2       16 UNK         0.5000 
     93 O          -3.9252  -23.2366  -53.4722 O.2       16 UNK        -0.5000 
     94 N          -2.8273  -23.7546  -51.5455 N.am      17 UNK        -0.5000 
     95 CA         -1.4672  -24.0048  -52.0332 C.3       17 UNK         0.1400 
     96 CB         -0.7679  -22.6813  -52.3968 C.3       17 UNK        -0.1800 
     97 C          -1.4260  -25.0445  -53.1722 C.2       17 UNK         0.5000 
     98 O          -0.8252  -24.7966  -54.2192 O.2       17 UNK        -0.5000 
     99 N          -2.0945  -26.1835  -52.9395 N.am      18 UNK        -0.5000 
    100 CA        -2.3145  -27.2888  -53.8759 C.3       18 UNK         0.1400 
    101 CB        -0.9924  -28.0287  -54.1682 C.3       18 UNK        -0.1800 
    102 C         -3.0600  -26.8392  -55.1517 C.2       18 UNK         0.5000 
    103 O         -2.5723  -27.0435  -56.2654 O.2       18 UNK        -0.5000 
    104 N         -4.2402  -26.2380  -54.9475 N.am      19 UNK        -0.5000 
    105 CA        -5.1835  -25.7536  -55.9588 C.3       19 UNK         0.1400 
    106 CB        -5.7560  -26.9261  -56.7832 C.3       19 UNK        -0.1800 
    107 C         -4.6349  -24.6044  -56.8323 C.2       19 UNK         0.5000 
    108 O         -4.9207  -24.5462  -58.0300 O.2       19 UNK        -0.5000 
    109 N         -3.8926  -23.6802  -56.2094 N.am      20 UNK        -0.5000 
    110 CA        -3.4702  -22.4096  -56.8040 C.3       20 UNK         0.1400 
    111 CB        -2.2135  -21.9056  -56.0795 C.3       20 UNK        -0.1800 
    112 C         -4.5808  -21.3404  -56.7378 C.2       20 UNK         0.5000 
    113 O         -4.4942  -20.3449  -57.4574 O.2       20 UNK        -0.5000 
    114 N         -5.5948  -21.5707  -55.8868 N.am      21 UNK        -0.5000 
    115 CA        -6.7737  -20.7321  -55.6460 C.3       21 UNK         0.1400 
    116 CB        -7.6398  -20.6113  -56.9180 C.3       21 UNK        -0.1800 
    117 C         -6.4029  -19.3715  -55.0222 C.2       21 UNK         0.5000 
    118 O         -6.7266  -18.3191  -55.5765 O.2       21 UNK        -0.5000 
    119 N         -5.7095  -19.4353  -53.8782 N.am      22 UNK        -0.5000 
    120 CA        -5.2872  -18.2940  -53.0499 C.3       22 UNK         0.1400 
    121 C         -6.4602  -17.3689  -52.6158 C.2       22 UNK         0.5000 
    122 N         -6.2682  -16.0568  -52.6368 N.am      22 UNK        -0.7600 
    123 O         -7.5255  -17.8339  -52.2166 O.2       22 UNK        -0.5000 
    124 C124       -4.5048  -18.7583  -51.7915 C.3       23 UNK        -0.0398 
    125 S125       -3.1585  -19.9418  -52.1315 S.3       23 UNK        -0.2404 
    126 C126       -1.9151  -18.9342  -52.9949 C.3       23 UNK        -0.0205 
    127 H127       -1.5007  -10.5996  -45.4914 H         1 UNK         0.0600 
    128 H128       -1.2221   -9.3251  -46.6814 H         1 UNK         0.0600 
    129 H129       -0.0479   -9.6014  -45.3897 H         1 UNK         0.0600 
    130 H130       -1.0696  -12.6280  -46.2935 H         1 UNK         0.3000 
    131 H131        0.4389  -13.0566  -48.6976 H         1 UNK         0.0600 
    132 H132       -0.0577  -15.5902  -48.0212 H         1 UNK         0.0800 
    133 H133       -1.0094  -14.9109  -46.7607 H         1 UNK         0.0800 
    134 H134       -1.9581  -14.2277  -51.2696 H         1 UNK         0.0800 
    135 H135       -0.4003  -13.8634  -50.5997 H         1 UNK         0.0800 
    136 H136       -2.4884  -16.4352  -52.0631 H         1 UNK         0.1150 
    137 H137        0.4921  -19.5121  -51.8448 H         1 UNK         0.1150 
    138 H138        1.1320  -15.7632  -49.8806 H         1 UNK         0.1150 
    139 H139        2.9556  -18.2981  -51.1767 H         1 UNK         0.0800 
    140 H140        2.7989  -17.3871  -49.6966 H         1 UNK         0.0800 
    141 H141        0.9032  -18.2869  -47.9297 H         1 UNK         0.0800 
    142 H142        2.1594  -19.1118  -47.0505 H         1 UNK         0.0800 
    143 H143        0.8353  -21.3215  -47.7235 H         1 UNK         0.0600 
    144 H144        0.5716  -19.6992  -45.3845 H         1 UNK         0.3000 
    145 H145       -1.0933  -22.3035  -43.5217 H         1 UNK         0.0600 
    146 H146        0.8341  -21.8902  -42.0405 H         1 UNK         0.0600 
    147 H147        1.3598  -22.7741  -43.4638 H         1 UNK         0.0600 
    148 H148        1.6945  -21.0529  -43.3317 H         1 UNK         0.0600 
    149 H149       -0.3374  -19.7167  -42.6918 H         1 UNK         0.3000 
    150 H150       -3.3749  -18.0332  -43.6636 H         1 UNK         0.0600 
    151 H151       -3.7885  -19.2128  -41.4918 H         1 UNK         0.0600 
    152 H152       -3.3327  -17.5341  -41.2425 H         1 UNK         0.0600 
    153 H153       -2.1573  -18.8164  -40.9613 H         1 UNK         0.0600 
    154 H154       -1.0893  -17.0408  -42.3317 H         1 UNK         0.3000 
    155 H155        0.7762  -16.0285  -45.2334 H         1 UNK         0.0600 
    156 H156       -0.8173  -14.2356  -44.5481 H         1 UNK         0.0600 
    157 H157        0.7299  -14.0051  -43.7457 H         1 UNK         0.0600 
    158 H158       -0.6327  -14.6767  -42.8644 H         1 UNK         0.0600 
    159 H159        1.5095  -16.0087  -42.5112 H         1 UNK         0.3000 
    160 H160        3.0331  -19.2312  -42.3271 H         1 UNK         0.0600 
    161 H161        4.1950  -16.3950  -42.3477 H         1 UNK         0.0600 
    162 H162        4.7085  -17.7086  -43.3976 H         1 UNK         0.0600 
    163 H163        4.9524  -17.8296  -41.6618 H         1 UNK         0.0600 
    164 H164        2.7077  -17.0227  -40.5002 H         1 UNK         0.3000 
    165 H165       -0.2921  -18.2259  -38.9717 H         1 UNK         0.0600 
    166 H166        1.1765  -18.0589  -36.9840 H         1 UNK         0.0600 
    167 H167        1.6056  -19.4760  -37.9285 H         1 UNK         0.0600 
    168 H168        2.6138  -18.0358  -38.0058 H         1 UNK         0.0600 
    169 H169        1.3567  -15.9439  -38.4691 H         1 UNK         0.3000 
    170 H170       -0.2569  -13.6927  -40.6974 H         1 UNK         0.0600 
    171 H171       -1.8191  -13.8333  -38.7508 H         1 UNK         0.0600 
    172 H172       -0.4512  -13.9235  -37.6477 H         1 UNK         0.0600 
    173 H173       -0.7270  -12.4663  -38.6031 H         1 UNK         0.0600 
    174 H174        1.6797  -13.1762  -38.7335 H         1 UNK         0.3000 
    175 H175        3.7308  -12.5912  -39.3271 H         1 UNK         0.0600 
    176 H176        4.8929  -15.2966  -40.2107 H         1 UNK         0.0600 
    177 H177        5.7286  -14.0914  -39.2354 H         1 UNK         0.0600 
    178 H178        4.3093  -14.9061  -38.5968 H         1 UNK         0.0600 
    179 H179        4.5313  -13.4920  -42.0643 H         1 UNK         0.3000 
    180 H180        4.8822  -10.2184  -43.1770 H         1 UNK         0.0600 
    181 H181        7.3126  -12.0087  -42.6369 H         1 UNK         0.0600 
    182 H182        7.1472  -10.3308  -42.1343 H         1 UNK         0.0600 
    183 H183        7.2197  -10.7248  -43.8437 H         1 UNK         0.0600 
    184 H184        5.6739  -12.7301  -44.3172 H         1 UNK         0.3000 
    185 H185        4.2275  -13.1904  -46.3273 H         1 UNK         0.0600 
    186 H186        4.8268  -14.9221  -44.6834 H         1 UNK         0.0600 
    187 H187        3.2033  -14.9309  -44.0199 H         1 UNK         0.0600 
    188 H188        3.5050  -15.5800  -45.6301 H         1 UNK         0.0600 
    189 H189        1.5639  -12.6668  -45.5298 H         1 UNK         0.3000 
    190 H190       -1.6781  -19.0148  -46.6611 H         1 UNK         0.3000 
    191 H191       -3.2113  -19.1200  -49.0804 H         1 UNK         0.0600 
    192 H192       -3.4208  -17.2790  -47.4400 H         1 UNK         0.0600 
    193 H193       -4.9755  -18.0688  -47.6603 H         1 UNK         0.0600 
    194 H194       -4.0222  -18.3982  -46.2167 H         1 UNK         0.0600 
    195 H195       -3.0022  -21.2621  -46.3082 H         1 UNK         0.3000 
    196 H196       -5.3436  -22.8769  -47.0454 H         1 UNK         0.0600 
    197 H197       -4.7522  -24.1624  -45.0225 H         1 UNK         0.0600 
    198 H198       -4.7574  -22.4549  -44.6453 H         1 UNK         0.0600 
    199 H199       -3.2245  -23.2895  -44.8699 H         1 UNK         0.0600 
    200 H200       -3.6683  -25.3072  -46.1811 H         1 UNK         0.3000 
    201 H201       -2.7861  -27.1154  -47.1393 H         1 UNK         0.0600 
    202 H202       -0.7194  -25.7162  -47.0204 H         1 UNK         0.0600 
    203 H203       -1.0078  -25.1288  -48.6549 H         1 UNK         0.0600 
    204 H204       -0.6636  -26.8307  -48.3778 H         1 UNK         0.0600 
    205 H205       -5.1624  -26.6386  -48.1627 H         1 UNK         0.3000 
    206 H206       -6.6477  -26.9597  -49.7829 H         1 UNK         0.0600 
    207 H207       -5.4953  -29.1659  -50.0551 H         1 UNK         0.0600 
    208 H208       -6.1790  -28.5951  -51.5682 H         1 UNK         0.0600 
    209 H209       -4.4483  -28.4735  -51.2921 H         1 UNK         0.0600 
    210 H210       -5.4505  -24.5171  -49.7215 H         1 UNK         0.3000 
    211 H211       -5.1104  -22.5731  -50.7188 H         1 UNK         0.0600 
    212 H212       -6.6080  -23.7136  -53.1421 H         1 UNK         0.0600 
    213 H213       -6.3252  -22.0149  -52.7819 H         1 UNK         0.0600 
    214 H214       -7.3665  -22.9641  -51.7383 H         1 UNK         0.0600 
    215 H215       -2.9443  -23.8408  -50.5366 H         1 UNK         0.3000 
    216 H216       -0.9220  -24.4445  -51.1970 H         1 UNK         0.0600 
    217 H217        0.2726  -22.8489  -52.6761 H         1 UNK         0.0600 
    218 H218       -0.7698  -21.9906  -51.5546 H         1 UNK         0.0600 
    219 H219       -1.2572  -22.1857  -53.2324 H         1 UNK         0.0600 
    220 H220       -2.5169  -26.2984  -52.0211 H         1 UNK         0.3000 
    221 H221       -2.9754  -27.9914  -53.3663 H         1 UNK         0.0600 
    222 H222       -0.2809  -27.3982  -54.7022 H         1 UNK         0.0600 
    223 H223       -0.5173  -28.3636  -53.2462 H         1 UNK         0.0600 
    224 H224       -1.1693  -28.9127  -54.7818 H         1 UNK         0.0600 
    225 H225       -4.5569  -26.1198  -53.9861 H         1 UNK         0.3000 
    226 H226       -6.0133  -25.3225  -55.3969 H         1 UNK         0.0600 
    227 H227       -6.1604  -27.7032  -56.1344 H         1 UNK         0.0600 
    228 H228       -6.5683  -26.5905  -57.4288 H         1 UNK         0.0600 
    229 H229       -4.9989  -27.3816  -57.4219 H         1 UNK         0.0600 
    230 H230       -3.7330  -23.7698  -55.2069 H         1 UNK         0.3000 
    231 H231       -3.2174  -22.5729  -57.8536 H         1 UNK         0.0600 
    232 H232       -2.4431  -21.5975  -55.0598 H         1 UNK         0.0600 
    233 H233       -1.7897  -21.0410  -56.5912 H         1 UNK         0.0600 
    234 H234       -1.4407  -22.6733  -56.0367 H         1 UNK         0.0600 
    235 H235       -5.5205  -22.4007  -55.3157 H         1 UNK         0.3000 
    236 H236       -7.3756  -21.2554  -54.9017 H         1 UNK         0.0600 
    237 H237       -7.9038  -21.5938  -57.3092 H         1 UNK         0.0600 
    238 H238       -8.5713  -20.0861  -56.7040 H         1 UNK         0.0600 
    239 H239       -7.1319  -20.0608  -57.7102 H         1 UNK         0.0600 
    240 H240       -5.4422  -20.3417  -53.5262 H         1 UNK         0.3000 
    241 H241       -4.6155  -17.7002  -53.6711 H         1 UNK         0.0600 
    242 H242       -7.0181  -15.4502  -52.3426 H         1 UNK         0.3800 
    243 H243       -5.4054  -15.6492  -52.9617 H         1 UNK         0.3800 
    244 H244       -4.0980  -17.9051  -51.2486 H         1 UNK         0.0800 
    245 H245       -5.1837  -19.2521  -51.0932 H         1 UNK         0.0800 
    246 H246       -1.2522  -19.6095  -53.5378 H         1 UNK         0.0800 
    247 H247       -2.3900  -18.3165  -53.7570 H         1 UNK         0.0800 
@<TRIPOS>BOND
     1    1    2 1    
     2    1  127 1    
     3    1  128 1    
     4    1  129 1    
     5    2    3 2    
     6    2    4 am   BACKBONE|DICT|INTERRES
     7    4    5 1    
     8    4  130 1    
     9    5    6 1    
    10    5   65 1    
    11    5  131 1    
    12    6    7 1    
    13    6  132 1    
    14    6  133 1    
    15    7    8 1    
    16    8    9 1    
    17    8  134 1    
    18    8  135 1    
    19    9   10 ar   
    20    9   14 ar   
    21   10   11 ar   
    22   10  136 1    
    23   11   12 ar   
    24   11  126 1    
    25   12   13 ar   
    26   12  137 1    
    27   13   14 ar   
    28   13   15 1    
    29   14  138 1    
    30   15   16 1    
    31   15  139 1    
    32   15  140 1    
    33   16   17 1    
    34   17   18 1    
    35   17  141 1    
    36   17  142 1    
    37   18   19 1    
    38   18   67 1    
    39   18  143 1    
    40   19   20 am   BACKBONE|DICT|INTERRES
    41   19  144 1    
    42   20   21 2    
    43   20   22 1    
    44   22   23 1    
    45   22   24 1    
    46   22  145 1    
    47   23  146 1    
    48   23  147 1    
    49   23  148 1    
    50   24   25 am   BACKBONE|DICT|INTERRES
    51   24  149 1    
    52   25   26 2    
    53   25   27 1    
    54   27   28 1    
    55   27   29 1    
    56   27  150 1    
    57   28  151 1    
    58   28  152 1    
    59   28  153 1    
    60   29   30 am   BACKBONE|DICT|INTERRES
    61   29  154 1    
    62   30   31 2    
    63   30   32 1    
    64   32   33 1    
    65   32   34 1    
    66   32  155 1    
    67   33  156 1    
    68   33  157 1    
    69   33  158 1    
    70   34   35 am   BACKBONE|DICT|INTERRES
    71   34  159 1    
    72   35   36 2    
    73   35   37 1    
    74   37   38 1    
    75   37   39 1    
    76   37  160 1    
    77   38  161 1    
    78   38  162 1    
    79   38  163 1    
    80   39   40 am   BACKBONE|DICT|INTERRES
    81   39  164 1    
    82   40   41 2    
    83   40   42 1    
    84   42   43 1    
    85   42   44 1    
    86   42  165 1    
    87   43  166 1    
    88   43  167 1    
    89   43  168 1    
    90   44   45 am   BACKBONE|DICT|INTERRES
    91   44  169 1    
    92   45   46 2    
    93   45   47 1    
    94   47   48 1    
    95   47   49 1    
    96   47  170 1    
    97   48  171 1    
    98   48  172 1    
    99   48  173 1    
   100   49   50 am   BACKBONE|DICT|INTERRES
   101   49  174 1    
   102   50   51 2    
   103   50   52 1    
   104   52   53 1    
   105   52   54 1    
   106   52  175 1    
   107   53  176 1    
   108   53  177 1    
   109   53  178 1    
   110   54   55 am   BACKBONE|DICT|INTERRES
   111   54  179 1    
   112   55   56 2    
   113   55   57 1    
   114   57   58 1    
   115   57   59 1    
   116   57  180 1    
   117   58  181 1    
   118   58  182 1    
   119   58  183 1    
   120   59   60 am   BACKBONE|DICT|INTERRES
   121   59  184 1    
   122   60   61 2    
   123   60   62 1    
   124   62   63 1    
   125   62   64 1    
   126   62  185 1    
   127   63  186 1    
   128   63  187 1    
   129   63  188 1    
   130   64   65 am   BACKBONE|DICT|INTERRES
   131   64  189 1    
   132   65   66 2    
   133   67   68 2    
   134   67   69 am   BACKBONE|DICT|INTERRES
   135   69   70 1    
   136   69  190 1    
   137   70   71 1    
   138   70   72 1    
   139   70  191 1    
   140   71  192 1    
   141   71  193 1    
   142   71  194 1    
   143   72   73 2    
   144   72   74 am   BACKBONE|DICT|INTERRES
   145   74   75 1    
   146   74  195 1    
   147   75   76 1    
   148   75   77 1    
   149   75  196 1    
   150   76  197 1    
   151   76  198 1    
   152   76  199 1    
   153   77   78 2    
   154   77   79 am   BACKBONE|DICT|INTERRES
   155   79   80 1    
   156   79  200 1    
   157   80   81 1    
   158   80   82 1    
   159   80  201 1    
   160   81  202 1    
   161   81  203 1    
   162   81  204 1    
   163   82   83 2    
   164   82   84 am   BACKBONE|DICT|INTERRES
   165   84   85 1    
   166   84  205 1    
   167   85   86 1    
   168   85   87 1    
   169   85  206 1    
   170   86  207 1    
   171   86  208 1    
   172   86  209 1    
   173   87   88 2    
   174   87   89 am   BACKBONE|DICT|INTERRES
   175   89   90 1    
   176   89  210 1    
   177   90   91 1    
   178   90   92 1    
   179   90  211 1    
   180   91  212 1    
   181   91  213 1    
   182   91  214 1    
   183   92   93 2    
   184   92   94 am   BACKBONE|DICT|INTERRES
   185   94   95 1    
   186   94  215 1    
   187   95   96 1    
   188   95   97 1    
   189   95  216 1    
   190   96  217 1    
   191   96  218 1    
   192   96  219 1    
   193   97   98 2    
   194   97   99 am   BACKBONE|DICT|INTERRES
   195   99  100 1    
   196   99  220 1    
   197  100  101 1    
   198  100  102 1    
   199  100  221 1    
   200  101  222 1    
   201  101  223 1    
   202  101  224 1    
   203  102  103 2    
   204  102  104 am   BACKBONE|DICT|INTERRES
   205  104  105 1    
   206  104  225 1    
   207  105  106 1    
   208  105  107 1    
   209  105  226 1    
   210  106  227 1    
   211  106  228 1    
   212  106  229 1    
   213  107  108 2    
   214  107  109 am   BACKBONE|DICT|INTERRES
   215  109  110 1    
   216  109  230 1    
   217  110  111 1    
   218  110  112 1    
   219  110  231 1    
   220  111  232 1    
   221  111  233 1    
   222  111  234 1    
   223  112  113 2    
   224  112  114 am   BACKBONE|DICT|INTERRES
   225  114  115 1    
   226  114  235 1    
   227  115  116 1    
   228  115  117 1    
   229  115  236 1    
   230  116  237 1    
   231  116  238 1    
   232  116  239 1    
   233  117  118 2    
   234  117  119 am   BACKBONE|DICT|INTERRES
   235  119  120 1    
   236  119  240 1    
   237  120  121 1    
   238  120  124 1    
   239  120  241 1    
   240  121  122 am   BACKBONE|DICT|INTERRES
   241  121  123 2    
   242  122  242 1    
   243  122  243 1    
   244  124  125 1    
   245  124  244 1    
   246  124  245 1    
   247  125  126 1    
   248  126  246 1    
   249  126  247 1    
@<TRIPOS>SUBSTRUCTURE
     1 UNK         1 GROUP             0       ****    0 ROOT    
