@<TRIPOS>MOLECULE
3R540
247   249    1
SMALL
USER_CHARGES


@<TRIPOS>ATOM
      1 CA          4.8981  -17.1023  -49.2913 C.3       0 UNK        -0.1800 
      2 C           3.4526  -17.4632  -48.9827 C.2       0 UNK         0.5000 
      3 O           3.1911  -18.5568  -48.4796 O.2       0 UNK        -0.5000 
      4 N           2.5194  -16.5470  -49.2727 N.am      1 UNK        -0.5000 
      5 CA          1.0742  -16.7277  -49.0771 C.3       1 UNK         0.1400 
      6 C6          0.3277  -16.7542  -50.4381 C.3       23 UNK        -0.0398 
      7 S7         -1.0537  -17.9425  -50.4383 S.3       23 UNK        -0.2404 
      8 C8         -2.4828  -16.8290  -50.5162 C.3       23 UNK        -0.0205 
      9 C9         -3.7339  -17.5468  -50.0510 C.ar      23 UNK        -0.0193 
     10 C10        -4.5078  -18.2806  -50.9527 C.ar      23 UNK        -0.1150 
     11 C11        -5.6786  -18.9170  -50.5288 C.ar      23 UNK        -0.0193 
     12 C12        -6.0459  -18.8450  -49.1806 C.ar      23 UNK        -0.1150 
     13 C13        -5.2550  -18.1473  -48.2630 C.ar      23 UNK        -0.0193 
     14 C14        -4.1099  -17.4841  -48.7085 C.ar      23 UNK        -0.1150 
     15 C15        -5.6362  -18.1096  -46.7915 C.3       23 UNK        -0.0205 
     16 S16        -5.2285  -19.6673  -45.9383 S.3       23 UNK        -0.2404 
     17 C17        -3.4008  -19.6684  -45.9472 C.3       23 UNK        -0.0398 
     18 CA         -2.8005  -20.9773  -46.5154 C.3       11 UNK         0.1400 
     19 N          -1.4332  -20.7779  -47.0168 N.am      11 UNK        -0.5000 
     20 C          -0.6907  -21.7191  -47.6186 C.2       10 UNK         0.5000 
     21 O          -1.1278  -22.8300  -47.9204 O.2       10 UNK        -0.5000 
     22 CA          0.8031  -21.4185  -47.8699 C.3       10 UNK         0.1400 
     23 CB          1.0442  -21.0780  -49.3469 C.3       10 UNK        -0.1800 
     24 N           1.4003  -20.3704  -47.0326 N.am      10 UNK        -0.5000 
     25 C           1.3867  -20.3119  -45.6931 C.2       9 UNK         0.5000 
     26 O           0.8233  -21.1443  -44.9778 O.2       9 UNK        -0.5000 
     27 CA          2.0873  -19.0996  -45.0632 C.3       9 UNK         0.1400 
     28 CB          1.5089  -17.7881  -45.6082 C.3       9 UNK        -0.1800 
     29 N           1.8853  -19.0795  -43.6217 N.am      9 UNK        -0.5000 
     30 C           2.8216  -19.3079  -42.6963 C.2       8 UNK         0.5000 
     31 O           3.9659  -19.6798  -42.9614 O.2       8 UNK        -0.5000 
     32 CA          2.4275  -19.0384  -41.2310 C.3       8 UNK         0.1400 
     33 CB          3.4985  -18.1959  -40.5168 C.3       8 UNK        -0.1800 
     34 N           1.1430  -18.3362  -41.1446 N.am      8 UNK        -0.5000 
     35 C          -0.0018  -18.8854  -40.7202 C.2       7 UNK         0.5000 
     36 O          -0.0887  -20.0366  -40.2924 O.2       7 UNK        -0.5000 
     37 CA         -1.2732  -18.0173  -40.7838 C.3       7 UNK         0.1400 
     38 CB         -1.5739  -17.4140  -39.4041 C.3       7 UNK        -0.1800 
     39 N          -1.2307  -16.9456  -41.7834 N.am      7 UNK        -0.5000 
     40 C          -1.2543  -17.1410  -43.1099 C.2       6 UNK         0.5000 
     41 O          -1.1900  -18.2607  -43.6188 O.2       6 UNK        -0.5000 
     42 CA         -1.3310  -15.9102  -44.0400 C.3       6 UNK         0.1400 
     43 CB         -2.5902  -15.9398  -44.9265 C.3       6 UNK        -0.1800 
     44 N          -1.1735  -14.6145  -43.3742 N.am      6 UNK        -0.5000 
     45 C          -2.0253  -13.9512  -42.5821 C.2       5 UNK         0.5000 
     46 O          -3.1552  -14.3432  -42.2892 O.2       5 UNK        -0.5000 
     47 CA         -1.4626  -12.6401  -41.9919 C.3       5 UNK         0.1400 
     48 CB         -2.3509  -12.0353  -40.8843 C.3       5 UNK        -0.1800 
     49 N          -0.0754  -12.8058  -41.5334 N.am      5 UNK        -0.5000 
     50 C           0.3545  -13.6536  -40.5856 C.2       4 UNK         0.5000 
     51 O          -0.3967  -14.3559  -39.9089 O.2       4 UNK        -0.5000 
     52 CA          1.8838  -13.7607  -40.4072 C.3       4 UNK         0.1400 
     53 CB          2.2940  -14.9201  -39.4761 C.3       4 UNK        -0.1800 
     54 N           2.5990  -13.8442  -41.6879 N.am      4 UNK        -0.5000 
     55 C           2.4522  -14.7771  -42.6406 C.2       3 UNK         0.5000 
     56 O           1.6964  -15.7471  -42.5535 O.2       3 UNK        -0.5000 
     57 CA          3.2959  -14.5786  -43.9169 C.3       3 UNK         0.1400 
     58 CB          4.3282  -15.7085  -44.0604 C.3       3 UNK        -0.1800 
     59 N           2.5019  -14.4865  -45.1495 N.am      3 UNK        -0.5000 
     60 C           1.4891  -13.6349  -45.3724 C.2       2 UNK         0.5000 
     61 O           1.0448  -12.8713  -44.5136 O.2       2 UNK        -0.5000 
     62 CA          0.8544  -13.6103  -46.7774 C.3       2 UNK         0.1400 
     63 CB          1.1819  -12.2824  -47.4797 C.3       2 UNK        -0.1800 
     64 N           1.2879  -14.7124  -47.6464 N.am      2 UNK        -0.5000 
     65 C           0.4818  -15.6889  -48.0936 C.2       1 UNK         0.5000 
     66 O          -0.6892  -15.8076  -47.7360 O.2       1 UNK        -0.5000 
     67 C          -2.8808  -22.1235  -45.4783 C.2       11 UNK         0.5000 
     68 O          -3.8390  -22.8964  -45.4926 O.2       11 UNK        -0.5000 
     69 N          -1.8489  -22.2342  -44.6319 N.am      12 UNK        -0.5000 
     70 CA         -1.6854  -23.3036  -43.6542 C.3       12 UNK         0.1400 
     71 CB         -1.2084  -22.6963  -42.3248 C.3       12 UNK        -0.1800 
     72 C          -0.6850  -24.3533  -44.1628 C.2       12 UNK         0.5000 
     73 O          -0.9938  -25.5446  -44.1505 O.2       12 UNK        -0.5000 
     74 N           0.4935  -23.8943  -44.6072 N.am      13 UNK        -0.5000 
     75 CA          1.6550  -24.7265  -44.9318 C.3       13 UNK         0.1400 
     76 CB          2.8919  -23.8256  -45.0726 C.3       13 UNK        -0.1800 
     77 C           1.4851  -25.6075  -46.1827 C.2       13 UNK         0.5000 
     78 O           2.1166  -26.6619  -46.2613 O.2       13 UNK        -0.5000 
     79 N           0.6420  -25.1719  -47.1258 N.am      14 UNK        -0.5000 
     80 CA          0.3067  -25.8960  -48.3534 C.3       14 UNK         0.1400 
     81 CB          0.8611  -25.1230  -49.5639 C.3       14 UNK        -0.1800 
     82 C          -1.2124  -26.1189  -48.4657 C.2       14 UNK         0.5000 
     83 O          -1.6980  -26.4152  -49.5568 O.2       14 UNK        -0.5000 
     84 N          -1.9422  -25.9476  -47.3511 N.am      15 UNK        -0.5000 
     85 CA         -3.3950  -26.1026  -47.2078 C.3       15 UNK         0.1400 
     86 CB         -3.7697  -27.5984  -47.2523 C.3       15 UNK        -0.1800 
     87 C          -4.2243  -25.2517  -48.1981 C.2       15 UNK         0.5000 
     88 O          -5.3006  -25.6793  -48.6196 O.2       15 UNK        -0.5000 
     89 N          -3.6998  -24.0698  -48.5573 N.am      16 UNK        -0.5000 
     90 CA         -4.2738  -23.0918  -49.4858 C.3       16 UNK         0.1400 
     91 CB         -5.6301  -22.5665  -48.9700 C.3       16 UNK        -0.1800 
     92 C          -4.3307  -23.5789  -50.9495 C.2       16 UNK         0.5000 
     93 O          -5.1557  -23.0920  -51.7236 O.2       16 UNK        -0.5000 
     94 N          -3.4275  -24.4972  -51.3271 N.am      17 UNK        -0.5000 
     95 CA         -3.2814  -25.0112  -52.6944 C.3       17 UNK         0.1400 
     96 CB         -2.4442  -26.2986  -52.6610 C.3       17 UNK        -0.1800 
     97 C          -2.6682  -23.9982  -53.6858 C.2       17 UNK         0.5000 
     98 O          -2.6813  -24.2522  -54.8918 O.2       17 UNK        -0.5000 
     99 N          -2.1399  -22.8759  -53.1771 N.am      18 UNK        -0.5000 
    100 CA        -1.5486  -21.7664  -53.9271 C.3       18 UNK         0.1400 
    101 CB        -0.7179  -20.9110  -52.9532 C.3       18 UNK        -0.1800 
    102 C         -2.6067  -20.9335  -54.6845 C.2       18 UNK         0.5000 
    103 O         -2.7867  -19.7476  -54.4026 O.2       18 UNK        -0.5000 
    104 N         -3.2918  -21.5687  -55.6438 N.am      19 UNK        -0.5000 
    105 CA        -4.3788  -21.0067  -56.4519 C.3       19 UNK         0.1400 
    106 CB        -4.9016  -22.0863  -57.4101 C.3       19 UNK        -0.1800 
    107 C         -3.9972  -19.7329  -57.2309 C.2       19 UNK         0.5000 
    108 O         -4.8317  -18.8394  -57.3797 O.2       19 UNK        -0.5000 
    109 N         -2.7339  -19.6542  -57.6716 N.am      20 UNK        -0.5000 
    110 CA        -2.1572  -18.4955  -58.3564 C.3       20 UNK         0.1400 
    111 CB        -0.7810  -18.8803  -58.9201 C.3       20 UNK        -0.1800 
    112 C         -2.0432  -17.2475  -57.4581 C.2       20 UNK         0.5000 
    113 O         -2.1491  -16.1299  -57.9646 O.2       20 UNK        -0.5000 
    114 N         -1.8425  -17.4565  -56.1496 N.am      21 UNK        -0.5000 
    115 CA        -1.8398  -16.3998  -55.1382 C.3       21 UNK         0.1400 
    116 CB        -0.9141  -16.8082  -53.9831 C.3       21 UNK        -0.1800 
    117 C         -3.2637  -16.1106  -54.6284 C.2       21 UNK         0.5000 
    118 O         -3.5725  -14.9604  -54.3160 O.2       21 UNK        -0.5000 
    119 N         -4.0996  -17.1557  -54.5633 N.am      22 UNK        -0.5000 
    120 CA        -5.5265  -17.0944  -54.2132 C.3       22 UNK         0.1400 
    121 C         -6.3728  -16.2509  -55.2081 C.2       22 UNK         0.5000 
    122 N         -6.2058  -16.4432  -56.5113 N.am      22 UNK        -0.7600 
    123 O         -7.1757  -15.4167  -54.7990 O.2       22 UNK        -0.5000 
    124 C124       -6.1195  -18.5200  -54.0475 C.3       23 UNK        -0.0398 
    125 S125       -7.3722  -18.6339  -52.7261 S.3       23 UNK        -0.2404 
    126 C126       -6.5345  -19.7056  -51.5116 C.3       23 UNK        -0.0205 
    127 H127        5.4914  -17.1218  -48.3772 H         1 UNK         0.0600 
    128 H128        4.9844  -16.1093  -49.7329 H         1 UNK         0.0600 
    129 H129        5.3222  -17.8236  -49.9896 H         1 UNK         0.0600 
    130 H130        2.7991  -15.6873  -49.7243 H         1 UNK         0.3000 
    131 H131        0.9063  -17.6898  -48.5901 H         1 UNK         0.0600 
    132 H132       -0.0087  -15.7610  -50.7409 H         1 UNK         0.0800 
    133 H133        1.0010  -17.0853  -51.2303 H         1 UNK         0.0800 
    134 H134       -2.6132  -16.4646  -51.5355 H         1 UNK         0.0800 
    135 H135       -2.3089  -15.9511  -49.8925 H         1 UNK         0.0800 
    136 H136       -4.1938  -18.3502  -51.9832 H         1 UNK         0.1150 
    137 H137       -6.9381  -19.3489  -48.8362 H         1 UNK         0.1150 
    138 H138       -3.4983  -16.9293  -48.0102 H         1 UNK         0.1150 
    139 H139       -5.1459  -17.2778  -46.2833 H         1 UNK         0.0800 
    140 H140       -6.7085  -17.9301  -46.7027 H         1 UNK         0.0800 
    141 H141       -3.0467  -19.4751  -44.9342 H         1 UNK         0.0800 
    142 H142       -3.0564  -18.8272  -46.5452 H         1 UNK         0.0800 
    143 H143       -3.3979  -21.2721  -47.3776 H         1 UNK         0.0600 
    144 H144       -0.9934  -19.8980  -46.7940 H         1 UNK         0.3000 
    145 H145        1.3422  -22.3415  -47.6536 H         1 UNK         0.0600 
    146 H146        2.1096  -21.0617  -49.5773 H         1 UNK         0.0600 
    147 H147        0.5809  -21.8109  -50.0078 H         1 UNK         0.0600 
    148 H148        0.6360  -20.1023  -49.6033 H         1 UNK         0.0600 
    149 H149        1.9376  -19.6675  -47.5355 H         1 UNK         0.3000 
    150 H150        3.1516  -19.1488  -45.3022 H         1 UNK         0.0600 
    151 H151        0.4588  -17.8779  -45.8904 H         1 UNK         0.0600 
    152 H152        2.0701  -17.4593  -46.4752 H         1 UNK         0.0600 
    153 H153        1.5802  -16.9875  -44.8771 H         1 UNK         0.0600 
    154 H154        0.9453  -18.8612  -43.3162 H         1 UNK         0.3000 
    155 H155        2.3736  -20.0084  -40.7334 H         1 UNK         0.0600 
    156 H156        3.6549  -17.2391  -41.0160 H         1 UNK         0.0600 
    157 H157        4.4576  -18.7144  -40.4947 H         1 UNK         0.0600 
    158 H158        3.2176  -17.9958  -39.4828 H         1 UNK         0.0600 
    159 H159        1.1296  -17.3911  -41.5195 H         1 UNK         0.3000 
    160 H160       -2.1020  -18.6773  -41.0487 H         1 UNK         0.0600 
    161 H161       -0.7437  -16.8069  -39.0425 H         1 UNK         0.0600 
    162 H162       -1.7471  -18.1985  -38.6665 H         1 UNK         0.0600 
    163 H163       -2.4655  -16.7869  -39.4286 H         1 UNK         0.0600 
    164 H164       -1.2325  -15.9976  -41.4307 H         1 UNK         0.3000 
    165 H165       -0.4755  -15.9814  -44.7085 H         1 UNK         0.0600 
    166 H166       -2.6473  -15.0577  -45.5643 H         1 UNK         0.0600 
    167 H167       -3.5061  -15.9953  -44.3379 H         1 UNK         0.0600 
    168 H168       -2.5720  -16.8062  -45.5851 H         1 UNK         0.0600 
    169 H169       -0.2639  -14.1859  -43.5014 H         1 UNK         0.3000 
    170 H170       -1.4307  -11.9246  -42.8151 H         1 UNK         0.0600 
    171 H171       -3.3421  -11.7946  -41.2699 H         1 UNK         0.0600 
    172 H172       -2.4861  -12.7214  -40.0478 H         1 UNK         0.0600 
    173 H173       -1.9215  -11.1122  -40.4952 H         1 UNK         0.0600 
    174 H174        0.6210  -12.3123  -42.0764 H         1 UNK         0.3000 
    175 H175        2.2031  -12.8307  -39.9348 H         1 UNK         0.0600 
    176 H176        1.9033  -15.8744  -39.8272 H         1 UNK         0.0600 
    177 H177        3.3778  -15.0055  -39.3994 H         1 UNK         0.0600 
    178 H178        1.9072  -14.7648  -38.4685 H         1 UNK         0.0600 
    179 H179        3.2383  -13.0826  -41.8681 H         1 UNK         0.3000 
    180 H180        3.8439  -13.6388  -43.8258 H         1 UNK         0.0600 
    181 H181        3.8531  -16.6815  -44.1833 H         1 UNK         0.0600 
    182 H182        4.9639  -15.7694  -43.1762 H         1 UNK         0.0600 
    183 H183        4.9812  -15.5432  -44.9174 H         1 UNK         0.0600 
    184 H184        2.7771  -15.1030  -45.8970 H         1 UNK         0.3000 
    185 H185       -0.2263  -13.6446  -46.6245 H         1 UNK         0.0600 
    186 H186        0.6806  -12.2151  -48.4455 H         1 UNK         0.0600 
    187 H187        0.8510  -11.4297  -46.8851 H         1 UNK         0.0600 
    188 H188        2.2533  -12.1691  -47.6491 H         1 UNK         0.0600 
    189 H189        2.2432  -14.6835  -47.9701 H         1 UNK         0.3000 
    190 H190       -1.0663  -21.5941  -44.7264 H         1 UNK         0.3000 
    191 H191       -2.6377  -23.8057  -43.4707 H         1 UNK         0.0600 
    192 H192       -1.0573  -23.4704  -41.5716 H         1 UNK         0.0600 
    193 H193       -1.9431  -21.9955  -41.9279 H         1 UNK         0.0600 
    194 H194       -0.2666  -22.1569  -42.4365 H         1 UNK         0.0600 
    195 H195        0.6487  -22.8878  -44.6231 H         1 UNK         0.3000 
    196 H196        1.8233  -25.3970  -44.0865 H         1 UNK         0.0600 
    197 H197        2.7952  -23.1334  -45.9087 H         1 UNK         0.0600 
    198 H198        3.0576  -23.2373  -44.1696 H         1 UNK         0.0600 
    199 H199        3.7907  -24.4197  -45.2424 H         1 UNK         0.0600 
    200 H200        0.1463  -24.3006  -46.9852 H         1 UNK         0.3000 
    201 H201        0.7598  -26.8890  -48.3498 H         1 UNK         0.0600 
    202 H202        0.3535  -24.1688  -49.6992 H         1 UNK         0.0600 
    203 H203        0.7319  -25.6930  -50.4847 H         1 UNK         0.0600 
    204 H204        1.9272  -24.9249  -49.4529 H         1 UNK         0.0600 
    205 H205       -1.4469  -25.7228  -46.4989 H         1 UNK         0.3000 
    206 H206       -3.6423  -25.7289  -46.2131 H         1 UNK         0.0600 
    207 H207       -3.1909  -28.1712  -46.5277 H         1 UNK         0.0600 
    208 H208       -4.8231  -27.7480  -47.0132 H         1 UNK         0.0600 
    209 H209       -3.5923  -28.0281  -48.2388 H         1 UNK         0.0600 
    210 H210       -2.7891  -23.8201  -48.1815 H         1 UNK         0.3000 
    211 H211       -3.5816  -22.2492  -49.4932 H         1 UNK         0.0600 
    212 H212       -5.9638  -21.7139  -49.5572 H         1 UNK         0.0600 
    213 H213       -5.5631  -22.2375  -47.9331 H         1 UNK         0.0600 
    214 H214       -6.4115  -23.3239  -49.0314 H         1 UNK         0.0600 
    215 H215       -2.8119  -24.8990  -50.6284 H         1 UNK         0.3000 
    216 H216       -4.2750  -25.2652  -53.0693 H         1 UNK         0.0600 
    217 H217       -1.4332  -26.1101  -52.2977 H         1 UNK         0.0600 
    218 H218       -2.3592  -26.7393  -53.6551 H         1 UNK         0.0600 
    219 H219       -2.8996  -27.0483  -52.0135 H         1 UNK         0.0600 
    220 H220       -2.1915  -22.7555  -52.1775 H         1 UNK         0.3000 
    221 H221       -0.8670  -22.1788  -54.6737 H         1 UNK         0.0600 
    222 H222        0.0721  -21.4989  -52.4860 H         1 UNK         0.0600 
    223 H223       -1.3369  -20.4898  -52.1599 H         1 UNK         0.0600 
    224 H224       -0.2373  -20.0796  -53.4703 H         1 UNK         0.0600 
    225 H225       -3.1045  -22.5604  -55.7602 H         1 UNK         0.3000 
    226 H226       -5.1875  -20.7447  -55.7690 H         1 UNK         0.0600 
    227 H227       -4.1253  -22.4236  -58.0980 H         1 UNK         0.0600 
    228 H228       -5.2655  -22.9562  -56.8628 H         1 UNK         0.0600 
    229 H229       -5.7319  -21.7096  -58.0092 H         1 UNK         0.0600 
    230 H230       -2.1193  -20.4368  -57.5027 H         1 UNK         0.3000 
    231 H231       -2.8105  -18.2400  -59.1934 H         1 UNK         0.0600 
    232 H232       -0.0881  -19.1694  -58.1289 H         1 UNK         0.0600 
    233 H233       -0.3328  -18.0451  -59.4600 H         1 UNK         0.0600 
    234 H234       -0.8596  -19.7127  -59.6198 H         1 UNK         0.0600 
    235 H235       -1.8159  -18.4069  -55.8040 H         1 UNK         0.3000 
    236 H236       -1.4445  -15.4794  -55.5733 H         1 UNK         0.0600 
    237 H237        0.0978  -17.0046  -54.3373 H         1 UNK         0.0600 
    238 H238       -0.8488  -16.0136  -53.2396 H         1 UNK         0.0600 
    239 H239       -1.2712  -17.7054  -53.4772 H         1 UNK         0.0600 
    240 H240       -3.7252  -18.0749  -54.7707 H         1 UNK         0.3000 
    241 H241       -5.5713  -16.5877  -53.2470 H         1 UNK         0.0600 
    242 H242       -6.7427  -15.8992  -57.1674 H         1 UNK         0.3800 
    243 H243       -5.5950  -17.1819  -56.8511 H         1 UNK         0.3800 
    244 H244       -5.3289  -19.2355  -53.8258 H         1 UNK         0.0800 
    245 H245       -6.5649  -18.8796  -54.9769 H         1 UNK         0.0800 
    246 H246       -5.9246  -20.4577  -52.0135 H         1 UNK         0.0800 
    247 H247       -7.3047  -20.2615  -50.9753 H         1 UNK         0.0800 
@<TRIPOS>BOND
     1    1    2 1    
     2    1  127 1    
     3    1  128 1    
     4    1  129 1    
     5    2    3 2    
     6    2    4 am   BACKBONE|DICT|INTERRES
     7    4    5 1    
     8    4  130 1    
     9    5    6 1    
    10    5   65 1    
    11    5  131 1    
    12    6    7 1    
    13    6  132 1    
    14    6  133 1    
    15    7    8 1    
    16    8    9 1    
    17    8  134 1    
    18    8  135 1    
    19    9   10 ar   
    20    9   14 ar   
    21   10   11 ar   
    22   10  136 1    
    23   11   12 ar   
    24   11  126 1    
    25   12   13 ar   
    26   12  137 1    
    27   13   14 ar   
    28   13   15 1    
    29   14  138 1    
    30   15   16 1    
    31   15  139 1    
    32   15  140 1    
    33   16   17 1    
    34   17   18 1    
    35   17  141 1    
    36   17  142 1    
    37   18   19 1    
    38   18   67 1    
    39   18  143 1    
    40   19   20 am   BACKBONE|DICT|INTERRES
    41   19  144 1    
    42   20   21 2    
    43   20   22 1    
    44   22   23 1    
    45   22   24 1    
    46   22  145 1    
    47   23  146 1    
    48   23  147 1    
    49   23  148 1    
    50   24   25 am   BACKBONE|DICT|INTERRES
    51   24  149 1    
    52   25   26 2    
    53   25   27 1    
    54   27   28 1    
    55   27   29 1    
    56   27  150 1    
    57   28  151 1    
    58   28  152 1    
    59   28  153 1    
    60   29   30 am   BACKBONE|DICT|INTERRES
    61   29  154 1    
    62   30   31 2    
    63   30   32 1    
    64   32   33 1    
    65   32   34 1    
    66   32  155 1    
    67   33  156 1    
    68   33  157 1    
    69   33  158 1    
    70   34   35 am   BACKBONE|DICT|INTERRES
    71   34  159 1    
    72   35   36 2    
    73   35   37 1    
    74   37   38 1    
    75   37   39 1    
    76   37  160 1    
    77   38  161 1    
    78   38  162 1    
    79   38  163 1    
    80   39   40 am   BACKBONE|DICT|INTERRES
    81   39  164 1    
    82   40   41 2    
    83   40   42 1    
    84   42   43 1    
    85   42   44 1    
    86   42  165 1    
    87   43  166 1    
    88   43  167 1    
    89   43  168 1    
    90   44   45 am   BACKBONE|DICT|INTERRES
    91   44  169 1    
    92   45   46 2    
    93   45   47 1    
    94   47   48 1    
    95   47   49 1    
    96   47  170 1    
    97   48  171 1    
    98   48  172 1    
    99   48  173 1    
   100   49   50 am   BACKBONE|DICT|INTERRES
   101   49  174 1    
   102   50   51 2    
   103   50   52 1    
   104   52   53 1    
   105   52   54 1    
   106   52  175 1    
   107   53  176 1    
   108   53  177 1    
   109   53  178 1    
   110   54   55 am   BACKBONE|DICT|INTERRES
   111   54  179 1    
   112   55   56 2    
   113   55   57 1    
   114   57   58 1    
   115   57   59 1    
   116   57  180 1    
   117   58  181 1    
   118   58  182 1    
   119   58  183 1    
   120   59   60 am   BACKBONE|DICT|INTERRES
   121   59  184 1    
   122   60   61 2    
   123   60   62 1    
   124   62   63 1    
   125   62   64 1    
   126   62  185 1    
   127   63  186 1    
   128   63  187 1    
   129   63  188 1    
   130   64   65 am   BACKBONE|DICT|INTERRES
   131   64  189 1    
   132   65   66 2    
   133   67   68 2    
   134   67   69 am   BACKBONE|DICT|INTERRES
   135   69   70 1    
   136   69  190 1    
   137   70   71 1    
   138   70   72 1    
   139   70  191 1    
   140   71  192 1    
   141   71  193 1    
   142   71  194 1    
   143   72   73 2    
   144   72   74 am   BACKBONE|DICT|INTERRES
   145   74   75 1    
   146   74  195 1    
   147   75   76 1    
   148   75   77 1    
   149   75  196 1    
   150   76  197 1    
   151   76  198 1    
   152   76  199 1    
   153   77   78 2    
   154   77   79 am   BACKBONE|DICT|INTERRES
   155   79   80 1    
   156   79  200 1    
   157   80   81 1    
   158   80   82 1    
   159   80  201 1    
   160   81  202 1    
   161   81  203 1    
   162   81  204 1    
   163   82   83 2    
   164   82   84 am   BACKBONE|DICT|INTERRES
   165   84   85 1    
   166   84  205 1    
   167   85   86 1    
   168   85   87 1    
   169   85  206 1    
   170   86  207 1    
   171   86  208 1    
   172   86  209 1    
   173   87   88 2    
   174   87   89 am   BACKBONE|DICT|INTERRES
   175   89   90 1    
   176   89  210 1    
   177   90   91 1    
   178   90   92 1    
   179   90  211 1    
   180   91  212 1    
   181   91  213 1    
   182   91  214 1    
   183   92   93 2    
   184   92   94 am   BACKBONE|DICT|INTERRES
   185   94   95 1    
   186   94  215 1    
   187   95   96 1    
   188   95   97 1    
   189   95  216 1    
   190   96  217 1    
   191   96  218 1    
   192   96  219 1    
   193   97   98 2    
   194   97   99 am   BACKBONE|DICT|INTERRES
   195   99  100 1    
   196   99  220 1    
   197  100  101 1    
   198  100  102 1    
   199  100  221 1    
   200  101  222 1    
   201  101  223 1    
   202  101  224 1    
   203  102  103 2    
   204  102  104 am   BACKBONE|DICT|INTERRES
   205  104  105 1    
   206  104  225 1    
   207  105  106 1    
   208  105  107 1    
   209  105  226 1    
   210  106  227 1    
   211  106  228 1    
   212  106  229 1    
   213  107  108 2    
   214  107  109 am   BACKBONE|DICT|INTERRES
   215  109  110 1    
   216  109  230 1    
   217  110  111 1    
   218  110  112 1    
   219  110  231 1    
   220  111  232 1    
   221  111  233 1    
   222  111  234 1    
   223  112  113 2    
   224  112  114 am   BACKBONE|DICT|INTERRES
   225  114  115 1    
   226  114  235 1    
   227  115  116 1    
   228  115  117 1    
   229  115  236 1    
   230  116  237 1    
   231  116  238 1    
   232  116  239 1    
   233  117  118 2    
   234  117  119 am   BACKBONE|DICT|INTERRES
   235  119  120 1    
   236  119  240 1    
   237  120  121 1    
   238  120  124 1    
   239  120  241 1    
   240  121  122 am   BACKBONE|DICT|INTERRES
   241  121  123 2    
   242  122  242 1    
   243  122  243 1    
   244  124  125 1    
   245  124  244 1    
   246  124  245 1    
   247  125  126 1    
   248  126  246 1    
   249  126  247 1    
@<TRIPOS>SUBSTRUCTURE
     1 UNK         1 GROUP             0       ****    0 ROOT    
