@<TRIPOS>MOLECULE
3R540
247   249    1
SMALL
USER_CHARGES


@<TRIPOS>ATOM
      1 CA          3.9464  -15.0887  -44.1349 C.3       0 UNK        -0.1800 
      2 C           3.4121  -13.9786  -45.0245 C.2       0 UNK         0.5000 
      3 O           3.2069  -12.8593  -44.5580 O.2       0 UNK        -0.5000 
      4 N           3.2169  -14.2730  -46.3163 N.am      1 UNK        -0.5000 
      5 CA          2.6534  -13.3634  -47.3240 C.3       1 UNK         0.1400 
      6 C6          2.1476  -14.1248  -48.5722 C.3       23 UNK        -0.0398 
      7 S7          3.4068  -15.1560  -49.4009 S.3       23 UNK        -0.2404 
      8 C8          2.5132  -15.6383  -50.9142 C.3       23 UNK        -0.0205 
      9 C9          1.4690  -16.7144  -50.6485 C.ar      23 UNK        -0.0193 
     10 C10         0.1803  -16.3631  -50.2353 C.ar      23 UNK        -0.1150 
     11 C11        -0.7832  -17.3455  -49.9914 C.ar      23 UNK        -0.0193 
     12 C12        -0.4506  -18.6904  -50.1718 C.ar      23 UNK        -0.1150 
     13 C13         0.8277  -19.0564  -50.6043 C.ar      23 UNK        -0.0193 
     14 C14         1.7844  -18.0638  -50.8367 C.ar      23 UNK        -0.1150 
     15 C15         1.1619  -20.5228  -50.8450 C.3       23 UNK        -0.0205 
     16 S16         2.3784  -21.1837  -49.6585 S.3       23 UNK        -0.2404 
     17 C17         1.5350  -20.9367  -48.0601 C.3       23 UNK        -0.0398 
     18 CA          0.8268  -22.1986  -47.5129 C.3       11 UNK         0.1400 
     19 N           0.5163  -22.0476  -46.0901 N.am      11 UNK        -0.5000 
     20 C           0.0175  -22.9993  -45.2905 C.2       10 UNK         0.5000 
     21 O          -0.1835  -24.1569  -45.6490 O.2       10 UNK        -0.5000 
     22 CA         -0.3759  -22.5710  -43.8649 C.3       10 UNK         0.1400 
     23 CB          0.8439  -22.5769  -42.9320 C.3       10 UNK        -0.1800 
     24 N          -1.0177  -21.2551  -43.8425 N.am      10 UNK        -0.5000 
     25 C          -2.2013  -20.9845  -44.4133 C.2       9 UNK         0.5000 
     26 O          -2.9036  -21.8310  -44.9651 O.2       9 UNK        -0.5000 
     27 CA         -2.6460  -19.5125  -44.4170 C.3       9 UNK         0.1400 
     28 CB         -3.3475  -19.1443  -43.1015 C.3       9 UNK        -0.1800 
     29 N          -1.5186  -18.6092  -44.6464 N.am      9 UNK        -0.5000 
     30 C          -0.8940  -18.4796  -45.8268 C.2       8 UNK         0.5000 
     31 O          -1.2338  -19.0822  -46.8453 O.2       8 UNK        -0.5000 
     32 CA          0.3455  -17.5629  -45.8559 C.3       8 UNK         0.1400 
     33 CB         -0.0793  -16.1044  -46.0765 C.3       8 UNK        -0.1800 
     34 N           1.1406  -17.6622  -44.6269 N.am      8 UNK        -0.5000 
     35 C           1.7736  -18.7812  -44.2386 C.2       7 UNK         0.5000 
     36 O           1.8144  -19.7976  -44.9289 O.2       7 UNK        -0.5000 
     37 CA          2.4226  -18.8195  -42.8395 C.3       7 UNK         0.1400 
     38 CB          3.9547  -18.7802  -42.9332 C.3       7 UNK        -0.1800 
     39 N           1.9620  -17.7752  -41.9257 N.am      7 UNK        -0.5000 
     40 C           0.7088  -17.6506  -41.4697 C.2       6 UNK         0.5000 
     41 O          -0.2077  -18.4107  -41.7890 O.2       6 UNK        -0.5000 
     42 CA          0.4100  -16.4538  -40.5430 C.3       6 UNK         0.1400 
     43 CB          1.6682  -15.6924  -40.0665 C.3       6 UNK        -0.1800 
     44 N          -0.5383  -15.5186  -41.1554 N.am      6 UNK        -0.5000 
     45 C          -0.4215  -14.9109  -42.3459 C.2       5 UNK         0.5000 
     46 O           0.5150  -15.1084  -43.1236 O.2       5 UNK        -0.5000 
     47 CA         -1.5554  -13.9438  -42.7583 C.3       5 UNK         0.1400 
     48 CB         -2.4660  -13.5056  -41.5886 C.3       5 UNK        -0.1800 
     49 N          -1.0656  -12.7659  -43.4842 N.am      5 UNK        -0.5000 
     50 C          -0.1662  -11.8691  -43.0544 C.2       4 UNK         0.5000 
     51 O           0.3949  -11.9093  -41.9555 O.2       4 UNK        -0.5000 
     52 CA          0.1216  -10.6969  -44.0020 C.3       4 UNK         0.1400 
     53 CB         -0.8511   -9.5312  -43.7434 C.3       4 UNK        -0.1800 
     54 N           1.4989  -10.2670  -43.7977 N.am      4 UNK        -0.5000 
     55 C           2.2317   -9.5542  -44.6582 C.2       3 UNK         0.5000 
     56 O           1.7823   -9.0789  -45.7023 O.2       3 UNK        -0.5000 
     57 CA          3.7252   -9.3698  -44.3353 C.3       3 UNK         0.1400 
     58 CB          4.1023   -9.6960  -42.8761 C.3       3 UNK        -0.1800 
     59 N           4.4570  -10.2630  -45.2233 N.am      3 UNK        -0.5000 
     60 C           5.2319   -9.8912  -46.2509 C.2       2 UNK         0.5000 
     61 O           5.5587   -8.7257  -46.4790 O.2       2 UNK        -0.5000 
     62 CA          5.7109  -11.0115  -47.2008 C.3       2 UNK         0.1400 
     63 CB          7.1236  -11.4774  -46.8170 C.3       2 UNK        -0.1800 
     64 N           4.8131  -12.1689  -47.2050 N.am      2 UNK        -0.5000 
     65 C           3.5613  -12.1649  -47.6866 C.2       1 UNK         0.5000 
     66 O           3.0985  -11.2405  -48.3559 O.2       1 UNK        -0.5000 
     67 C          -0.4288  -22.5655  -48.3333 C.2       11 UNK         0.5000 
     68 O          -0.3888  -23.5243  -49.1050 O.2       11 UNK        -0.5000 
     69 N          -1.5334  -21.8345  -48.1174 N.am      12 UNK        -0.5000 
     70 CA         -2.8318  -22.1033  -48.7418 C.3       12 UNK         0.1400 
     71 CB         -3.8166  -20.9804  -48.3865 C.3       12 UNK        -0.1800 
     72 C          -3.4100  -23.4780  -48.3518 C.2       12 UNK         0.5000 
     73 O          -3.9385  -24.1815  -49.2141 O.2       12 UNK        -0.5000 
     74 N          -3.2697  -23.8480  -47.0701 N.am      13 UNK        -0.5000 
     75 CA         -3.6704  -25.1464  -46.5276 C.3       13 UNK         0.1400 
     76 CB         -3.6156  -25.1090  -44.9935 C.3       13 UNK        -0.1800 
     77 C          -2.8275  -26.3107  -47.0789 C.2       13 UNK         0.5000 
     78 O          -3.3909  -27.3500  -47.4195 O.2       13 UNK        -0.5000 
     79 N          -1.5072  -26.1131  -47.2028 N.am      14 UNK        -0.5000 
     80 CA         -0.5696  -27.0673  -47.8042 C.3       14 UNK         0.1400 
     81 CB          0.8724  -26.5892  -47.5774 C.3       14 UNK        -0.1800 
     82 C          -0.8369  -27.3003  -49.3032 C.2       14 UNK         0.5000 
     83 O          -0.6952  -28.4261  -49.7809 O.2       14 UNK        -0.5000 
     84 N          -1.2719  -26.2437  -50.0018 N.am      15 UNK        -0.5000 
     85 CA         -1.7558  -26.2828  -51.3826 C.3       15 UNK         0.1400 
     86 CB         -1.6355  -24.8727  -51.9815 C.3       15 UNK        -0.1800 
     87 C          -3.2013  -26.8149  -51.5117 C.2       15 UNK         0.5000 
     88 O          -3.7141  -26.8864  -52.6294 O.2       15 UNK        -0.5000 
     89 N          -3.8491  -27.1473  -50.3824 N.am      16 UNK        -0.5000 
     90 CA         -5.2133  -27.6733  -50.2391 C.3       16 UNK         0.1400 
     91 CB         -5.2941  -29.1010  -50.8173 C.3       16 UNK        -0.1800 
     92 C          -6.3044  -26.7434  -50.8114 C.2       16 UNK         0.5000 
     93 O          -7.3787  -27.2177  -51.1841 O.2       16 UNK        -0.5000 
     94 N          -5.9910  -25.4419  -50.9064 N.am      17 UNK        -0.5000 
     95 CA         -6.7495  -24.3843  -51.5808 C.3       17 UNK         0.1400 
     96 CB         -8.0540  -24.0796  -50.8167 C.3       17 UNK        -0.1800 
     97 C          -6.9873  -24.6348  -53.0906 C.2       17 UNK         0.5000 
     98 O          -7.8557  -23.9899  -53.6801 O.2       17 UNK        -0.5000 
     99 N          -6.2115  -25.5412  -53.7069 N.am      18 UNK        -0.5000 
    100 CA        -6.2566  -25.8289  -55.1439 C.3       18 UNK         0.1400 
    101 CB        -5.6536  -27.2179  -55.4023 C.3       18 UNK        -0.1800 
    102 C         -5.5204  -24.7543  -55.9653 C.2       18 UNK         0.5000 
    103 O         -5.8385  -24.5497  -57.1374 O.2       18 UNK        -0.5000 
    104 N         -4.5693  -24.0753  -55.3196 N.am      19 UNK        -0.5000 
    105 CA        -3.8554  -22.9020  -55.7935 C.3       19 UNK         0.1400 
    106 CB        -2.5662  -23.3342  -56.5112 C.3       19 UNK        -0.1800 
    107 C         -3.5471  -22.0387  -54.5632 C.2       19 UNK         0.5000 
    108 O         -3.4846  -22.5706  -53.4512 O.2       19 UNK        -0.5000 
    109 N         -3.3606  -20.7308  -54.7861 N.am      20 UNK        -0.5000 
    110 CA        -3.0013  -19.7171  -53.7846 C.3       20 UNK         0.1400 
    111 CB        -1.5444  -19.9186  -53.3264 C.3       20 UNK        -0.1800 
    112 C         -3.9972  -19.6307  -52.6052 C.2       20 UNK         0.5000 
    113 O         -3.5960  -19.4542  -51.4541 O.2       20 UNK        -0.5000 
    114 N         -5.2931  -19.7587  -52.9175 N.am      21 UNK        -0.5000 
    115 CA        -6.4024  -19.6735  -51.9696 C.3       21 UNK         0.1400 
    116 CB        -7.5989  -20.4519  -52.5435 C.3       21 UNK        -0.1800 
    117 C         -6.7402  -18.2009  -51.6645 C.2       21 UNK         0.5000 
    118 O         -7.7710  -17.6948  -52.1127 O.2       21 UNK        -0.5000 
    119 N         -5.8272  -17.5297  -50.9541 N.am      22 UNK        -0.5000 
    120 CA        -5.9050  -16.1128  -50.5663 C.3       22 UNK         0.1400 
    121 C         -7.1625  -15.7695  -49.7172 C.2       22 UNK         0.5000 
    122 N         -7.7796  -14.6183  -49.9468 N.am      22 UNK        -0.7600 
    123 O         -7.5532  -16.5151  -48.8215 O.2       22 UNK        -0.5000 
    124 C124       -4.6278  -15.6528  -49.8192 C.3       23 UNK        -0.0398 
    125 S125       -3.0855  -15.9752  -50.7440 S.3       23 UNK        -0.2404 
    126 C126       -2.1739  -16.9569  -49.5120 C.3       23 UNK        -0.0205 
    127 H127        3.2248  -15.3211  -43.3526 H         1 UNK         0.0600 
    128 H128        4.8777  -14.7780  -43.6617 H         1 UNK         0.0600 
    129 H129        4.1387  -15.9957  -44.7074 H         1 UNK         0.0600 
    130 H130        3.4431  -15.1973  -46.6561 H         1 UNK         0.3000 
    131 H131        1.7709  -12.9127  -46.8639 H         1 UNK         0.0600 
    132 H132        1.7162  -13.4312  -49.2963 H         1 UNK         0.0800 
    133 H133        1.3319  -14.7791  -48.2701 H         1 UNK         0.0800 
    134 H134        3.2382  -16.0007  -51.6446 H         1 UNK         0.0800 
    135 H135        2.0459  -14.7619  -51.3656 H         1 UNK         0.0800 
    136 H136       -0.0790  -15.3223  -50.1038 H         1 UNK         0.1150 
    137 H137       -1.1948  -19.4530  -49.9878 H         1 UNK         0.1150 
    138 H138        2.7749  -18.3445  -51.1664 H         1 UNK         0.1150 
    139 H139        0.2597  -21.1352  -50.8141 H         1 UNK         0.0800 
    140 H140        1.5624  -20.6316  -51.8537 H         1 UNK         0.0800 
    141 H141        0.8510  -20.0908  -48.1093 H         1 UNK         0.0800 
    142 H142        2.3160  -20.6329  -47.3627 H         1 UNK         0.0800 
    143 H143        1.5230  -23.0364  -47.5908 H         1 UNK         0.0600 
    144 H144        0.7266  -21.1410  -45.6822 H         1 UNK         0.3000 
    145 H145       -1.0956  -23.2977  -43.4829 H         1 UNK         0.0600 
    146 H146        0.5774  -22.2505  -41.9266 H         1 UNK         0.0600 
    147 H147        1.2591  -23.5820  -42.8485 H         1 UNK         0.0600 
    148 H148        1.6395  -21.9293  -43.2988 H         1 UNK         0.0600 
    149 H149       -0.5081  -20.4989  -43.4090 H         1 UNK         0.3000 
    150 H150       -3.3627  -19.3810  -45.2307 H         1 UNK         0.0600 
    151 H151       -4.2277  -19.7689  -42.9440 H         1 UNK         0.0600 
    152 H152       -3.6819  -18.1068  -43.1092 H         1 UNK         0.0600 
    153 H153       -2.6932  -19.2798  -42.2400 H         1 UNK         0.0600 
    154 H154       -1.1406  -18.1386  -43.8342 H         1 UNK         0.3000 
    155 H155        0.9778  -17.8669  -46.6931 H         1 UNK         0.0600 
    156 H156       -0.8615  -15.7989  -45.3813 H         1 UNK         0.0600 
    157 H157       -0.4636  -15.9613  -47.0844 H         1 UNK         0.0600 
    158 H158        0.7581  -15.4214  -45.9491 H         1 UNK         0.0600 
    159 H159        1.1206  -16.8587  -44.0066 H         1 UNK         0.3000 
    160 H160        2.1461  -19.7769  -42.3946 H         1 UNK         0.0600 
    161 H161        4.3265  -19.5554  -43.6048 H         1 UNK         0.0600 
    162 H162        4.4119  -18.9526  -41.9587 H         1 UNK         0.0600 
    163 H163        4.3160  -17.8235  -43.3057 H         1 UNK         0.0600 
    164 H164        2.6457  -17.0908  -41.6380 H         1 UNK         0.3000 
    165 H165       -0.0811  -16.8679  -39.6614 H         1 UNK         0.0600 
    166 H166        1.3996  -14.9121  -39.3543 H         1 UNK         0.0600 
    167 H167        2.3669  -16.3587  -39.5590 H         1 UNK         0.0600 
    168 H168        2.1978  -15.2110  -40.8897 H         1 UNK         0.0600 
    169 H169       -1.3619  -15.3188  -40.6061 H         1 UNK         0.3000 
    170 H170       -2.1742  -14.4979  -43.4653 H         1 UNK         0.0600 
    171 H171       -2.9914  -14.3548  -41.1503 H         1 UNK         0.0600 
    172 H172       -1.9012  -13.0137  -40.7956 H         1 UNK         0.0600 
    173 H173       -3.2296  -12.8067  -41.9304 H         1 UNK         0.0600 
    174 H174       -1.4477  -12.6471  -44.4115 H         1 UNK         0.3000 
    175 H175        0.0112  -11.0457  -45.0311 H         1 UNK         0.0600 
    176 H176       -0.7433   -9.1380  -42.7319 H         1 UNK         0.0600 
    177 H177       -0.6857   -8.7103  -44.4410 H         1 UNK         0.0600 
    178 H178       -1.8866   -9.8521  -43.8629 H         1 UNK         0.0600 
    179 H179        1.9381  -10.6735  -42.9808 H         1 UNK         0.3000 
    180 H180        3.9755   -8.3252  -44.5308 H         1 UNK         0.0600 
    181 H181        3.9354  -10.7461  -42.6319 H         1 UNK         0.0600 
    182 H182        3.5259   -9.0906  -42.1754 H         1 UNK         0.0600 
    183 H183        5.1557   -9.4827  -42.6938 H         1 UNK         0.0600 
    184 H184        4.1991  -11.2419  -45.1394 H         1 UNK         0.3000 
    185 H185        5.7459  -10.5996  -48.2115 H         1 UNK         0.0600 
    186 H186        7.8262  -10.6431  -46.8297 H         1 UNK         0.0600 
    187 H187        7.1466  -11.9109  -45.8163 H         1 UNK         0.0600 
    188 H188        7.4963  -12.2255  -47.5169 H         1 UNK         0.0600 
    189 H189        5.1128  -12.9780  -46.6812 H         1 UNK         0.3000 
    190 H190       -1.4849  -21.0387  -47.4897 H         1 UNK         0.3000 
    191 H191       -2.6875  -22.0967  -49.8246 H         1 UNK         0.0600 
    192 H192       -4.0067  -20.9311  -47.3142 H         1 UNK         0.0600 
    193 H193       -4.7743  -21.1301  -48.8865 H         1 UNK         0.0600 
    194 H194       -3.4350  -20.0106  -48.7020 H         1 UNK         0.0600 
    195 H195       -2.8783  -23.1822  -46.4108 H         1 UNK         0.3000 
    196 H196       -4.7072  -25.3220  -46.8223 H         1 UNK         0.0600 
    197 H197       -3.9465  -26.0571  -44.5680 H         1 UNK         0.0600 
    198 H198       -4.2647  -24.3292  -44.5949 H         1 UNK         0.0600 
    199 H199       -2.6056  -24.9211  -44.6299 H         1 UNK         0.0600 
    200 H200       -1.1032  -25.2552  -46.8339 H         1 UNK         0.3000 
    201 H201       -0.6944  -28.0243  -47.2937 H         1 UNK         0.0600 
    202 H202        1.0967  -26.5059  -46.5139 H         1 UNK         0.0600 
    203 H203        1.0504  -25.6152  -48.0339 H         1 UNK         0.0600 
    204 H204        1.5893  -27.2901  -48.0067 H         1 UNK         0.0600 
    205 H205       -1.2933  -25.3382  -49.5435 H         1 UNK         0.3000 
    206 H206       -1.1140  -26.9511  -51.9598 H         1 UNK         0.0600 
    207 H207       -0.6118  -24.5030  -51.9224 H         1 UNK         0.0600 
    208 H208       -1.9218  -24.8656  -53.0339 H         1 UNK         0.0600 
    209 H209       -2.2768  -24.1598  -51.4622 H         1 UNK         0.0600 
    210 H210       -3.3556  -27.0267  -49.5066 H         1 UNK         0.3000 
    211 H211       -5.4076  -27.7379  -49.1682 H         1 UNK         0.0600 
    212 H212       -5.1776  -29.1048  -51.9016 H         1 UNK         0.0600 
    213 H213       -6.2548  -29.5642  -50.5895 H         1 UNK         0.0600 
    214 H214       -4.5197  -29.7410  -50.3942 H         1 UNK         0.0600 
    215 H215       -5.1038  -25.1458  -50.5075 H         1 UNK         0.3000 
    216 H216       -6.1217  -23.4935  -51.5259 H         1 UNK         0.0600 
    217 H217       -8.5529  -23.1993  -51.2229 H         1 UNK         0.0600 
    218 H218       -7.8549  -23.8794  -49.7639 H         1 UNK         0.0600 
    219 H219       -8.7595  -24.9088  -50.8738 H         1 UNK         0.0600 
    220 H220       -5.5002  -26.0300  -53.1722 H         1 UNK         0.3000 
    221 H221       -7.2992  -25.8453  -55.4683 H         1 UNK         0.0600 
    222 H222       -4.5939  -27.2516  -55.1474 H         1 UNK         0.0600 
    223 H223       -6.1636  -27.9849  -54.8191 H         1 UNK         0.0600 
    224 H224       -5.7455  -27.4919  -56.4539 H         1 UNK         0.0600 
    225 H225       -4.4034  -24.2799  -54.3417 H         1 UNK         0.3000 
    226 H226       -4.4903  -22.3324  -56.4755 H         1 UNK         0.0600 
    227 H227       -2.7873  -23.9612  -57.3752 H         1 UNK         0.0600 
    228 H228       -2.0089  -22.4686  -56.8710 H         1 UNK         0.0600 
    229 H229       -1.9083  -23.8978  -55.8482 H         1 UNK         0.0600 
    230 H230       -3.4458  -20.3901  -55.7338 H         1 UNK         0.3000 
    231 H231       -3.0528  -18.7535  -54.2933 H         1 UNK         0.0600 
    232 H232       -0.8717  -20.0373  -54.1756 H         1 UNK         0.0600 
    233 H233       -1.4389  -20.7959  -52.6873 H         1 UNK         0.0600 
    234 H234       -1.2001  -19.0512  -52.7649 H         1 UNK         0.0600 
    235 H235       -5.5412  -19.8806  -53.8880 H         1 UNK         0.3000 
    236 H236       -6.1135  -20.1531  -51.0317 H         1 UNK         0.0600 
    237 H237       -8.4410  -20.4414  -51.8506 H         1 UNK         0.0600 
    238 H238       -7.9430  -20.0307  -53.4889 H         1 UNK         0.0600 
    239 H239       -7.3369  -21.4937  -52.7211 H         1 UNK         0.0600 
    240 H240       -4.9743  -18.0158  -50.7025 H         1 UNK         0.3000 
    241 H241       -5.9679  -15.5458  -51.4971 H         1 UNK         0.0600 
    242 H242       -8.5867  -14.3768  -49.3925 H         1 UNK         0.3800 
    243 H243       -7.4730  -13.9870  -50.6713 H         1 UNK         0.3800 
    244 H244       -4.6724  -14.5798  -49.6241 H         1 UNK         0.0800 
    245 H245       -4.5745  -16.1327  -48.8402 H         1 UNK         0.0800 
    246 H246       -2.7547  -17.8464  -49.2673 H         1 UNK         0.0800 
    247 H247       -2.0898  -16.3826  -48.5906 H         1 UNK         0.0800 
@<TRIPOS>BOND
     1    1    2 1    
     2    1  127 1    
     3    1  128 1    
     4    1  129 1    
     5    2    3 2    
     6    2    4 am   BACKBONE|DICT|INTERRES
     7    4    5 1    
     8    4  130 1    
     9    5    6 1    
    10    5   65 1    
    11    5  131 1    
    12    6    7 1    
    13    6  132 1    
    14    6  133 1    
    15    7    8 1    
    16    8    9 1    
    17    8  134 1    
    18    8  135 1    
    19    9   10 ar   
    20    9   14 ar   
    21   10   11 ar   
    22   10  136 1    
    23   11   12 ar   
    24   11  126 1    
    25   12   13 ar   
    26   12  137 1    
    27   13   14 ar   
    28   13   15 1    
    29   14  138 1    
    30   15   16 1    
    31   15  139 1    
    32   15  140 1    
    33   16   17 1    
    34   17   18 1    
    35   17  141 1    
    36   17  142 1    
    37   18   19 1    
    38   18   67 1    
    39   18  143 1    
    40   19   20 am   BACKBONE|DICT|INTERRES
    41   19  144 1    
    42   20   21 2    
    43   20   22 1    
    44   22   23 1    
    45   22   24 1    
    46   22  145 1    
    47   23  146 1    
    48   23  147 1    
    49   23  148 1    
    50   24   25 am   BACKBONE|DICT|INTERRES
    51   24  149 1    
    52   25   26 2    
    53   25   27 1    
    54   27   28 1    
    55   27   29 1    
    56   27  150 1    
    57   28  151 1    
    58   28  152 1    
    59   28  153 1    
    60   29   30 am   BACKBONE|DICT|INTERRES
    61   29  154 1    
    62   30   31 2    
    63   30   32 1    
    64   32   33 1    
    65   32   34 1    
    66   32  155 1    
    67   33  156 1    
    68   33  157 1    
    69   33  158 1    
    70   34   35 am   BACKBONE|DICT|INTERRES
    71   34  159 1    
    72   35   36 2    
    73   35   37 1    
    74   37   38 1    
    75   37   39 1    
    76   37  160 1    
    77   38  161 1    
    78   38  162 1    
    79   38  163 1    
    80   39   40 am   BACKBONE|DICT|INTERRES
    81   39  164 1    
    82   40   41 2    
    83   40   42 1    
    84   42   43 1    
    85   42   44 1    
    86   42  165 1    
    87   43  166 1    
    88   43  167 1    
    89   43  168 1    
    90   44   45 am   BACKBONE|DICT|INTERRES
    91   44  169 1    
    92   45   46 2    
    93   45   47 1    
    94   47   48 1    
    95   47   49 1    
    96   47  170 1    
    97   48  171 1    
    98   48  172 1    
    99   48  173 1    
   100   49   50 am   BACKBONE|DICT|INTERRES
   101   49  174 1    
   102   50   51 2    
   103   50   52 1    
   104   52   53 1    
   105   52   54 1    
   106   52  175 1    
   107   53  176 1    
   108   53  177 1    
   109   53  178 1    
   110   54   55 am   BACKBONE|DICT|INTERRES
   111   54  179 1    
   112   55   56 2    
   113   55   57 1    
   114   57   58 1    
   115   57   59 1    
   116   57  180 1    
   117   58  181 1    
   118   58  182 1    
   119   58  183 1    
   120   59   60 am   BACKBONE|DICT|INTERRES
   121   59  184 1    
   122   60   61 2    
   123   60   62 1    
   124   62   63 1    
   125   62   64 1    
   126   62  185 1    
   127   63  186 1    
   128   63  187 1    
   129   63  188 1    
   130   64   65 am   BACKBONE|DICT|INTERRES
   131   64  189 1    
   132   65   66 2    
   133   67   68 2    
   134   67   69 am   BACKBONE|DICT|INTERRES
   135   69   70 1    
   136   69  190 1    
   137   70   71 1    
   138   70   72 1    
   139   70  191 1    
   140   71  192 1    
   141   71  193 1    
   142   71  194 1    
   143   72   73 2    
   144   72   74 am   BACKBONE|DICT|INTERRES
   145   74   75 1    
   146   74  195 1    
   147   75   76 1    
   148   75   77 1    
   149   75  196 1    
   150   76  197 1    
   151   76  198 1    
   152   76  199 1    
   153   77   78 2    
   154   77   79 am   BACKBONE|DICT|INTERRES
   155   79   80 1    
   156   79  200 1    
   157   80   81 1    
   158   80   82 1    
   159   80  201 1    
   160   81  202 1    
   161   81  203 1    
   162   81  204 1    
   163   82   83 2    
   164   82   84 am   BACKBONE|DICT|INTERRES
   165   84   85 1    
   166   84  205 1    
   167   85   86 1    
   168   85   87 1    
   169   85  206 1    
   170   86  207 1    
   171   86  208 1    
   172   86  209 1    
   173   87   88 2    
   174   87   89 am   BACKBONE|DICT|INTERRES
   175   89   90 1    
   176   89  210 1    
   177   90   91 1    
   178   90   92 1    
   179   90  211 1    
   180   91  212 1    
   181   91  213 1    
   182   91  214 1    
   183   92   93 2    
   184   92   94 am   BACKBONE|DICT|INTERRES
   185   94   95 1    
   186   94  215 1    
   187   95   96 1    
   188   95   97 1    
   189   95  216 1    
   190   96  217 1    
   191   96  218 1    
   192   96  219 1    
   193   97   98 2    
   194   97   99 am   BACKBONE|DICT|INTERRES
   195   99  100 1    
   196   99  220 1    
   197  100  101 1    
   198  100  102 1    
   199  100  221 1    
   200  101  222 1    
   201  101  223 1    
   202  101  224 1    
   203  102  103 2    
   204  102  104 am   BACKBONE|DICT|INTERRES
   205  104  105 1    
   206  104  225 1    
   207  105  106 1    
   208  105  107 1    
   209  105  226 1    
   210  106  227 1    
   211  106  228 1    
   212  106  229 1    
   213  107  108 2    
   214  107  109 am   BACKBONE|DICT|INTERRES
   215  109  110 1    
   216  109  230 1    
   217  110  111 1    
   218  110  112 1    
   219  110  231 1    
   220  111  232 1    
   221  111  233 1    
   222  111  234 1    
   223  112  113 2    
   224  112  114 am   BACKBONE|DICT|INTERRES
   225  114  115 1    
   226  114  235 1    
   227  115  116 1    
   228  115  117 1    
   229  115  236 1    
   230  116  237 1    
   231  116  238 1    
   232  116  239 1    
   233  117  118 2    
   234  117  119 am   BACKBONE|DICT|INTERRES
   235  119  120 1    
   236  119  240 1    
   237  120  121 1    
   238  120  124 1    
   239  120  241 1    
   240  121  122 am   BACKBONE|DICT|INTERRES
   241  121  123 2    
   242  122  242 1    
   243  122  243 1    
   244  124  125 1    
   245  124  244 1    
   246  124  245 1    
   247  125  126 1    
   248  126  246 1    
   249  126  247 1    
@<TRIPOS>SUBSTRUCTURE
     1 UNK         1 GROUP             0       ****    0 ROOT    
