@<TRIPOS>MOLECULE
3R540
247   249    1
SMALL
USER_CHARGES


@<TRIPOS>ATOM
      1 CA         -2.9391  -16.3513  -47.2389 C.3       0 UNK        -0.1800 
      2 C          -1.8873  -15.4751  -47.9050 C.2       0 UNK         0.5000 
      3 O          -0.7150  -15.5497  -47.5372 O.2       0 UNK        -0.5000 
      4 N          -2.3079  -14.6364  -48.8638 N.am      1 UNK        -0.5000 
      5 CA         -1.5158  -13.6927  -49.6735 C.3       1 UNK         0.1400 
      6 C6         -0.4223  -14.3645  -50.5461 C.3       23 UNK        -0.0398 
      7 S7         -1.1321  -15.3939  -51.8747 S.3       23 UNK        -0.2404 
      8 C8         -0.1003  -16.8914  -51.7952 C.3       23 UNK        -0.0205 
      9 C9         -0.6705  -17.9235  -50.8366 C.ar      23 UNK        -0.0193 
     10 C10        -1.7335  -18.7338  -51.2429 C.ar      23 UNK        -0.1150 
     11 C11        -2.2620  -19.7002  -50.3841 C.ar      23 UNK        -0.0193 
     12 C12        -1.7074  -19.8651  -49.1127 C.ar      23 UNK        -0.1150 
     13 C13        -0.6546  -19.0496  -48.6888 C.ar      23 UNK        -0.0193 
     14 C14        -0.1350  -18.0840  -49.5560 C.ar      23 UNK        -0.1150 
     15 C15        -0.1056  -19.1949  -47.2819 C.3       23 UNK        -0.0205 
     16 S16         1.3229  -20.3198  -47.2399 S.3       23 UNK        -0.2404 
     17 C17         1.3309  -20.7531  -45.4664 C.3       23 UNK        -0.0398 
     18 CA          0.7525  -22.1450  -45.0956 C.3       11 UNK         0.1400 
     19 N           0.7599  -22.3303  -43.6413 N.am      11 UNK        -0.5000 
     20 C           0.5615  -23.4915  -43.0015 C.2       10 UNK         0.5000 
     21 O           0.2182  -24.5299  -43.5656 O.2       10 UNK        -0.5000 
     22 CA          0.7857  -23.4915  -41.4801 C.3       10 UNK         0.1400 
     23 CB          2.2885  -23.4941  -41.1576 C.3       10 UNK        -0.1800 
     24 N           0.1671  -22.3193  -40.8659 N.am      10 UNK        -0.5000 
     25 C          -0.9579  -22.3404  -40.1385 C.2       9 UNK         0.5000 
     26 O          -1.5384  -23.3729  -39.8005 O.2       9 UNK        -0.5000 
     27 CA         -1.5576  -20.9752  -39.7351 C.3       9 UNK         0.1400 
     28 CB         -1.0737  -20.5705  -38.3344 C.3       9 UNK        -0.1800 
     29 N          -1.2610  -19.8873  -40.6724 N.am      9 UNK        -0.5000 
     30 C          -1.5682  -19.8872  -41.9771 C.2       8 UNK         0.5000 
     31 O          -2.1737  -20.7988  -42.5352 O.2       8 UNK        -0.5000 
     32 CA         -1.0554  -18.7113  -42.8267 C.3       8 UNK         0.1400 
     33 CB         -2.1294  -17.6226  -42.9295 C.3       8 UNK        -0.1800 
     34 N           0.2124  -18.1183  -42.3800 N.am      8 UNK        -0.5000 
     35 C           1.3511  -18.7765  -42.1143 C.2       7 UNK         0.5000 
     36 O           1.4666  -20.0037  -42.1722 O.2       7 UNK        -0.5000 
     37 CA          2.5536  -17.8914  -41.7451 C.3       7 UNK         0.1400 
     38 CB          3.7657  -18.6925  -41.2250 C.3       7 UNK        -0.1800 
     39 N           2.9189  -17.0218  -42.8654 N.am      7 UNK        -0.5000 
     40 C           3.3873  -17.3860  -44.0695 C.2       6 UNK         0.5000 
     41 O           3.6622  -18.5425  -44.3856 O.2       6 UNK        -0.5000 
     42 CA          3.5796  -16.2661  -45.1095 C.3       6 UNK         0.1400 
     43 CB          2.4144  -16.2643  -46.1118 C.3       6 UNK        -0.1800 
     44 N           3.6890  -14.9350  -44.5140 N.am      6 UNK        -0.5000 
     45 C           4.7450  -14.4749  -43.8301 C.2       5 UNK         0.5000 
     46 O           5.7714  -15.1252  -43.6307 O.2       5 UNK        -0.5000 
     47 CA          4.6199  -13.0527  -43.2609 C.3       5 UNK         0.1400 
     48 CB          4.9482  -12.0080  -44.3395 C.3       5 UNK        -0.1800 
     49 N           3.2727  -12.8058  -42.7461 N.am      5 UNK        -0.5000 
     50 C           2.8810  -13.0482  -41.4887 C.2       4 UNK         0.5000 
     51 O           3.6277  -13.4860  -40.6130 O.2       4 UNK        -0.5000 
     52 CA          1.4082  -12.7521  -41.1442 C.3       4 UNK         0.1400 
     53 CB          1.2602  -11.3182  -40.6132 C.3       4 UNK        -0.1800 
     54 N           0.4973  -12.9375  -42.2751 N.am      4 UNK        -0.5000 
     55 C           0.1350  -14.1295  -42.7651 C.2       3 UNK         0.5000 
     56 O           0.5274  -15.2073  -42.3141 O.2       3 UNK        -0.5000 
     57 CA         -0.8178  -14.1246  -43.9752 C.3       3 UNK         0.1400 
     58 CB         -2.2771  -14.0351  -43.5017 C.3       3 UNK        -0.1800 
     59 N          -0.5940  -13.0894  -44.9895 N.am      3 UNK        -0.5000 
     60 C           0.5715  -12.7464  -45.5539 C.2       2 UNK         0.5000 
     61 O           1.6736  -13.1085  -45.1452 O.2       2 UNK        -0.5000 
     62 CA          0.4588  -11.9472  -46.8559 C.3       2 UNK         0.1400 
     63 CB          1.8164  -11.4492  -47.3871 C.3       2 UNK        -0.1800 
     64 N          -0.1550  -12.8494  -47.8194 N.am      2 UNK        -0.5000 
     65 C          -0.9311  -12.5218  -48.8521 C.2       1 UNK         0.5000 
     66 O          -1.2034  -11.3606  -49.1600 O.2       1 UNK        -0.5000 
     67 C          -0.6116  -22.4655  -45.7545 C.2       11 UNK         0.5000 
     68 O          -0.6231  -22.9884  -46.8688 O.2       11 UNK        -0.5000 
     69 N          -1.7363  -22.2223  -45.0610 N.am      12 UNK        -0.5000 
     70 CA         -3.0872  -22.5032  -45.5693 C.3       12 UNK         0.1400 
     71 CB         -4.1388  -21.8807  -44.6395 C.3       12 UNK        -0.1800 
     72 C          -3.3908  -23.9983  -45.8067 C.2       12 UNK         0.5000 
     73 O          -4.3743  -24.3056  -46.4804 O.2       12 UNK        -0.5000 
     74 N          -2.5427  -24.9026  -45.2908 N.am      13 UNK        -0.5000 
     75 CA         -2.5685  -26.3316  -45.6114 C.3       13 UNK         0.1400 
     76 CB         -1.6247  -27.0859  -44.6639 C.3       13 UNK        -0.1800 
     77 C          -2.2001  -26.6176  -47.0824 C.2       13 UNK         0.5000 
     78 O          -2.6811  -27.6020  -47.6445 O.2       13 UNK        -0.5000 
     79 N          -1.3988  -25.7358  -47.6976 N.am      14 UNK        -0.5000 
     80 CA         -1.0781  -25.7350  -49.1230 C.3       14 UNK         0.1400 
     81 CB          0.3781  -25.2722  -49.3113 C.3       14 UNK        -0.1800 
     82 C          -2.0874  -24.8424  -49.8693 C.2       14 UNK         0.5000 
     83 O          -1.7028  -23.8738  -50.5234 O.2       14 UNK        -0.5000 
     84 N          -3.3778  -25.1822  -49.7477 N.am      15 UNK        -0.5000 
     85 CA         -4.5243  -24.4069  -50.2350 C.3       15 UNK         0.1400 
     86 CB         -5.8162  -25.1065  -49.7863 C.3       15 UNK        -0.1800 
     87 C          -4.5531  -24.1571  -51.7574 C.2       15 UNK         0.5000 
     88 O          -5.2473  -23.2457  -52.2030 O.2       15 UNK        -0.5000 
     89 N          -3.8058  -24.9607  -52.5241 N.am      16 UNK        -0.5000 
     90 CA         -3.6555  -24.8420  -53.9730 C.3       16 UNK         0.1400 
     91 CB         -3.2957  -26.2255  -54.5377 C.3       16 UNK        -0.1800 
     92 C          -2.6082  -23.7960  -54.4094 C.2       16 UNK         0.5000 
     93 O          -2.5311  -23.5100  -55.6061 O.2       16 UNK        -0.5000 
     94 N          -1.8093  -23.2579  -53.4730 N.am      17 UNK        -0.5000 
     95 CA         -0.7042  -22.3327  -53.7464 C.3       17 UNK         0.1400 
     96 CB          0.0094  -21.9709  -52.4363 C.3       17 UNK        -0.1800 
     97 C          -1.1305  -21.0600  -54.5046 C.2       17 UNK         0.5000 
     98 O          -2.1700  -20.4715  -54.1934 O.2       17 UNK        -0.5000 
     99 N          -0.3144  -20.6849  -55.5014 N.am      18 UNK        -0.5000 
    100 CA        -0.4940  -19.5526  -56.4188 C.3       18 UNK         0.1400 
    101 CB        -0.2892  -18.2205  -55.6702 C.3       18 UNK        -0.1800 
    102 C         -1.8209  -19.6149  -57.2087 C.2       18 UNK         0.5000 
    103 O         -2.4687  -18.5877  -57.4106 O.2       18 UNK        -0.5000 
    104 N         -2.2027  -20.8340  -57.6225 N.am      19 UNK        -0.5000 
    105 CA        -3.4752  -21.1913  -58.2635 C.3       19 UNK         0.1400 
    106 CB        -3.6159  -20.5250  -59.6488 C.3       19 UNK        -0.1800 
    107 C         -4.6799  -20.9379  -57.3319 C.2       19 UNK         0.5000 
    108 O         -5.7036  -20.4018  -57.7598 O.2       19 UNK        -0.5000 
    109 N         -4.5080  -21.3377  -56.0647 N.am      20 UNK        -0.5000 
    110 CA        -5.4340  -21.2090  -54.9390 C.3       20 UNK         0.1400 
    111 CB        -6.6690  -22.1103  -55.1431 C.3       20 UNK        -0.1800 
    112 C         -5.7950  -19.7458  -54.6188 C.2       20 UNK         0.5000 
    113 O         -6.9684  -19.4263  -54.4141 O.2       20 UNK        -0.5000 
    114 N         -4.7747  -18.8763  -54.5648 N.am      21 UNK        -0.5000 
    115 CA        -4.9245  -17.4327  -54.3352 C.3       21 UNK         0.1400 
    116 CB        -3.5703  -16.7351  -54.5171 C.3       21 UNK        -0.1800 
    117 C         -5.5294  -17.0708  -52.9643 C.2       21 UNK         0.5000 
    118 O         -6.1430  -16.0110  -52.8335 O.2       21 UNK        -0.5000 
    119 N         -5.3662  -17.9642  -51.9821 N.am      22 UNK        -0.5000 
    120 CA        -5.9940  -17.8871  -50.6578 C.3       22 UNK         0.1400 
    121 C         -7.4864  -18.3371  -50.6157 C.2       22 UNK         0.5000 
    122 N         -8.0751  -18.8325  -51.6994 N.am      22 UNK        -0.7600 
    123 O         -8.1334  -18.2133  -49.5794 O.2       22 UNK        -0.5000 
    124 C124       -5.1224  -18.5804  -49.5803 C.3       23 UNK        -0.0398 
    125 S125       -4.9146  -20.3905  -49.7836 S.3       23 UNK        -0.2404 
    126 C126       -3.4314  -20.5612  -50.8367 C.3       23 UNK        -0.0205 
    127 H127       -2.7301  -17.4024  -47.4349 H         1 UNK         0.0600 
    128 H128       -3.9425  -16.1300  -47.6030 H         1 UNK         0.0600 
    129 H129       -2.9261  -16.1971  -46.1601 H         1 UNK         0.0600 
    130 H130       -3.2936  -14.6291  -49.0828 H         1 UNK         0.3000 
    131 H131       -2.2341  -13.2360  -50.3568 H         1 UNK         0.0600 
    132 H132        0.2547  -14.9579  -49.9308 H         1 UNK         0.0800 
    133 H133        0.1986  -13.6099  -51.0326 H         1 UNK         0.0800 
    134 H134       -0.0440  -17.3277  -52.7926 H         1 UNK         0.0800 
    135 H135        0.9243  -16.6311  -51.5256 H         1 UNK         0.0800 
    136 H136       -2.1474  -18.6123  -52.2327 H         1 UNK         0.1150 
    137 H137       -2.1087  -20.6174  -48.4482 H         1 UNK         0.1150 
    138 H138        0.6784  -17.4525  -49.2271 H         1 UNK         0.1150 
    139 H139        0.1814  -18.2190  -46.8885 H         1 UNK         0.0800 
    140 H140       -0.8928  -19.5673  -46.6247 H         1 UNK         0.0800 
    141 H141        0.8244  -19.9659  -44.9132 H         1 UNK         0.0800 
    142 H142        2.3683  -20.7100  -45.1335 H         1 UNK         0.0800 
    143 H143        1.4481  -22.8851  -45.4973 H         1 UNK         0.0600 
    144 H144        1.0458  -21.5210  -43.0953 H         1 UNK         0.3000 
    145 H145        0.3542  -24.4116  -41.0807 H         1 UNK         0.0600 
    146 H146        2.4579  -23.5570  -40.0826 H         1 UNK         0.0600 
    147 H147        2.7853  -24.3502  -41.6160 H         1 UNK         0.0600 
    148 H148        2.7832  -22.5920  -41.5206 H         1 UNK         0.0600 
    149 H149        0.5640  -21.4198  -41.1166 H         1 UNK         0.3000 
    150 H150       -2.6425  -21.0935  -39.7035 H         1 UNK         0.0600 
    151 H151       -1.3012  -21.3468  -37.6026 H         1 UNK         0.0600 
    152 H152       -1.5607  -19.6555  -37.9968 H         1 UNK         0.0600 
    153 H153        0.0045  -20.4060  -38.3142 H         1 UNK         0.0600 
    154 H154       -0.7489  -19.0997  -40.3041 H         1 UNK         0.3000 
    155 H155       -0.8978  -19.1005  -43.8319 H         1 UNK         0.0600 
    156 H156       -1.8823  -16.9113  -43.7147 H         1 UNK         0.0600 
    157 H157       -2.2413  -17.0782  -41.9913 H         1 UNK         0.0600 
    158 H158       -3.1019  -18.0476  -43.1831 H         1 UNK         0.0600 
    159 H159        0.2354  -17.1034  -42.3179 H         1 UNK         0.3000 
    160 H160        2.2262  -17.2344  -40.9379 H         1 UNK         0.0600 
    161 H161        4.1289  -19.4147  -41.9564 H         1 UNK         0.0600 
    162 H162        3.5021  -19.2500  -40.3256 H         1 UNK         0.0600 
    163 H163        4.5929  -18.0310  -40.9680 H         1 UNK         0.0600 
    164 H164        2.6795  -16.0469  -42.7442 H         1 UNK         0.3000 
    165 H165        4.5022  -16.4738  -45.6553 H         1 UNK         0.0600 
    166 H166        1.4563  -16.0996  -45.6169 H         1 UNK         0.0600 
    167 H167        2.5378  -15.4855  -46.8647 H         1 UNK         0.0600 
    168 H168        2.3548  -17.2169  -46.6389 H         1 UNK         0.0600 
    169 H169        2.9061  -14.3036  -44.6747 H         1 UNK         0.3000 
    170 H170        5.3486  -12.9445  -42.4546 H         1 UNK         0.0600 
    171 H171        5.9554  -12.1554  -44.7310 H         1 UNK         0.0600 
    172 H172        4.2574  -12.0634  -45.1818 H         1 UNK         0.0600 
    173 H173        4.9011  -10.9970  -43.9347 H         1 UNK         0.0600 
    174 H174        2.5766  -12.5305  -43.4294 H         1 UNK         0.3000 
    175 H175        1.1116  -13.4399  -40.3491 H         1 UNK         0.0600 
    176 H176        1.5254  -10.5790  -41.3703 H         1 UNK         0.0600 
    177 H177        0.2373  -11.1197  -40.2929 H         1 UNK         0.0600 
    178 H178        1.9075  -11.1520  -39.7511 H         1 UNK         0.0600 
    179 H179        0.1345  -12.1046  -42.7151 H         1 UNK         0.3000 
    180 H180       -0.6794  -15.0806  -44.4828 H         1 UNK         0.0600 
    181 H181       -2.5142  -13.0395  -43.1248 H         1 UNK         0.0600 
    182 H182       -2.4818  -14.7401  -42.6959 H         1 UNK         0.0600 
    183 H183       -2.9695  -14.2603  -44.3130 H         1 UNK         0.0600 
    184 H184       -1.4322  -12.7254  -45.4185 H         1 UNK         0.3000 
    185 H185       -0.1922  -11.0898  -46.6735 H         1 UNK         0.0600 
    186 H186        1.6933  -10.8727  -48.3039 H         1 UNK         0.0600 
    187 H187        2.3064  -10.8026  -46.6583 H         1 UNK         0.0600 
    188 H188        2.4933  -12.2773  -47.6016 H         1 UNK         0.0600 
    189 H189       -0.0652  -13.8433  -47.6091 H         1 UNK         0.3000 
    190 H190       -1.6838  -21.8233  -44.1281 H         1 UNK         0.3000 
    191 H191       -3.1758  -22.0119  -46.5406 H         1 UNK         0.0600 
    192 H192       -3.9951  -20.8042  -44.5455 H         1 UNK         0.0600 
    193 H193       -5.1466  -22.0371  -45.0261 H         1 UNK         0.0600 
    194 H194       -4.0998  -22.3181  -43.6413 H         1 UNK         0.0600 
    195 H195       -1.7549  -24.5766  -44.7446 H         1 UNK         0.3000 
    196 H196       -3.5838  -26.6973  -45.4447 H         1 UNK         0.0600 
    197 H197       -1.6876  -28.1624  -44.8280 H         1 UNK         0.0600 
    198 H198       -1.8783  -26.8999  -43.6201 H         1 UNK         0.0600 
    199 H199       -0.5852  -26.7926  -44.8149 H         1 UNK         0.0600 
    200 H200       -1.1088  -24.9036  -47.1926 H         1 UNK         0.3000 
    201 H201       -1.1624  -26.7445  -49.5302 H         1 UNK         0.0600 
    202 H202        1.0700  -25.9188  -48.7716 H         1 UNK         0.0600 
    203 H203        0.5282  -24.2517  -48.9571 H         1 UNK         0.0600 
    204 H204        0.6621  -25.2978  -50.3640 H         1 UNK         0.0600 
    205 H205       -3.5975  -25.9950  -49.1881 H         1 UNK         0.3000 
    206 H206       -4.4818  -23.4308  -49.7490 H         1 UNK         0.0600 
    207 H207       -5.8579  -25.2010  -48.7010 H         1 UNK         0.0600 
    208 H208       -6.6958  -24.5394  -50.0941 H         1 UNK         0.0600 
    209 H209       -5.9016  -26.1056  -50.2151 H         1 UNK         0.0600 
    210 H210       -3.2657  -25.6815  -52.0692 H         1 UNK         0.3000 
    211 H211       -4.6119  -24.5409  -54.4041 H         1 UNK         0.0600 
    212 H212       -2.3420  -26.5836  -54.1481 H         1 UNK         0.0600 
    213 H213       -3.2163  -26.1974  -55.6253 H         1 UNK         0.0600 
    214 H214       -4.0590  -26.9634  -54.2898 H         1 UNK         0.0600 
    215 H215       -1.9382  -23.5203  -52.5011 H         1 UNK         0.3000 
    216 H216        0.0078  -22.8759  -54.3709 H         1 UNK         0.0600 
    217 H217        0.4508  -22.8525  -51.9713 H         1 UNK         0.0600 
    218 H218       -0.6759  -21.5261  -51.7168 H         1 UNK         0.0600 
    219 H219        0.8149  -21.2556  -52.6070 H         1 UNK         0.0600 
    220 H220        0.5080  -21.2458  -55.6752 H         1 UNK         0.3000 
    221 H221        0.2978  -19.6310  -57.1651 H         1 UNK         0.0600 
    222 H222       -1.0362  -18.0817  -54.8913 H         1 UNK         0.0600 
    223 H223        0.6929  -18.1824  -55.1993 H         1 UNK         0.0600 
    224 H224       -0.3560  -17.3687  -56.3479 H         1 UNK         0.0600 
    225 H225       -1.6103  -21.6159  -57.3781 H         1 UNK         0.3000 
    226 H226       -3.4410  -22.2699  -58.4238 H         1 UNK         0.0600 
    227 H227       -3.7289  -19.4434  -59.5734 H         1 UNK         0.0600 
    228 H228       -2.7474  -20.7294  -60.2746 H         1 UNK         0.0600 
    229 H229       -4.4916  -20.9063  -60.1751 H         1 UNK         0.0600 
    230 H230       -3.6175  -21.7660  -55.8368 H         1 UNK         0.3000 
    231 H231       -4.8899  -21.5745  -54.0695 H         1 UNK         0.0600 
    232 H232       -7.2931  -21.7633  -55.9671 H         1 UNK         0.0600 
    233 H233       -7.2886  -22.1273  -54.2456 H         1 UNK         0.0600 
    234 H234       -6.3779  -23.1390  -55.3528 H         1 UNK         0.0600 
    235 H235       -3.8340  -19.2279  -54.7098 H         1 UNK         0.3000 
    236 H236       -5.6054  -17.0506  -55.0984 H         1 UNK         0.0600 
    237 H237       -2.8347  -17.0983  -53.8016 H         1 UNK         0.0600 
    238 H238       -3.1760  -16.8889  -55.5203 H         1 UNK         0.0600 
    239 H239       -3.6611  -15.6581  -54.3698 H         1 UNK         0.0600 
    240 H240       -4.8671  -18.8158  -52.1854 H         1 UNK         0.3000 
    241 H241       -6.0211  -16.8312  -50.3819 H         1 UNK         0.0600 
    242 H242       -7.5761  -18.9387  -52.5762 H         1 UNK         0.3800 
    243 H243       -9.0426  -19.1080  -51.6475 H         1 UNK         0.3800 
    244 H244       -5.5571  -18.4129  -48.5936 H         1 UNK         0.0800 
    245 H245       -4.1484  -18.0948  -49.5371 H         1 UNK         0.0800 
    246 H246       -3.6991  -20.3440  -51.8709 H         1 UNK         0.0800 
    247 H247       -3.1141  -21.6034  -50.8279 H         1 UNK         0.0800 
@<TRIPOS>BOND
     1    1    2 1    
     2    1  127 1    
     3    1  128 1    
     4    1  129 1    
     5    2    3 2    
     6    2    4 am   BACKBONE|DICT|INTERRES
     7    4    5 1    
     8    4  130 1    
     9    5    6 1    
    10    5   65 1    
    11    5  131 1    
    12    6    7 1    
    13    6  132 1    
    14    6  133 1    
    15    7    8 1    
    16    8    9 1    
    17    8  134 1    
    18    8  135 1    
    19    9   10 ar   
    20    9   14 ar   
    21   10   11 ar   
    22   10  136 1    
    23   11   12 ar   
    24   11  126 1    
    25   12   13 ar   
    26   12  137 1    
    27   13   14 ar   
    28   13   15 1    
    29   14  138 1    
    30   15   16 1    
    31   15  139 1    
    32   15  140 1    
    33   16   17 1    
    34   17   18 1    
    35   17  141 1    
    36   17  142 1    
    37   18   19 1    
    38   18   67 1    
    39   18  143 1    
    40   19   20 am   BACKBONE|DICT|INTERRES
    41   19  144 1    
    42   20   21 2    
    43   20   22 1    
    44   22   23 1    
    45   22   24 1    
    46   22  145 1    
    47   23  146 1    
    48   23  147 1    
    49   23  148 1    
    50   24   25 am   BACKBONE|DICT|INTERRES
    51   24  149 1    
    52   25   26 2    
    53   25   27 1    
    54   27   28 1    
    55   27   29 1    
    56   27  150 1    
    57   28  151 1    
    58   28  152 1    
    59   28  153 1    
    60   29   30 am   BACKBONE|DICT|INTERRES
    61   29  154 1    
    62   30   31 2    
    63   30   32 1    
    64   32   33 1    
    65   32   34 1    
    66   32  155 1    
    67   33  156 1    
    68   33  157 1    
    69   33  158 1    
    70   34   35 am   BACKBONE|DICT|INTERRES
    71   34  159 1    
    72   35   36 2    
    73   35   37 1    
    74   37   38 1    
    75   37   39 1    
    76   37  160 1    
    77   38  161 1    
    78   38  162 1    
    79   38  163 1    
    80   39   40 am   BACKBONE|DICT|INTERRES
    81   39  164 1    
    82   40   41 2    
    83   40   42 1    
    84   42   43 1    
    85   42   44 1    
    86   42  165 1    
    87   43  166 1    
    88   43  167 1    
    89   43  168 1    
    90   44   45 am   BACKBONE|DICT|INTERRES
    91   44  169 1    
    92   45   46 2    
    93   45   47 1    
    94   47   48 1    
    95   47   49 1    
    96   47  170 1    
    97   48  171 1    
    98   48  172 1    
    99   48  173 1    
   100   49   50 am   BACKBONE|DICT|INTERRES
   101   49  174 1    
   102   50   51 2    
   103   50   52 1    
   104   52   53 1    
   105   52   54 1    
   106   52  175 1    
   107   53  176 1    
   108   53  177 1    
   109   53  178 1    
   110   54   55 am   BACKBONE|DICT|INTERRES
   111   54  179 1    
   112   55   56 2    
   113   55   57 1    
   114   57   58 1    
   115   57   59 1    
   116   57  180 1    
   117   58  181 1    
   118   58  182 1    
   119   58  183 1    
   120   59   60 am   BACKBONE|DICT|INTERRES
   121   59  184 1    
   122   60   61 2    
   123   60   62 1    
   124   62   63 1    
   125   62   64 1    
   126   62  185 1    
   127   63  186 1    
   128   63  187 1    
   129   63  188 1    
   130   64   65 am   BACKBONE|DICT|INTERRES
   131   64  189 1    
   132   65   66 2    
   133   67   68 2    
   134   67   69 am   BACKBONE|DICT|INTERRES
   135   69   70 1    
   136   69  190 1    
   137   70   71 1    
   138   70   72 1    
   139   70  191 1    
   140   71  192 1    
   141   71  193 1    
   142   71  194 1    
   143   72   73 2    
   144   72   74 am   BACKBONE|DICT|INTERRES
   145   74   75 1    
   146   74  195 1    
   147   75   76 1    
   148   75   77 1    
   149   75  196 1    
   150   76  197 1    
   151   76  198 1    
   152   76  199 1    
   153   77   78 2    
   154   77   79 am   BACKBONE|DICT|INTERRES
   155   79   80 1    
   156   79  200 1    
   157   80   81 1    
   158   80   82 1    
   159   80  201 1    
   160   81  202 1    
   161   81  203 1    
   162   81  204 1    
   163   82   83 2    
   164   82   84 am   BACKBONE|DICT|INTERRES
   165   84   85 1    
   166   84  205 1    
   167   85   86 1    
   168   85   87 1    
   169   85  206 1    
   170   86  207 1    
   171   86  208 1    
   172   86  209 1    
   173   87   88 2    
   174   87   89 am   BACKBONE|DICT|INTERRES
   175   89   90 1    
   176   89  210 1    
   177   90   91 1    
   178   90   92 1    
   179   90  211 1    
   180   91  212 1    
   181   91  213 1    
   182   91  214 1    
   183   92   93 2    
   184   92   94 am   BACKBONE|DICT|INTERRES
   185   94   95 1    
   186   94  215 1    
   187   95   96 1    
   188   95   97 1    
   189   95  216 1    
   190   96  217 1    
   191   96  218 1    
   192   96  219 1    
   193   97   98 2    
   194   97   99 am   BACKBONE|DICT|INTERRES
   195   99  100 1    
   196   99  220 1    
   197  100  101 1    
   198  100  102 1    
   199  100  221 1    
   200  101  222 1    
   201  101  223 1    
   202  101  224 1    
   203  102  103 2    
   204  102  104 am   BACKBONE|DICT|INTERRES
   205  104  105 1    
   206  104  225 1    
   207  105  106 1    
   208  105  107 1    
   209  105  226 1    
   210  106  227 1    
   211  106  228 1    
   212  106  229 1    
   213  107  108 2    
   214  107  109 am   BACKBONE|DICT|INTERRES
   215  109  110 1    
   216  109  230 1    
   217  110  111 1    
   218  110  112 1    
   219  110  231 1    
   220  111  232 1    
   221  111  233 1    
   222  111  234 1    
   223  112  113 2    
   224  112  114 am   BACKBONE|DICT|INTERRES
   225  114  115 1    
   226  114  235 1    
   227  115  116 1    
   228  115  117 1    
   229  115  236 1    
   230  116  237 1    
   231  116  238 1    
   232  116  239 1    
   233  117  118 2    
   234  117  119 am   BACKBONE|DICT|INTERRES
   235  119  120 1    
   236  119  240 1    
   237  120  121 1    
   238  120  124 1    
   239  120  241 1    
   240  121  122 am   BACKBONE|DICT|INTERRES
   241  121  123 2    
   242  122  242 1    
   243  122  243 1    
   244  124  125 1    
   245  124  244 1    
   246  124  245 1    
   247  125  126 1    
   248  126  246 1    
   249  126  247 1    
@<TRIPOS>SUBSTRUCTURE
     1 UNK         1 GROUP             0       ****    0 ROOT    
