@<TRIPOS>MOLECULE
3R540
247   249    1
SMALL
USER_CHARGES


@<TRIPOS>ATOM
      1 CA         -5.0375  -14.0844  -51.8095 C.3       0 UNK        -0.1800 
      2 C          -3.7501  -14.1827  -51.0026 C.2       0 UNK         0.5000 
      3 O          -2.6602  -14.0609  -51.5620 O.2       0 UNK        -0.5000 
      4 N          -3.8733  -14.3872  -49.6889 N.am      1 UNK        -0.5000 
      5 CA         -2.7712  -14.4735  -48.7361 C.3       1 UNK         0.1400 
      6 C6         -2.1520  -15.8934  -48.7103 C.3       23 UNK        -0.0398 
      7 S7         -0.5138  -15.9491  -47.9131 S.3       23 UNK        -0.2404 
      8 C8          0.6173  -15.9920  -49.3385 C.3       23 UNK        -0.0205 
      9 C9          0.5399  -17.3072  -50.0997 C.ar      23 UNK        -0.0193 
     10 C10         0.0916  -17.3309  -51.4234 C.ar      23 UNK        -0.1150 
     11 C11         0.0324  -18.5347  -52.1312 C.ar      23 UNK        -0.0193 
     12 C12         0.3916  -19.7258  -51.4934 C.ar      23 UNK        -0.1150 
     13 C13         0.8264  -19.7186  -50.1647 C.ar      23 UNK        -0.0193 
     14 C14         0.9236  -18.5014  -49.4826 C.ar      23 UNK        -0.1150 
     15 C15         1.1675  -21.0267  -49.4649 C.3       23 UNK        -0.0205 
     16 S16         0.1553  -21.2614  -47.9698 S.3       23 UNK        -0.2404 
     17 C17         0.2702  -23.0688  -47.7421 C.3       23 UNK        -0.0398 
     18 CA         -0.2894  -23.5921  -46.3918 C.3       11 UNK         0.1400 
     19 N           0.6426  -23.3255  -45.2989 N.am      11 UNK        -0.5000 
     20 C           1.5577  -24.1882  -44.8440 C.2       10 UNK         0.5000 
     21 O           1.6833  -25.3391  -45.2685 O.2       10 UNK        -0.5000 
     22 CA          2.5021  -23.6549  -43.7488 C.3       10 UNK         0.1400 
     23 CB          3.5621  -24.6799  -43.2947 C.3       10 UNK        -0.1800 
     24 N           3.1318  -22.3934  -44.1419 N.am      10 UNK        -0.5000 
     25 C           3.9383  -22.1536  -45.1863 C.2       9 UNK         0.5000 
     26 O           4.3358  -23.0196  -45.9665 O.2       9 UNK        -0.5000 
     27 CA          4.3776  -20.6900  -45.4036 C.3       9 UNK         0.1400 
     28 CB          3.6219  -20.0757  -46.5912 C.3       9 UNK        -0.1800 
     29 N           4.1767  -19.8414  -44.2268 N.am      9 UNK        -0.5000 
     30 C           4.9212  -19.8866  -43.1137 C.2       8 UNK         0.5000 
     31 O           5.9162  -20.6008  -42.9845 O.2       8 UNK        -0.5000 
     32 CA          4.4527  -19.0148  -41.9337 C.3       8 UNK         0.1400 
     33 CB          4.9611  -17.5732  -42.0851 C.3       8 UNK        -0.1800 
     34 N           2.9959  -19.0112  -41.7735 N.am      8 UNK        -0.5000 
     35 C           2.2663  -20.0824  -41.4274 C.2       7 UNK         0.5000 
     36 O           2.7508  -21.1840  -41.1694 O.2       7 UNK        -0.5000 
     37 CA          0.7365  -19.9122  -41.4018 C.3       7 UNK         0.1400 
     38 CB          0.2842  -19.2442  -40.0950 C.3       7 UNK        -0.1800 
     39 N           0.2341  -19.1592  -42.5518 N.am      7 UNK        -0.5000 
     40 C           0.2981  -19.5896  -43.8213 C.2       6 UNK         0.5000 
     41 O           0.7310  -20.6952  -44.1413 O.2       6 UNK        -0.5000 
     42 CA         -0.1408  -18.6070  -44.9216 C.3       6 UNK         0.1400 
     43 CB         -1.6585  -18.6634  -45.1363 C.3       6 UNK        -0.1800 
     44 N           0.2654  -17.2323  -44.6328 N.am      6 UNK        -0.5000 
     45 C           1.5387  -16.8194  -44.5744 C.2       5 UNK         0.5000 
     46 O           2.5054  -17.5510  -44.7842 O.2       5 UNK        -0.5000 
     47 CA          1.7772  -15.3615  -44.1490 C.3       5 UNK         0.1400 
     48 CB          1.5347  -14.3889  -45.3117 C.3       5 UNK        -0.1800 
     49 N           0.9494  -14.9815  -43.0052 N.am      5 UNK        -0.5000 
     50 C           1.1177  -15.4531  -41.7623 C.2       4 UNK         0.5000 
     51 O           1.9974  -16.2537  -41.4477 O.2       4 UNK        -0.5000 
     52 CA          0.1174  -14.9690  -40.6975 C.3       4 UNK         0.1400 
     53 CB          0.5572  -13.6167  -40.1170 C.3       4 UNK        -0.1800 
     54 N          -1.2468  -14.8542  -41.2141 N.am      4 UNK        -0.5000 
     55 C          -1.9986  -15.8968  -41.5926 C.2       3 UNK         0.5000 
     56 O          -1.6250  -17.0678  -41.5410 O.2       3 UNK        -0.5000 
     57 CA         -3.3822  -15.5663  -42.1789 C.3       3 UNK         0.1400 
     58 CB         -4.3940  -15.2694  -41.0622 C.3       3 UNK        -0.1800 
     59 N          -3.3611  -14.4510  -43.1318 N.am      3 UNK        -0.5000 
     60 C          -2.6300  -14.4235  -44.2538 C.2       2 UNK         0.5000 
     61 O          -1.8564  -15.3237  -44.5857 O.2       2 UNK        -0.5000 
     62 CA         -2.7412  -13.1602  -45.1233 C.3       2 UNK         0.1400 
     63 CB         -1.7557  -12.0872  -44.6344 C.3       2 UNK        -0.1800 
     64 N          -2.4447  -13.4764  -46.5198 N.am      2 UNK        -0.5000 
     65 C          -3.3162  -14.0410  -47.3626 C.2       1 UNK         0.5000 
     66 O          -4.5074  -14.2223  -47.0945 O.2       1 UNK        -0.5000 
     67 C          -1.7014  -23.0698  -46.0401 C.2       11 UNK         0.5000 
     68 O          -1.8849  -22.3996  -45.0214 O.2       11 UNK        -0.5000 
     69 N          -2.6818  -23.3976  -46.8921 N.am      12 UNK        -0.5000 
     70 CA         -4.1013  -23.0774  -46.7057 C.3       12 UNK         0.1400 
     71 CB         -4.9306  -24.2784  -47.1921 C.3       12 UNK        -0.1800 
     72 C          -4.5498  -21.7939  -47.4339 C.2       12 UNK         0.5000 
     73 O          -5.7460  -21.4969  -47.4359 O.2       12 UNK        -0.5000 
     74 N          -3.6181  -21.0623  -48.0637 N.am      13 UNK        -0.5000 
     75 CA         -3.8898  -19.9515  -48.9865 C.3       13 UNK         0.1400 
     76 CB         -2.5701  -19.4450  -49.5751 C.3       13 UNK        -0.1800 
     77 C          -4.6955  -18.7716  -48.4117 C.2       13 UNK         0.5000 
     78 O          -5.2999  -18.0334  -49.1858 O.2       13 UNK        -0.5000 
     79 N          -4.7252  -18.6135  -47.0830 N.am      14 UNK        -0.5000 
     80 CA         -5.5606  -17.6153  -46.4106 C.3       14 UNK         0.1400 
     81 CB         -5.1067  -17.4697  -44.9540 C.3       14 UNK        -0.1800 
     82 C          -7.0697  -17.9240  -46.4914 C.2       14 UNK         0.5000 
     83 O          -7.8765  -16.9964  -46.4209 O.2       14 UNK        -0.5000 
     84 N          -7.4220  -19.2069  -46.6495 N.am      15 UNK        -0.5000 
     85 CA         -8.7924  -19.6788  -46.8418 C.3       15 UNK         0.1400 
     86 CB         -9.0440  -20.8768  -45.9123 C.3       15 UNK        -0.1800 
     87 C          -9.0362  -20.0775  -48.3065 C.2       15 UNK         0.5000 
     88 O         -10.0967  -19.7728  -48.8526 O.2       15 UNK        -0.5000 
     89 N          -8.0535  -20.7539  -48.9157 N.am      16 UNK        -0.5000 
     90 CA         -8.1366  -21.3238  -50.2614 C.3       16 UNK         0.1400 
     91 CB         -7.1709  -22.5182  -50.3323 C.3       16 UNK        -0.1800 
     92 C          -7.8420  -20.3193  -51.3946 C.2       16 UNK         0.5000 
     93 O          -8.0036  -20.6773  -52.5608 O.2       16 UNK        -0.5000 
     94 N          -7.3730  -19.1107  -51.0503 N.am      17 UNK        -0.5000 
     95 CA         -6.8957  -18.0139  -51.9108 C.3       17 UNK         0.1400 
     96 CB         -7.9398  -17.5964  -52.9639 C.3       17 UNK        -0.1800 
     97 C          -5.5152  -18.2749  -52.5496 C.2       17 UNK         0.5000 
     98 O          -4.7485  -17.3315  -52.7385 O.2       17 UNK        -0.5000 
     99 N          -5.2006  -19.5398  -52.8344 N.am      18 UNK        -0.5000 
    100 CA        -3.8988  -20.0340  -53.2553 C.3       18 UNK         0.1400 
    101 CB        -3.7437  -19.8989  -54.7794 C.3       18 UNK        -0.1800 
    102 C         -3.7913  -21.4951  -52.8048 C.2       18 UNK         0.5000 
    103 O         -4.8164  -22.1636  -52.6545 O.2       18 UNK        -0.5000 
    104 N         -2.5603  -21.9653  -52.5918 N.am      19 UNK        -0.5000 
    105 CA        -2.2713  -23.3056  -52.0950 C.3       19 UNK         0.1400 
    106 CB        -2.3004  -23.3061  -50.5566 C.3       19 UNK        -0.1800 
    107 C         -0.9365  -23.7781  -52.6840 C.2       19 UNK         0.5000 
    108 O          0.0795  -23.7978  -51.9878 O.2       19 UNK        -0.5000 
    109 N         -0.9718  -24.1083  -53.9820 N.am      20 UNK        -0.5000 
    110 CA         0.0704  -24.7238  -54.8181 C.3       20 UNK         0.1400 
    111 CB         0.4791  -26.1027  -54.2658 C.3       20 UNK        -0.1800 
    112 C          1.3165  -23.8612  -55.0987 C.2       20 UNK         0.5000 
    113 O          1.7917  -23.8540  -56.2352 O.2       20 UNK        -0.5000 
    114 N          1.8238  -23.1473  -54.0860 N.am      21 UNK        -0.5000 
    115 CA         3.0744  -22.3793  -54.1255 C.3       21 UNK         0.1400 
    116 CB         3.3823  -21.8440  -52.7190 C.3       21 UNK        -0.1800 
    117 C          3.0965  -21.2349  -55.1597 C.2       21 UNK         0.5000 
    118 O          4.1756  -20.8614  -55.6217 O.2       21 UNK        -0.5000 
    119 N          1.9135  -20.7213  -55.5174 N.am      22 UNK        -0.5000 
    120 CA         1.7168  -19.7146  -56.5741 C.3       22 UNK         0.1400 
    121 C          1.5455  -20.3237  -57.9983 C.2       22 UNK         0.5000 
    122 N          1.5669  -21.6395  -58.1801 N.am      22 UNK        -0.7600 
    123 O          1.4023  -19.5843  -58.9682 O.2       22 UNK        -0.5000 
    124 C124        0.5632  -18.7347  -56.2331 C.3       23 UNK        -0.0398 
    125 S125        0.8656  -17.8449  -54.6675 S.3       23 UNK        -0.2404 
    126 C126       -0.4151  -18.5477  -53.5838 C.3       23 UNK        -0.0205 
    127 H127       -4.9340  -14.6189  -52.7537 H         1 UNK         0.0600 
    128 H128       -5.2629  -13.0415  -52.0316 H         1 UNK         0.0600 
    129 H129       -5.8827  -14.5136  -51.2707 H         1 UNK         0.0600 
    130 H130       -4.7872  -14.4437  -49.2559 H         1 UNK         0.3000 
    131 H131       -2.0070  -13.7522  -49.0349 H         1 UNK         0.0600 
    132 H132       -2.8094  -16.5898  -48.1902 H         1 UNK         0.0800 
    133 H133       -2.0573  -16.2801  -49.7251 H         1 UNK         0.0800 
    134 H134        1.6378  -15.8525  -48.9796 H         1 UNK         0.0800 
    135 H135        0.4016  -15.1458  -49.9927 H         1 UNK         0.0800 
    136 H136       -0.1985  -16.4110  -51.9118 H         1 UNK         0.1150 
    137 H137        0.3317  -20.6619  -52.0289 H         1 UNK         0.1150 
    138 H138        1.2628  -18.4876  -48.4560 H         1 UNK         0.1150 
    139 H139        1.0099  -21.8701  -50.1392 H         1 UNK         0.0800 
    140 H140        2.2243  -21.0344  -49.2003 H         1 UNK         0.0800 
    141 H141        1.3154  -23.3646  -47.8468 H         1 UNK         0.0800 
    142 H142       -0.2457  -23.5551  -48.5684 H         1 UNK         0.0800 
    143 H143       -0.4073  -24.6736  -46.4867 H         1 UNK         0.0600 
    144 H144        0.5777  -22.3953  -44.8865 H         1 UNK         0.3000 
    145 H145        1.8745  -23.4265  -42.8861 H         1 UNK         0.0600 
    146 H146        4.1898  -24.2697  -42.5034 H         1 UNK         0.0600 
    147 H147        3.0889  -25.5798  -42.9004 H         1 UNK         0.0600 
    148 H148        4.2127  -24.9853  -44.1146 H         1 UNK         0.0600 
    149 H149        2.8328  -21.5887  -43.6073 H         1 UNK         0.3000 
    150 H150        5.4425  -20.6978  -45.6443 H         1 UNK         0.0600 
    151 H151        3.7992  -20.6490  -47.5010 H         1 UNK         0.0600 
    152 H152        3.9468  -19.0530  -46.7833 H         1 UNK         0.0600 
    153 H153        2.5459  -20.0573  -46.4146 H         1 UNK         0.0600 
    154 H154        3.4186  -19.1656  -44.2814 H         1 UNK         0.3000 
    155 H155        4.8872  -19.4313  -41.0226 H         1 UNK         0.0600 
    156 H156        6.0459  -17.5506  -42.1965 H         1 UNK         0.0600 
    157 H157        4.7121  -16.9741  -41.2091 H         1 UNK         0.0600 
    158 H158        4.5304  -17.0831  -42.9585 H         1 UNK         0.0600 
    159 H159        2.5273  -18.1224  -41.9194 H         1 UNK         0.3000 
    160 H160        0.2930  -20.9095  -41.4391 H         1 UNK         0.0600 
    161 H161        0.6520  -18.2212  -40.0160 H         1 UNK         0.0600 
    162 H162        0.6515  -19.7937  -39.2274 H         1 UNK         0.0600 
    163 H163       -0.8031  -19.2160  -40.0238 H         1 UNK         0.0600 
    164 H164       -0.1902  -18.2584  -42.3569 H         1 UNK         0.3000 
    165 H165        0.3427  -18.9083  -45.8531 H         1 UNK         0.0600 
    166 H166       -2.1975  -18.3813  -44.2314 H         1 UNK         0.0600 
    167 H167       -1.9658  -17.9918  -45.9382 H         1 UNK         0.0600 
    168 H168       -1.9752  -19.6693  -45.4129 H         1 UNK         0.0600 
    169 H169       -0.4811  -16.5543  -44.4935 H         1 UNK         0.3000 
    170 H170        2.8248  -15.2728  -43.8536 H         1 UNK         0.0600 
    171 H171        2.1236  -14.6700  -46.1858 H         1 UNK         0.0600 
    172 H172        0.4881  -14.3757  -45.6128 H         1 UNK         0.0600 
    173 H173        1.8181  -13.3720  -45.0404 H         1 UNK         0.0600 
    174 H174        0.1639  -14.3773  -43.1913 H         1 UNK         0.3000 
    175 H175        0.1134  -15.7018  -39.8878 H         1 UNK         0.0600 
    176 H176        1.5669  -13.6779  -39.7086 H         1 UNK         0.0600 
    177 H177        0.5565  -12.8319  -40.8745 H         1 UNK         0.0600 
    178 H178       -0.1011  -13.3026  -39.3068 H         1 UNK         0.0600 
    179 H179       -1.6300  -13.9244  -41.2984 H         1 UNK         0.3000 
    180 H180       -3.7230  -16.4554  -42.7095 H         1 UNK         0.0600 
    181 H181       -4.4339  -16.0892  -40.3436 H         1 UNK         0.0600 
    182 H182       -4.1362  -14.3632  -40.5127 H         1 UNK         0.0600 
    183 H183       -5.3992  -15.1439  -41.4650 H         1 UNK         0.0600 
    184 H184       -3.9618  -13.6677  -42.9188 H         1 UNK         0.3000 
    185 H185       -3.7565  -12.7649  -45.0483 H         1 UNK         0.0600 
    186 H186       -1.9625  -11.8057  -43.6011 H         1 UNK         0.0600 
    187 H187       -0.7225  -12.4321  -44.6795 H         1 UNK         0.0600 
    188 H188       -1.8314  -11.1815  -45.2365 H         1 UNK         0.0600 
    189 H189       -1.4743  -13.4207  -46.7920 H         1 UNK         0.3000 
    190 H190       -2.4608  -23.9527  -47.7056 H         1 UNK         0.3000 
    191 H191       -4.3128  -22.9320  -45.6444 H         1 UNK         0.0600 
    192 H192       -4.7987  -24.4531  -48.2608 H         1 UNK         0.0600 
    193 H193       -5.9956  -24.1215  -47.0153 H         1 UNK         0.0600 
    194 H194       -4.6499  -25.1906  -46.6653 H         1 UNK         0.0600 
    195 H195       -2.6537  -21.3500  -47.9814 H         1 UNK         0.3000 
    196 H196       -4.4830  -20.3593  -49.8072 H         1 UNK         0.0600 
    197 H197       -2.7383  -18.6428  -50.2949 H         1 UNK         0.0600 
    198 H198       -2.0464  -20.2406  -50.1011 H         1 UNK         0.0600 
    199 H199       -1.9079  -19.0577  -48.7999 H         1 UNK         0.0600 
    200 H200       -4.2112  -19.2589  -46.5025 H         1 UNK         0.3000 
    201 H201       -5.4066  -16.6562  -46.9067 H         1 UNK         0.0600 
    202 H202       -5.7315  -16.7552  -44.4164 H         1 UNK         0.0600 
    203 H203       -5.1469  -18.4179  -44.4169 H         1 UNK         0.0600 
    204 H204       -4.0856  -17.0951  -44.9139 H         1 UNK         0.0600 
    205 H205       -6.6922  -19.9072  -46.7270 H         1 UNK         0.3000 
    206 H206       -9.5099  -18.8969  -46.5843 H         1 UNK         0.0600 
    207 H207       -8.9269  -20.5926  -44.8665 H         1 UNK         0.0600 
    208 H208      -10.0581  -21.2597  -46.0338 H         1 UNK         0.0600 
    209 H209       -8.3551  -21.6983  -46.1141 H         1 UNK         0.0600 
    210 H210       -7.2221  -20.9947  -48.3813 H         1 UNK         0.3000 
    211 H211       -9.1490  -21.7007  -50.4214 H         1 UNK         0.0600 
    212 H212       -7.2339  -23.0193  -51.2991 H         1 UNK         0.0600 
    213 H213       -7.4018  -23.2600  -49.5676 H         1 UNK         0.0600 
    214 H214       -6.1352  -22.2075  -50.1932 H         1 UNK         0.0600 
    215 H215       -7.2244  -18.9450  -50.0635 H         1 UNK         0.3000 
    216 H216       -6.7643  -17.1618  -51.2423 H         1 UNK         0.0600 
    217 H217       -7.6297  -16.6813  -53.4698 H         1 UNK         0.0600 
    218 H218       -8.9089  -17.4019  -52.5046 H         1 UNK         0.0600 
    219 H219       -8.0759  -18.3573  -53.7325 H         1 UNK         0.0600 
    220 H220       -5.8918  -20.2657  -52.6741 H         1 UNK         0.3000 
    221 H221       -3.1195  -19.4603  -52.7502 H         1 UNK         0.0600 
    222 H222       -4.5299  -20.4373  -55.3102 H         1 UNK         0.0600 
    223 H223       -3.7863  -18.8545  -55.0887 H         1 UNK         0.0600 
    224 H224       -2.7866  -20.2983  -55.1162 H         1 UNK         0.0600 
    225 H225       -1.7590  -21.3772  -52.7626 H         1 UNK         0.3000 
    226 H226       -3.0327  -24.0070  -52.4439 H         1 UNK         0.0600 
    227 H227       -2.0224  -24.2833  -50.1607 H         1 UNK         0.0600 
    228 H228       -1.6115  -22.5675  -50.1497 H         1 UNK         0.0600 
    229 H229       -3.2985  -23.0753  -50.1846 H         1 UNK         0.0600 
    230 H230       -1.8546  -23.9784  -54.4569 H         1 UNK         0.3000 
    231 H231       -0.4030  -24.8945  -55.7864 H         1 UNK         0.0600 
    232 H232        0.9669  -26.0245  -53.2937 H         1 UNK         0.0600 
    233 H233        1.1770  -26.6010  -54.9400 H         1 UNK         0.0600 
    234 H234       -0.3866  -26.7557  -54.1553 H         1 UNK         0.0600 
    235 H235        1.3646  -23.2416  -53.1831 H         1 UNK         0.3000 
    236 H236        3.8690  -23.0753  -54.4017 H         1 UNK         0.0600 
    237 H237        3.4026  -22.6475  -51.9824 H         1 UNK         0.0600 
    238 H238        4.3568  -21.3547  -52.6934 H         1 UNK         0.0600 
    239 H239        2.6438  -21.1115  -52.3978 H         1 UNK         0.0600 
    240 H240        1.0814  -21.1066  -55.0999 H         1 UNK         0.3000 
    241 H241        2.6248  -19.1119  -56.6382 H         1 UNK         0.0600 
    242 H242        1.7049  -22.2837  -57.4079 H         1 UNK         0.3800 
    243 H243        1.4609  -22.0061  -59.1127 H         1 UNK         0.3800 
    244 H244        0.4618  -17.9799  -57.0148 H         1 UNK         0.0800 
    245 H245       -0.3929  -19.2586  -56.1973 H         1 UNK         0.0800 
    246 H246       -0.6412  -19.5678  -53.8937 H         1 UNK         0.0800 
    247 H247       -1.3361  -17.9731  -53.6949 H         1 UNK         0.0800 
@<TRIPOS>BOND
     1    1    2 1    
     2    1  127 1    
     3    1  128 1    
     4    1  129 1    
     5    2    3 2    
     6    2    4 am   BACKBONE|DICT|INTERRES
     7    4    5 1    
     8    4  130 1    
     9    5    6 1    
    10    5   65 1    
    11    5  131 1    
    12    6    7 1    
    13    6  132 1    
    14    6  133 1    
    15    7    8 1    
    16    8    9 1    
    17    8  134 1    
    18    8  135 1    
    19    9   10 ar   
    20    9   14 ar   
    21   10   11 ar   
    22   10  136 1    
    23   11   12 ar   
    24   11  126 1    
    25   12   13 ar   
    26   12  137 1    
    27   13   14 ar   
    28   13   15 1    
    29   14  138 1    
    30   15   16 1    
    31   15  139 1    
    32   15  140 1    
    33   16   17 1    
    34   17   18 1    
    35   17  141 1    
    36   17  142 1    
    37   18   19 1    
    38   18   67 1    
    39   18  143 1    
    40   19   20 am   BACKBONE|DICT|INTERRES
    41   19  144 1    
    42   20   21 2    
    43   20   22 1    
    44   22   23 1    
    45   22   24 1    
    46   22  145 1    
    47   23  146 1    
    48   23  147 1    
    49   23  148 1    
    50   24   25 am   BACKBONE|DICT|INTERRES
    51   24  149 1    
    52   25   26 2    
    53   25   27 1    
    54   27   28 1    
    55   27   29 1    
    56   27  150 1    
    57   28  151 1    
    58   28  152 1    
    59   28  153 1    
    60   29   30 am   BACKBONE|DICT|INTERRES
    61   29  154 1    
    62   30   31 2    
    63   30   32 1    
    64   32   33 1    
    65   32   34 1    
    66   32  155 1    
    67   33  156 1    
    68   33  157 1    
    69   33  158 1    
    70   34   35 am   BACKBONE|DICT|INTERRES
    71   34  159 1    
    72   35   36 2    
    73   35   37 1    
    74   37   38 1    
    75   37   39 1    
    76   37  160 1    
    77   38  161 1    
    78   38  162 1    
    79   38  163 1    
    80   39   40 am   BACKBONE|DICT|INTERRES
    81   39  164 1    
    82   40   41 2    
    83   40   42 1    
    84   42   43 1    
    85   42   44 1    
    86   42  165 1    
    87   43  166 1    
    88   43  167 1    
    89   43  168 1    
    90   44   45 am   BACKBONE|DICT|INTERRES
    91   44  169 1    
    92   45   46 2    
    93   45   47 1    
    94   47   48 1    
    95   47   49 1    
    96   47  170 1    
    97   48  171 1    
    98   48  172 1    
    99   48  173 1    
   100   49   50 am   BACKBONE|DICT|INTERRES
   101   49  174 1    
   102   50   51 2    
   103   50   52 1    
   104   52   53 1    
   105   52   54 1    
   106   52  175 1    
   107   53  176 1    
   108   53  177 1    
   109   53  178 1    
   110   54   55 am   BACKBONE|DICT|INTERRES
   111   54  179 1    
   112   55   56 2    
   113   55   57 1    
   114   57   58 1    
   115   57   59 1    
   116   57  180 1    
   117   58  181 1    
   118   58  182 1    
   119   58  183 1    
   120   59   60 am   BACKBONE|DICT|INTERRES
   121   59  184 1    
   122   60   61 2    
   123   60   62 1    
   124   62   63 1    
   125   62   64 1    
   126   62  185 1    
   127   63  186 1    
   128   63  187 1    
   129   63  188 1    
   130   64   65 am   BACKBONE|DICT|INTERRES
   131   64  189 1    
   132   65   66 2    
   133   67   68 2    
   134   67   69 am   BACKBONE|DICT|INTERRES
   135   69   70 1    
   136   69  190 1    
   137   70   71 1    
   138   70   72 1    
   139   70  191 1    
   140   71  192 1    
   141   71  193 1    
   142   71  194 1    
   143   72   73 2    
   144   72   74 am   BACKBONE|DICT|INTERRES
   145   74   75 1    
   146   74  195 1    
   147   75   76 1    
   148   75   77 1    
   149   75  196 1    
   150   76  197 1    
   151   76  198 1    
   152   76  199 1    
   153   77   78 2    
   154   77   79 am   BACKBONE|DICT|INTERRES
   155   79   80 1    
   156   79  200 1    
   157   80   81 1    
   158   80   82 1    
   159   80  201 1    
   160   81  202 1    
   161   81  203 1    
   162   81  204 1    
   163   82   83 2    
   164   82   84 am   BACKBONE|DICT|INTERRES
   165   84   85 1    
   166   84  205 1    
   167   85   86 1    
   168   85   87 1    
   169   85  206 1    
   170   86  207 1    
   171   86  208 1    
   172   86  209 1    
   173   87   88 2    
   174   87   89 am   BACKBONE|DICT|INTERRES
   175   89   90 1    
   176   89  210 1    
   177   90   91 1    
   178   90   92 1    
   179   90  211 1    
   180   91  212 1    
   181   91  213 1    
   182   91  214 1    
   183   92   93 2    
   184   92   94 am   BACKBONE|DICT|INTERRES
   185   94   95 1    
   186   94  215 1    
   187   95   96 1    
   188   95   97 1    
   189   95  216 1    
   190   96  217 1    
   191   96  218 1    
   192   96  219 1    
   193   97   98 2    
   194   97   99 am   BACKBONE|DICT|INTERRES
   195   99  100 1    
   196   99  220 1    
   197  100  101 1    
   198  100  102 1    
   199  100  221 1    
   200  101  222 1    
   201  101  223 1    
   202  101  224 1    
   203  102  103 2    
   204  102  104 am   BACKBONE|DICT|INTERRES
   205  104  105 1    
   206  104  225 1    
   207  105  106 1    
   208  105  107 1    
   209  105  226 1    
   210  106  227 1    
   211  106  228 1    
   212  106  229 1    
   213  107  108 2    
   214  107  109 am   BACKBONE|DICT|INTERRES
   215  109  110 1    
   216  109  230 1    
   217  110  111 1    
   218  110  112 1    
   219  110  231 1    
   220  111  232 1    
   221  111  233 1    
   222  111  234 1    
   223  112  113 2    
   224  112  114 am   BACKBONE|DICT|INTERRES
   225  114  115 1    
   226  114  235 1    
   227  115  116 1    
   228  115  117 1    
   229  115  236 1    
   230  116  237 1    
   231  116  238 1    
   232  116  239 1    
   233  117  118 2    
   234  117  119 am   BACKBONE|DICT|INTERRES
   235  119  120 1    
   236  119  240 1    
   237  120  121 1    
   238  120  124 1    
   239  120  241 1    
   240  121  122 am   BACKBONE|DICT|INTERRES
   241  121  123 2    
   242  122  242 1    
   243  122  243 1    
   244  124  125 1    
   245  124  244 1    
   246  124  245 1    
   247  125  126 1    
   248  126  246 1    
   249  126  247 1    
@<TRIPOS>SUBSTRUCTURE
     1 UNK         1 GROUP             0       ****    0 ROOT    
