@<TRIPOS>MOLECULE
3R540
247   249    1
SMALL
USER_CHARGES


@<TRIPOS>ATOM
      1 CA          0.5028  -14.6881  -45.8445 C.3       0 UNK        -0.1800 
      2 C           1.5449  -14.5956  -46.9484 C.2       0 UNK         0.5000 
      3 O           1.5498  -13.6156  -47.6926 O.2       0 UNK        -0.5000 
      4 N           2.4289  -15.5999  -47.0550 N.am      1 UNK        -0.5000 
      5 CA          3.5440  -15.6242  -48.0165 C.3       1 UNK         0.1400 
      6 C6          4.2781  -16.9889  -48.0772 C.3       23 UNK        -0.0398 
      7 S7          3.2057  -18.4348  -48.3725 S.3       23 UNK        -0.2404 
      8 C8          2.9597  -18.3704  -50.1872 C.3       23 UNK        -0.0205 
      9 C9          1.7387  -17.5804  -50.6685 C.ar      23 UNK        -0.0193 
     10 C10         1.5529  -17.3908  -52.0433 C.ar      23 UNK        -0.1150 
     11 C11         0.4152  -16.7361  -52.5307 C.ar      23 UNK        -0.0193 
     12 C12        -0.5396  -16.2576  -51.6287 C.ar      23 UNK        -0.1150 
     13 C13        -0.3629  -16.4229  -50.2539 C.ar      23 UNK        -0.0193 
     14 C14         0.7760  -17.0768  -49.7861 C.ar      23 UNK        -0.1150 
     15 C15        -1.3918  -15.8839  -49.2719 C.3       23 UNK        -0.0205 
     16 S16        -2.4642  -17.1933  -48.5989 S.3       23 UNK        -0.2404 
     17 C17        -1.4417  -17.9599  -47.2854 C.3       23 UNK        -0.0398 
     18 CA         -0.9647  -19.3979  -47.6177 C.3       11 UNK         0.1400 
     19 N          -0.0074  -19.9078  -46.6312 N.am      11 UNK        -0.5000 
     20 C           0.6250  -21.0899  -46.7097 C.2       10 UNK         0.5000 
     21 O           0.5379  -21.8570  -47.6669 O.2       10 UNK        -0.5000 
     22 CA          1.4288  -21.5312  -45.4755 C.3       10 UNK         0.1400 
     23 CB          2.8237  -20.8885  -45.4559 C.3       10 UNK        -0.1800 
     24 N           0.7180  -21.2382  -44.2305 N.am      10 UNK        -0.5000 
     25 C          -0.4206  -21.8386  -43.8513 C.2       9 UNK         0.5000 
     26 O          -0.9668  -22.7370  -44.4901 O.2       9 UNK        -0.5000 
     27 CA         -1.0846  -21.3139  -42.5654 C.3       9 UNK         0.1400 
     28 CB         -0.4675  -21.9775  -41.3256 C.3       9 UNK        -0.1800 
     29 N          -0.9813  -19.8598  -42.4418 N.am      9 UNK        -0.5000 
     30 C          -1.5873  -18.9864  -43.2585 C.2       8 UNK         0.5000 
     31 O          -2.3520  -19.3155  -44.1657 O.2       8 UNK        -0.5000 
     32 CA         -1.2233  -17.5024  -43.0671 C.3       8 UNK         0.1400 
     33 CB         -2.1285  -16.8473  -42.0157 C.3       8 UNK        -0.1800 
     34 N           0.1848  -17.3080  -42.7045 N.am      8 UNK        -0.5000 
     35 C           1.2095  -17.5989  -43.5196 C.2       7 UNK         0.5000 
     36 O           1.0489  -18.0266  -44.6644 O.2       7 UNK        -0.5000 
     37 CA          2.6371  -17.3896  -42.9843 C.3       7 UNK         0.1400 
     38 CB          3.5943  -16.8875  -44.0760 C.3       7 UNK        -0.1800 
     39 N           2.6646  -16.4529  -41.8617 N.am      7 UNK        -0.5000 
     40 C           3.2290  -16.6980  -40.6711 C.2       6 UNK         0.5000 
     41 O           3.7799  -17.7612  -40.3825 O.2       6 UNK        -0.5000 
     42 CA          3.1716  -15.5779  -39.6107 C.3       6 UNK         0.1400 
     43 CB          4.5027  -14.8146  -39.5779 C.3       6 UNK        -0.1800 
     44 N           2.0857  -14.6177  -39.8122 N.am      6 UNK        -0.5000 
     45 C           0.7786  -14.9104  -39.7648 C.2       5 UNK         0.5000 
     46 O           0.3396  -16.0321  -39.5090 O.2       5 UNK        -0.5000 
     47 CA         -0.2088  -13.7765  -40.1023 C.3       5 UNK         0.1400 
     48 CB         -0.7470  -13.1375  -38.8134 C.3       5 UNK        -0.1800 
     49 N           0.3281  -12.7206  -40.9657 N.am      5 UNK        -0.5000 
     50 C           0.8908  -12.8779  -42.1730 C.2       4 UNK         0.5000 
     51 O           1.0939  -13.9751  -42.6956 O.2       4 UNK        -0.5000 
     52 CA          1.3128  -11.5942  -42.9202 C.3       4 UNK         0.1400 
     53 CB          0.7550  -10.2926  -42.3009 C.3       4 UNK        -0.1800 
     54 N           2.7651  -11.4835  -43.0816 N.am      4 UNK        -0.5000 
     55 C           3.7068  -11.5453  -42.1267 C.2       3 UNK         0.5000 
     56 O           3.4647  -11.7552  -40.9359 O.2       3 UNK        -0.5000 
     57 CA          5.1620  -11.2973  -42.5929 C.3       3 UNK         0.1400 
     58 CB          6.2209  -11.8671  -41.6253 C.3       3 UNK        -0.1800 
     59 N           5.4355  -11.7291  -43.9725 N.am      3 UNK        -0.5000 
     60 C           5.3169  -12.9739  -44.4540 C.2       2 UNK         0.5000 
     61 O           4.9401  -13.9388  -43.7863 O.2       2 UNK        -0.5000 
     62 CA          5.6797  -13.1797  -45.9304 C.3       2 UNK         0.1400 
     63 CB          7.1615  -13.5679  -46.0826 C.3       2 UNK        -0.1800 
     64 N           4.8191  -14.2340  -46.4506 N.am      2 UNK        -0.5000 
     65 C           4.5705  -14.5028  -47.7377 C.2       1 UNK         0.5000 
     66 O           5.0975  -13.9068  -48.6780 O.2       1 UNK        -0.5000 
     67 C          -2.1475  -20.3711  -47.7988 C.2       11 UNK         0.5000 
     68 O          -2.4068  -20.7922  -48.9236 O.2       11 UNK        -0.5000 
     69 N          -2.8054  -20.7499  -46.6924 N.am      12 UNK        -0.5000 
     70 CA         -3.9428  -21.6739  -46.6789 C.3       12 UNK         0.1400 
     71 CB         -4.4961  -21.7821  -45.2507 C.3       12 UNK        -0.1800 
     72 C          -3.6127  -23.0694  -47.2422 C.2       12 UNK         0.5000 
     73 O          -4.4227  -23.6291  -47.9857 O.2       12 UNK        -0.5000 
     74 N          -2.4237  -23.5857  -46.8994 N.am      13 UNK        -0.5000 
     75 CA         -1.8854  -24.8489  -47.3992 C.3       13 UNK         0.1400 
     76 CB         -0.6429  -25.2430  -46.5864 C.3       13 UNK        -0.1800 
     77 C          -1.5636  -24.7975  -48.9022 C.2       13 UNK         0.5000 
     78 O          -1.9757  -25.6977  -49.6337 O.2       13 UNK        -0.5000 
     79 N          -0.8686  -23.7377  -49.3429 N.am      14 UNK        -0.5000 
     80 CA         -0.5241  -23.4909  -50.7464 C.3       14 UNK         0.1400 
     81 CB          0.4190  -22.2809  -50.8428 C.3       14 UNK        -0.1800 
     82 C          -1.7663  -23.2791  -51.6282 C.2       14 UNK         0.5000 
     83 O          -1.8303  -23.8068  -52.7376 O.2       14 UNK        -0.5000 
     84 N          -2.7465  -22.5387  -51.0972 N.am      15 UNK        -0.5000 
     85 CA         -4.0461  -22.2914  -51.7130 C.3       15 UNK         0.1400 
     86 CB         -4.7397  -21.1460  -50.9619 C.3       15 UNK        -0.1800 
     87 C          -4.9607  -23.5217  -51.7477 C.2       15 UNK         0.5000 
     88 O          -5.9435  -23.4944  -52.4863 O.2       15 UNK        -0.5000 
     89 N          -4.6598  -24.5482  -50.9392 N.am      16 UNK        -0.5000 
     90 CA         -5.4378  -25.7748  -50.7461 C.3       16 UNK         0.1400 
     91 CB         -5.3689  -26.6562  -52.0106 C.3       16 UNK        -0.1800 
     92 C          -6.8818  -25.4675  -50.2981 C.2       16 UNK         0.5000 
     93 O          -7.8348  -26.0002  -50.8675 O.2       16 UNK        -0.5000 
     94 N          -7.0075  -24.5525  -49.3235 N.am      17 UNK        -0.5000 
     95 CA         -8.2611  -23.9620  -48.8364 C.3       17 UNK         0.1400 
     96 CB         -9.1231  -25.0148  -48.1085 C.3       17 UNK        -0.1800 
     97 C          -9.0287  -23.2013  -49.9440 C.2       17 UNK         0.5000 
     98 O         -10.2478  -23.3321  -50.0629 O.2       17 UNK        -0.5000 
     99 N          -8.2756  -22.4202  -50.7330 N.am      18 UNK        -0.5000 
    100 CA        -8.7037  -21.5633  -51.8480 C.3       18 UNK         0.1400 
    101 CB        -9.7466  -20.5209  -51.3926 C.3       18 UNK        -0.1800 
    102 C         -9.1344  -22.3192  -53.1235 C.2       18 UNK         0.5000 
    103 O         -9.7043  -21.7017  -54.0244 O.2       18 UNK        -0.5000 
    104 N         -8.8276  -23.6194  -53.2132 N.am      19 UNK        -0.5000 
    105 CA        -9.0867  -24.4475  -54.3918 C.3       19 UNK         0.1400 
    106 CB        -9.1722  -25.9190  -53.9606 C.3       19 UNK        -0.1800 
    107 C         -8.0241  -24.2786  -55.4966 C.2       19 UNK         0.5000 
    108 O         -8.3444  -24.4801  -56.6687 O.2       19 UNK        -0.5000 
    109 N         -6.7869  -23.9349  -55.1133 N.am      20 UNK        -0.5000 
    110 CA        -5.6116  -23.8842  -55.9891 C.3       20 UNK         0.1400 
    111 CB        -4.5598  -24.8687  -55.4467 C.3       20 UNK        -0.1800 
    112 C         -5.0192  -22.4676  -56.1233 C.2       20 UNK         0.5000 
    113 O         -3.9276  -22.3293  -56.6806 O.2       20 UNK        -0.5000 
    114 N         -5.7254  -21.4473  -55.6106 N.am      21 UNK        -0.5000 
    115 CA        -5.3551  -20.0248  -55.5431 C.3       21 UNK         0.1400 
    116 CB        -5.1749  -19.4071  -56.9453 C.3       21 UNK        -0.1800 
    117 C         -4.1415  -19.7815  -54.6253 C.2       21 UNK         0.5000 
    118 O         -4.3222  -19.3035  -53.5073 O.2       21 UNK        -0.5000 
    119 N         -2.9504  -20.1734  -55.0852 N.am      22 UNK        -0.5000 
    120 CA        -1.7390  -20.3804  -54.2797 C.3       22 UNK         0.1400 
    121 C         -0.7472  -21.3998  -54.9175 C.2       22 UNK         0.5000 
    122 N         -1.1502  -22.1983  -55.9018 N.am      22 UNK        -0.7600 
    123 O          0.4063  -21.4888  -54.5073 O.2       22 UNK        -0.5000 
    124 C124       -1.0938  -19.0775  -53.7338 C.3       23 UNK        -0.0398 
    125 S125       -0.1049  -18.1150  -54.9307 S.3       23 UNK        -0.2404 
    126 C126        0.1966  -16.5534  -54.0299 C.3       23 UNK        -0.0205 
    127 H127        0.2892  -13.6971  -45.4448 H         1 UNK         0.0600 
    128 H128        0.8564  -15.3023  -45.0215 H         1 UNK         0.0600 
    129 H129       -0.4293  -15.1098  -46.2152 H         1 UNK         0.0600 
    130 H130        2.3449  -16.4077  -46.4536 H         1 UNK         0.3000 
    131 H131        3.1217  -15.4311  -49.0048 H         1 UNK         0.0600 
    132 H132        5.0489  -16.9708  -48.8498 H         1 UNK         0.0800 
    133 H133        4.8063  -17.1732  -47.1400 H         1 UNK         0.0800 
    134 H134        2.8477  -19.3970  -50.5388 H         1 UNK         0.0800 
    135 H135        3.8594  -17.9814  -50.6656 H         1 UNK         0.0800 
    136 H136        2.2821  -17.7772  -52.7419 H         1 UNK         0.1150 
    137 H137       -1.4237  -15.7562  -51.9970 H         1 UNK         0.1150 
    138 H138        0.8940  -17.2005  -48.7233 H         1 UNK         0.1150 
    139 H139       -0.8952  -15.3480  -48.4654 H         1 UNK         0.0800 
    140 H140       -2.0255  -15.1474  -49.7680 H         1 UNK         0.0800 
    141 H141       -2.0308  -17.9559  -46.3686 H         1 UNK         0.0800 
    142 H142       -0.5833  -17.3246  -47.0733 H         1 UNK         0.0800 
    143 H143       -0.4330  -19.3616  -48.5706 H         1 UNK         0.0600 
    144 H144        0.1748  -19.3200  -45.8235 H         1 UNK         0.3000 
    145 H145        1.5618  -22.6135  -45.5361 H         1 UNK         0.0600 
    146 H146        3.4016  -21.2207  -44.5936 H         1 UNK         0.0600 
    147 H147        3.3862  -21.1616  -46.3496 H         1 UNK         0.0600 
    148 H148        2.7727  -19.8014  -45.4290 H         1 UNK         0.0600 
    149 H149        1.0769  -20.4818  -43.6696 H         1 UNK         0.3000 
    150 H150       -2.1435  -21.5784  -42.6042 H         1 UNK         0.0600 
    151 H151       -0.5466  -23.0638  -41.3854 H         1 UNK         0.0600 
    152 H152       -0.9799  -21.6653  -40.4154 H         1 UNK         0.0600 
    153 H153        0.5894  -21.7306  -41.2179 H         1 UNK         0.0600 
    154 H154       -0.3739  -19.5028  -41.7191 H         1 UNK         0.3000 
    155 H155       -1.3982  -16.9993  -44.0206 H         1 UNK         0.0600 
    156 H156       -1.9157  -17.2140  -41.0108 H         1 UNK         0.0600 
    157 H157       -3.1806  -17.0462  -42.2243 H         1 UNK         0.0600 
    158 H158       -2.0018  -15.7660  -42.0180 H         1 UNK         0.0600 
    159 H159        0.3805  -16.9581  -41.7764 H         1 UNK         0.3000 
    160 H160        2.9790  -18.3768  -42.6684 H         1 UNK         0.0600 
    161 H161        4.6104  -16.7920  -43.6927 H         1 UNK         0.0600 
    162 H162        3.2844  -15.9099  -44.4415 H         1 UNK         0.0600 
    163 H163        3.6330  -17.5712  -44.9240 H         1 UNK         0.0600 
    164 H164        2.2270  -15.5502  -42.0261 H         1 UNK         0.3000 
    165 H165        3.0216  -16.0519  -38.6386 H         1 UNK         0.0600 
    166 H166        4.5018  -14.0431  -38.8077 H         1 UNK         0.0600 
    167 H167        5.3364  -15.4858  -39.3682 H         1 UNK         0.0600 
    168 H168        4.7002  -14.3340  -40.5358 H         1 UNK         0.0600 
    169 H169        2.3577  -13.6750  -40.0631 H         1 UNK         0.3000 
    170 H170       -1.0491  -14.2261  -40.6309 H         1 UNK         0.0600 
    171 H171       -1.1830  -13.8903  -38.1551 H         1 UNK         0.0600 
    172 H172        0.0429  -12.6317  -38.2564 H         1 UNK         0.0600 
    173 H173       -1.5273  -12.4074  -39.0295 H         1 UNK         0.0600 
    174 H174        0.2432  -11.7787  -40.6125 H         1 UNK         0.3000 
    175 H175        0.8966  -11.6833  -43.9245 H         1 UNK         0.0600 
    176 H176        1.1632  -10.0992  -41.3082 H         1 UNK         0.0600 
    177 H177        0.9975   -9.4329  -42.9257 H         1 UNK         0.0600 
    178 H178       -0.3322  -10.3271  -42.2179 H         1 UNK         0.0600 
    179 H179        3.0837  -11.3419  -44.0289 H         1 UNK         0.3000 
    180 H180        5.2795  -10.2128  -42.5894 H         1 UNK         0.0600 
    181 H181        6.2039  -12.9558  -41.5973 H         1 UNK         0.0600 
    182 H182        6.0645  -11.5086  -40.6072 H         1 UNK         0.0600 
    183 H183        7.2240  -11.5612  -41.9221 H         1 UNK         0.0600 
    184 H184        5.7490  -10.9999  -44.5986 H         1 UNK         0.3000 
    185 H185        5.4811  -12.2563  -46.4785 H         1 UNK         0.0600 
    186 H186        7.8116  -12.7988  -45.6639 H         1 UNK         0.0600 
    187 H187        7.3846  -14.5033  -45.5678 H         1 UNK         0.0600 
    188 H188        7.4374  -13.6883  -47.1301 H         1 UNK         0.0600 
    189 H189        4.3329  -14.7498  -45.7281 H         1 UNK         0.3000 
    190 H190       -2.5376  -20.3475  -45.7984 H         1 UNK         0.3000 
    191 H191       -4.7206  -21.2421  -47.3119 H         1 UNK         0.0600 
    192 H192       -3.7514  -22.1791  -44.5603 H         1 UNK         0.0600 
    193 H193       -5.3634  -22.4427  -45.2159 H         1 UNK         0.0600 
    194 H194       -4.8128  -20.8085  -44.8760 H         1 UNK         0.0600 
    195 H195       -1.8446  -23.0790  -46.2367 H         1 UNK         0.3000 
    196 H196       -2.6449  -25.6188  -47.2477 H         1 UNK         0.0600 
    197 H197       -0.2262  -26.1865  -46.9408 H         1 UNK         0.0600 
    198 H198       -0.8877  -25.3713  -45.5319 H         1 UNK         0.0600 
    199 H199        0.1416  -24.4890  -46.6571 H         1 UNK         0.0600 
    200 H200       -0.5450  -23.0426  -48.6740 H         1 UNK         0.3000 
    201 H201        0.0060  -24.3688  -51.1210 H         1 UNK         0.0600 
    202 H202        1.3365  -22.4499  -50.2791 H         1 UNK         0.0600 
    203 H203       -0.0472  -21.3731  -50.4572 H         1 UNK         0.0600 
    204 H204        0.7057  -22.0890  -51.8768 H         1 UNK         0.0600 
    205 H205       -2.5854  -22.0833  -50.1998 H         1 UNK         0.3000 
    206 H206       -3.8932  -21.9931  -52.7487 H         1 UNK         0.0600 
    207 H207       -4.1100  -20.2565  -50.9336 H         1 UNK         0.0600 
    208 H208       -5.6659  -20.8575  -51.4550 H         1 UNK         0.0600 
    209 H209       -4.9773  -21.4206  -49.9335 H         1 UNK         0.0600 
    210 H210       -3.8365  -24.4627  -50.3574 H         1 UNK         0.3000 
    211 H211       -4.9650  -26.3206  -49.9285 H         1 UNK         0.0600 
    212 H212       -5.8630  -27.6145  -51.8471 H         1 UNK         0.0600 
    213 H213       -4.3353  -26.8656  -52.2862 H         1 UNK         0.0600 
    214 H214       -5.8512  -26.1807  -52.8648 H         1 UNK         0.0600 
    215 H215       -6.1537  -24.1840  -48.9125 H         1 UNK         0.3000 
    216 H216       -7.9748  -23.2111  -48.0986 H         1 UNK         0.0600 
    217 H217       -9.9858  -24.5490  -47.6310 H         1 UNK         0.0600 
    218 H218       -8.5535  -25.5182  -47.3274 H         1 UNK         0.0600 
    219 H219       -9.5012  -25.7759  -48.7915 H         1 UNK         0.0600 
    220 H220       -7.2787  -22.4445  -50.5784 H         1 UNK         0.3000 
    221 H221       -7.8164  -21.0056  -52.1455 H         1 UNK         0.0600 
    222 H222      -10.7104  -20.9791  -51.1704 H         1 UNK         0.0600 
    223 H223       -9.4118  -19.9903  -50.5014 H         1 UNK         0.0600 
    224 H224       -9.9161  -19.7726  -52.1676 H         1 UNK         0.0600 
    225 H225       -8.3217  -24.0522  -52.4515 H         1 UNK         0.3000 
    226 H226      -10.0539  -24.1669  -54.8144 H         1 UNK         0.0600 
    227 H227       -9.9306  -26.0623  -53.1907 H         1 UNK         0.0600 
    228 H228       -9.4376  -26.5583  -54.8034 H         1 UNK         0.0600 
    229 H229       -8.2218  -26.2777  -53.5645 H         1 UNK         0.0600 
    230 H230       -6.6044  -23.7841  -54.1214 H         1 UNK         0.3000 
    231 H231       -5.8756  -24.2023  -56.9993 H         1 UNK         0.0600 
    232 H232       -4.9718  -25.8734  -55.3522 H         1 UNK         0.0600 
    233 H233       -4.1893  -24.5656  -54.4671 H         1 UNK         0.0600 
    234 H234       -3.6995  -24.9353  -56.1137 H         1 UNK         0.0600 
    235 H235       -6.6036  -21.6852  -55.1722 H         1 UNK         0.3000 
    236 H236       -6.2027  -19.5186  -55.0781 H         1 UNK         0.0600 
    237 H237       -4.3623  -19.8673  -57.5071 H         1 UNK         0.0600 
    238 H238       -6.0850  -19.5102  -57.5360 H         1 UNK         0.0600 
    239 H239       -4.9552  -18.3413  -56.8723 H         1 UNK         0.0600 
    240 H240       -2.9205  -20.5769  -56.0126 H         1 UNK         0.3000 
    241 H241       -2.0740  -20.9100  -53.3908 H         1 UNK         0.0600 
    242 H242       -2.1174  -22.2384  -56.2097 H         1 UNK         0.3800 
    243 H243       -0.4884  -22.8513  -56.2895 H         1 UNK         0.3800 
    244 H244       -0.4387  -19.3413  -52.9020 H         1 UNK         0.0800 
    245 H245       -1.8563  -18.4266  -53.3058 H         1 UNK         0.0800 
    246 H246        1.0686  -16.0604  -54.4614 H         1 UNK         0.0800 
    247 H247       -0.6472  -15.8860  -54.2115 H         1 UNK         0.0800 
@<TRIPOS>BOND
     1    1    2 1    
     2    1  127 1    
     3    1  128 1    
     4    1  129 1    
     5    2    3 2    
     6    2    4 am   BACKBONE|DICT|INTERRES
     7    4    5 1    
     8    4  130 1    
     9    5    6 1    
    10    5   65 1    
    11    5  131 1    
    12    6    7 1    
    13    6  132 1    
    14    6  133 1    
    15    7    8 1    
    16    8    9 1    
    17    8  134 1    
    18    8  135 1    
    19    9   10 ar   
    20    9   14 ar   
    21   10   11 ar   
    22   10  136 1    
    23   11   12 ar   
    24   11  126 1    
    25   12   13 ar   
    26   12  137 1    
    27   13   14 ar   
    28   13   15 1    
    29   14  138 1    
    30   15   16 1    
    31   15  139 1    
    32   15  140 1    
    33   16   17 1    
    34   17   18 1    
    35   17  141 1    
    36   17  142 1    
    37   18   19 1    
    38   18   67 1    
    39   18  143 1    
    40   19   20 am   BACKBONE|DICT|INTERRES
    41   19  144 1    
    42   20   21 2    
    43   20   22 1    
    44   22   23 1    
    45   22   24 1    
    46   22  145 1    
    47   23  146 1    
    48   23  147 1    
    49   23  148 1    
    50   24   25 am   BACKBONE|DICT|INTERRES
    51   24  149 1    
    52   25   26 2    
    53   25   27 1    
    54   27   28 1    
    55   27   29 1    
    56   27  150 1    
    57   28  151 1    
    58   28  152 1    
    59   28  153 1    
    60   29   30 am   BACKBONE|DICT|INTERRES
    61   29  154 1    
    62   30   31 2    
    63   30   32 1    
    64   32   33 1    
    65   32   34 1    
    66   32  155 1    
    67   33  156 1    
    68   33  157 1    
    69   33  158 1    
    70   34   35 am   BACKBONE|DICT|INTERRES
    71   34  159 1    
    72   35   36 2    
    73   35   37 1    
    74   37   38 1    
    75   37   39 1    
    76   37  160 1    
    77   38  161 1    
    78   38  162 1    
    79   38  163 1    
    80   39   40 am   BACKBONE|DICT|INTERRES
    81   39  164 1    
    82   40   41 2    
    83   40   42 1    
    84   42   43 1    
    85   42   44 1    
    86   42  165 1    
    87   43  166 1    
    88   43  167 1    
    89   43  168 1    
    90   44   45 am   BACKBONE|DICT|INTERRES
    91   44  169 1    
    92   45   46 2    
    93   45   47 1    
    94   47   48 1    
    95   47   49 1    
    96   47  170 1    
    97   48  171 1    
    98   48  172 1    
    99   48  173 1    
   100   49   50 am   BACKBONE|DICT|INTERRES
   101   49  174 1    
   102   50   51 2    
   103   50   52 1    
   104   52   53 1    
   105   52   54 1    
   106   52  175 1    
   107   53  176 1    
   108   53  177 1    
   109   53  178 1    
   110   54   55 am   BACKBONE|DICT|INTERRES
   111   54  179 1    
   112   55   56 2    
   113   55   57 1    
   114   57   58 1    
   115   57   59 1    
   116   57  180 1    
   117   58  181 1    
   118   58  182 1    
   119   58  183 1    
   120   59   60 am   BACKBONE|DICT|INTERRES
   121   59  184 1    
   122   60   61 2    
   123   60   62 1    
   124   62   63 1    
   125   62   64 1    
   126   62  185 1    
   127   63  186 1    
   128   63  187 1    
   129   63  188 1    
   130   64   65 am   BACKBONE|DICT|INTERRES
   131   64  189 1    
   132   65   66 2    
   133   67   68 2    
   134   67   69 am   BACKBONE|DICT|INTERRES
   135   69   70 1    
   136   69  190 1    
   137   70   71 1    
   138   70   72 1    
   139   70  191 1    
   140   71  192 1    
   141   71  193 1    
   142   71  194 1    
   143   72   73 2    
   144   72   74 am   BACKBONE|DICT|INTERRES
   145   74   75 1    
   146   74  195 1    
   147   75   76 1    
   148   75   77 1    
   149   75  196 1    
   150   76  197 1    
   151   76  198 1    
   152   76  199 1    
   153   77   78 2    
   154   77   79 am   BACKBONE|DICT|INTERRES
   155   79   80 1    
   156   79  200 1    
   157   80   81 1    
   158   80   82 1    
   159   80  201 1    
   160   81  202 1    
   161   81  203 1    
   162   81  204 1    
   163   82   83 2    
   164   82   84 am   BACKBONE|DICT|INTERRES
   165   84   85 1    
   166   84  205 1    
   167   85   86 1    
   168   85   87 1    
   169   85  206 1    
   170   86  207 1    
   171   86  208 1    
   172   86  209 1    
   173   87   88 2    
   174   87   89 am   BACKBONE|DICT|INTERRES
   175   89   90 1    
   176   89  210 1    
   177   90   91 1    
   178   90   92 1    
   179   90  211 1    
   180   91  212 1    
   181   91  213 1    
   182   91  214 1    
   183   92   93 2    
   184   92   94 am   BACKBONE|DICT|INTERRES
   185   94   95 1    
   186   94  215 1    
   187   95   96 1    
   188   95   97 1    
   189   95  216 1    
   190   96  217 1    
   191   96  218 1    
   192   96  219 1    
   193   97   98 2    
   194   97   99 am   BACKBONE|DICT|INTERRES
   195   99  100 1    
   196   99  220 1    
   197  100  101 1    
   198  100  102 1    
   199  100  221 1    
   200  101  222 1    
   201  101  223 1    
   202  101  224 1    
   203  102  103 2    
   204  102  104 am   BACKBONE|DICT|INTERRES
   205  104  105 1    
   206  104  225 1    
   207  105  106 1    
   208  105  107 1    
   209  105  226 1    
   210  106  227 1    
   211  106  228 1    
   212  106  229 1    
   213  107  108 2    
   214  107  109 am   BACKBONE|DICT|INTERRES
   215  109  110 1    
   216  109  230 1    
   217  110  111 1    
   218  110  112 1    
   219  110  231 1    
   220  111  232 1    
   221  111  233 1    
   222  111  234 1    
   223  112  113 2    
   224  112  114 am   BACKBONE|DICT|INTERRES
   225  114  115 1    
   226  114  235 1    
   227  115  116 1    
   228  115  117 1    
   229  115  236 1    
   230  116  237 1    
   231  116  238 1    
   232  116  239 1    
   233  117  118 2    
   234  117  119 am   BACKBONE|DICT|INTERRES
   235  119  120 1    
   236  119  240 1    
   237  120  121 1    
   238  120  124 1    
   239  120  241 1    
   240  121  122 am   BACKBONE|DICT|INTERRES
   241  121  123 2    
   242  122  242 1    
   243  122  243 1    
   244  124  125 1    
   245  124  244 1    
   246  124  245 1    
   247  125  126 1    
   248  126  246 1    
   249  126  247 1    
@<TRIPOS>SUBSTRUCTURE
     1 UNK         1 GROUP             0       ****    0 ROOT    
