@<TRIPOS>MOLECULE
3R540
247   249    1
SMALL
USER_CHARGES


@<TRIPOS>ATOM
      1 CA          7.3211  -15.8798  -45.5992 C.3       0 UNK        -0.1800 
      2 C           6.1557  -14.9078  -45.7031 C.2       0 UNK         0.5000 
      3 O           5.5840  -14.5243  -44.6824 O.2       0 UNK        -0.5000 
      4 N           5.8139  -14.4862  -46.9293 N.am      1 UNK        -0.5000 
      5 CA          4.6663  -13.6259  -47.2619 C.3       1 UNK         0.1400 
      6 C6          4.4108  -13.5412  -48.7873 C.3       23 UNK        -0.0398 
      7 S7          4.0924  -15.1592  -49.5712 S.3       23 UNK        -0.2404 
      8 C8          2.4893  -15.6037  -48.8295 C.3       23 UNK        -0.0205 
      9 C9          1.6297  -16.4270  -49.7768 C.ar      23 UNK        -0.0193 
     10 C10         0.4914  -15.8623  -50.3573 C.ar      23 UNK        -0.1150 
     11 C11        -0.3449  -16.6184  -51.1826 C.ar      23 UNK        -0.0193 
     12 C12        -0.0158  -17.9572  -51.4330 C.ar      23 UNK        -0.1150 
     13 C13         1.1155  -18.5439  -50.8591 C.ar      23 UNK        -0.0193 
     14 C14         1.9432  -17.7631  -50.0406 C.ar      23 UNK        -0.1150 
     15 C15         1.3950  -20.0222  -51.1469 C.3       23 UNK        -0.0205 
     16 S16         2.3201  -20.9193  -49.8510 S.3       23 UNK        -0.2404 
     17 C17         1.3277  -20.5491  -48.3671 C.3       23 UNK        -0.0398 
     18 CA          0.7839  -21.7909  -47.6296 C.3       11 UNK         0.1400 
     19 N           0.3778  -21.4377  -46.2709 N.am      11 UNK        -0.5000 
     20 C           0.0069  -22.2947  -45.3132 C.2       10 UNK         0.5000 
     21 O           0.0109  -23.5179  -45.4472 O.2       10 UNK        -0.5000 
     22 CA         -0.4998  -21.6673  -44.0020 C.3       10 UNK         0.1400 
     23 CB          0.6736  -21.2338  -43.1110 C.3       10 UNK        -0.1800 
     24 N          -1.3838  -20.5238  -44.2401 N.am      10 UNK        -0.5000 
     25 C          -2.5874  -20.6129  -44.8249 C.2       9 UNK         0.5000 
     26 O          -3.0908  -21.6752  -45.1895 O.2       9 UNK        -0.5000 
     27 CA         -3.3417  -19.2954  -45.0753 C.3       9 UNK         0.1400 
     28 CB         -4.0385  -18.8197  -43.7922 C.3       9 UNK        -0.1800 
     29 N          -2.4765  -18.2334  -45.5871 N.am      9 UNK        -0.5000 
     30 C          -1.8562  -18.2701  -46.7756 C.2       8 UNK         0.5000 
     31 O          -1.9422  -19.2077  -47.5675 O.2       8 UNK        -0.5000 
     32 CA         -0.9218  -17.0940  -47.1083 C.3       8 UNK         0.1400 
     33 CB         -1.7198  -15.8663  -47.5692 C.3       8 UNK        -0.1800 
     34 N          -0.0473  -16.7266  -45.9933 N.am      8 UNK        -0.5000 
     35 C           0.8246  -17.5601  -45.4081 C.2       7 UNK         0.5000 
     36 O           0.9838  -18.7322  -45.7402 O.2       7 UNK        -0.5000 
     37 CA          1.6344  -17.0080  -44.2303 C.3       7 UNK         0.1400 
     38 CB          2.8256  -16.1831  -44.7288 C.3       7 UNK        -0.1800 
     39 N           0.8063  -16.2097  -43.3312 N.am      7 UNK        -0.5000 
     40 C          -0.0887  -16.7333  -42.4824 C.2       6 UNK         0.5000 
     41 O          -0.2656  -17.9426  -42.3296 O.2       6 UNK        -0.5000 
     42 CA         -0.9608  -15.7308  -41.7064 C.3       6 UNK         0.1400 
     43 CB         -0.2020  -15.1742  -40.4923 C.3       6 UNK        -0.1800 
     44 N          -1.4190  -14.6221  -42.5449 N.am      6 UNK        -0.5000 
     45 C          -2.2511  -14.7599  -43.5872 C.2       5 UNK         0.5000 
     46 O          -2.7301  -15.8359  -43.9429 O.2       5 UNK        -0.5000 
     47 CA         -2.5813  -13.4909  -44.3927 C.3       5 UNK         0.1400 
     48 CB         -3.8157  -12.7912  -43.8050 C.3       5 UNK        -0.1800 
     49 N          -1.4828  -12.5280  -44.4837 N.am      5 UNK        -0.5000 
     50 C          -0.2559  -12.7692  -44.9667 C.2       4 UNK         0.5000 
     51 O           0.1286  -13.8797  -45.3405 O.2       4 UNK        -0.5000 
     52 CA          0.7086  -11.5700  -45.0567 C.3       4 UNK         0.1400 
     53 CB          0.0880  -10.2150  -44.6463 C.3       4 UNK        -0.1800 
     54 N           1.9518  -11.7974  -44.3198 N.am      4 UNK        -0.5000 
     55 C           2.0960  -12.0572  -43.0108 C.2       3 UNK         0.5000 
     56 O           1.1463  -12.2153  -42.2417 O.2       3 UNK        -0.5000 
     57 CA          3.5362  -12.1521  -42.4554 C.3       3 UNK         0.1400 
     58 CB          3.7842  -13.5142  -41.7902 C.3       3 UNK        -0.1800 
     59 N           4.5687  -11.9216  -43.4715 N.am      3 UNK        -0.5000 
     60 C           4.9707  -10.7123  -43.8955 C.2       2 UNK         0.5000 
     61 O           4.5845   -9.6549  -43.3967 O.2       2 UNK        -0.5000 
     62 CA          5.9285  -10.6677  -45.1083 C.3       2 UNK         0.1400 
     63 CB          7.3850  -10.5364  -44.6388 C.3       2 UNK        -0.1800 
     64 N           5.8149  -11.8377  -45.9835 N.am      2 UNK        -0.5000 
     65 C           4.7037  -12.2132  -46.6328 C.2       1 UNK         0.5000 
     66 O           3.6960  -11.5089  -46.6914 O.2       1 UNK        -0.5000 
     67 C          -0.3612  -22.4771  -48.4015 C.2       11 UNK         0.5000 
     68 O          -0.1361  -23.5206  -49.0123 O.2       11 UNK        -0.5000 
     69 N          -1.5789  -21.9214  -48.3143 N.am      12 UNK        -0.5000 
     70 CA         -2.7908  -22.4951  -48.8974 C.3       12 UNK         0.1400 
     71 CB         -3.9544  -21.5016  -48.7763 C.3       12 UNK        -0.1800 
     72 C          -3.1644  -23.8562  -48.2880 C.2       12 UNK         0.5000 
     73 O          -3.5408  -24.7602  -49.0331 O.2       12 UNK        -0.5000 
     74 N          -3.0180  -23.9981  -46.9633 N.am      13 UNK        -0.5000 
     75 CA         -3.2116  -25.2584  -46.2450 C.3       13 UNK         0.1400 
     76 CB         -3.1679  -25.0119  -44.7296 C.3       13 UNK        -0.1800 
     77 C          -2.1924  -26.3337  -46.6641 C.2       13 UNK         0.5000 
     78 O          -2.5889  -27.4676  -46.9343 O.2       13 UNK        -0.5000 
     79 N          -0.9117  -25.9493  -46.7696 N.am      14 UNK        -0.5000 
     80 CA          0.1790  -26.8002  -47.2561 C.3       14 UNK         0.1400 
     81 CB          1.5201  -26.0780  -47.0573 C.3       14 UNK        -0.1800 
     82 C           0.0007  -27.2289  -48.7264 C.2       14 UNK         0.5000 
     83 O           0.3254  -28.3645  -49.0742 O.2       14 UNK        -0.5000 
     84 N          -0.5540  -26.3292  -49.5489 N.am      15 UNK        -0.5000 
     85 CA         -0.9287  -26.5648  -50.9440 C.3       15 UNK         0.1400 
     86 CB         -1.0366  -25.2078  -51.6617 C.3       15 UNK        -0.1800 
     87 C          -2.2359  -27.3694  -51.1112 C.2       15 UNK         0.5000 
     88 O          -2.6253  -27.6323  -52.2484 O.2       15 UNK        -0.5000 
     89 N          -2.9091  -27.7223  -50.0048 N.am      16 UNK        -0.5000 
     90 CA         -4.1860  -28.4425  -49.9379 C.3       16 UNK         0.1400 
     91 CB         -4.0235  -29.8948  -50.4334 C.3       16 UNK        -0.1800 
     92 C          -5.3330  -27.6830  -50.6389 C.2       16 UNK         0.5000 
     93 O          -6.1317  -28.2832  -51.3595 O.2       16 UNK        -0.5000 
     94 N          -5.3679  -26.3614  -50.4172 N.am      17 UNK        -0.5000 
     95 CA         -6.3144  -25.3706  -50.9375 C.3       17 UNK         0.1400 
     96 CB         -7.7701  -25.7199  -50.5654 C.3       17 UNK        -0.1800 
     97 C          -6.1517  -25.0495  -52.4371 C.2       17 UNK         0.5000 
     98 O          -6.9530  -24.2803  -52.9696 O.2       17 UNK        -0.5000 
     99 N          -5.1013  -25.5696  -53.0927 N.am      18 UNK        -0.5000 
    100 CA        -4.7959  -25.3131  -54.5072 C.3       18 UNK         0.1400 
    101 CB        -3.6860  -26.2646  -54.9755 C.3       18 UNK        -0.1800 
    102 C         -4.4141  -23.8484  -54.8080 C.2       18 UNK         0.5000 
    103 O         -4.5344  -23.4147  -55.9540 O.2       18 UNK        -0.5000 
    104 N         -3.9936  -23.1057  -53.7734 N.am      19 UNK        -0.5000 
    105 CA        -3.7366  -21.6643  -53.8223 C.3       19 UNK         0.1400 
    106 CB        -2.8620  -21.2774  -52.6208 C.3       19 UNK        -0.1800 
    107 C         -5.0265  -20.8124  -53.8602 C.2       19 UNK         0.5000 
    108 O         -4.9379  -19.6111  -54.1143 O.2       19 UNK        -0.5000 
    109 N         -6.1908  -21.4381  -53.6181 N.am      20 UNK        -0.5000 
    110 CA        -7.5441  -20.8859  -53.7074 C.3       20 UNK         0.1400 
    111 CB        -7.9236  -20.6518  -55.1868 C.3       20 UNK        -0.1800 
    112 C         -7.7465  -19.6510  -52.8064 C.2       20 UNK         0.5000 
    113 O         -7.8440  -19.8045  -51.5872 O.2       20 UNK        -0.5000 
    114 N         -7.7967  -18.4576  -53.4162 N.am      21 UNK        -0.5000 
    115 CA        -8.0531  -17.1575  -52.7878 C.3       21 UNK         0.1400 
    116 CB        -8.0717  -16.0785  -53.8817 C.3       21 UNK        -0.1800 
    117 C         -7.0743  -16.7650  -51.6626 C.2       21 UNK         0.5000 
    118 O         -7.4270  -15.9311  -50.8272 O.2       21 UNK        -0.5000 
    119 N         -5.8830  -17.3755  -51.6433 N.am      22 UNK        -0.5000 
    120 CA        -4.9091  -17.2669  -50.5454 C.3       22 UNK         0.1400 
    121 C         -5.3830  -17.9133  -49.2090 C.2       22 UNK         0.5000 
    122 N         -6.3477  -18.8278  -49.2135 N.am      22 UNK        -0.7600 
    123 O         -4.8774  -17.5628  -48.1483 O.2       22 UNK        -0.5000 
    124 C124       -3.5230  -17.8266  -50.9481 C.3       23 UNK        -0.0398 
    125 S125       -2.8556  -17.0527  -52.4621 S.3       23 UNK        -0.2404 
    126 C126       -1.5766  -15.9383  -51.7853 C.3       23 UNK        -0.0205 
    127 H127        8.1136  -15.4506  -44.9864 H         1 UNK         0.0600 
    128 H128        7.7376  -16.1197  -46.5777 H         1 UNK         0.0600 
    129 H129        6.9918  -16.8078  -45.1321 H         1 UNK         0.0600 
    130 H130        6.3315  -14.8321  -47.7252 H         1 UNK         0.3000 
    131 H131        3.7933  -14.1019  -46.8135 H         1 UNK         0.0600 
    132 H132        3.5574  -12.8961  -49.0061 H         1 UNK         0.0800 
    133 H133        5.2666  -13.0847  -49.2872 H         1 UNK         0.0800 
    134 H134        1.9532  -14.7018  -48.5294 H         1 UNK         0.0800 
    135 H135        2.6635  -16.1710  -47.9145 H         1 UNK         0.0800 
    136 H136        0.2464  -14.8288  -50.1554 H         1 UNK         0.1150 
    137 H137       -0.6407  -18.5593  -52.0756 H         1 UNK         0.1150 
    138 H138        2.8271  -18.1916  -49.5910 H         1 UNK         0.1150 
    139 H139        0.4530  -20.5503  -51.3057 H         1 UNK         0.0800 
    140 H140        1.9503  -20.0936  -52.0827 H         1 UNK         0.0800 
    141 H141        0.5147  -19.8604  -48.5991 H         1 UNK         0.0800 
    142 H142        1.9987  -19.9995  -47.7070 H         1 UNK         0.0800 
    143 H143        1.5968  -22.5141  -47.5359 H         1 UNK         0.0600 
    144 H144        0.3861  -20.4438  -46.0512 H         1 UNK         0.3000 
    145 H145       -1.0700  -22.4294  -43.4668 H         1 UNK         0.0600 
    146 H146        0.3200  -20.8532  -42.1526 H         1 UNK         0.0600 
    147 H147        1.3373  -22.0741  -42.9034 H         1 UNK         0.0600 
    148 H148        1.2704  -20.4510  -43.5801 H         1 UNK         0.0600 
    149 H149       -1.0357  -19.6130  -43.9707 H         1 UNK         0.3000 
    150 H150       -4.1091  -19.4890  -45.8279 H         1 UNK         0.0600 
    151 H151       -4.6911  -19.5954  -43.3896 H         1 UNK         0.0600 
    152 H152       -4.6564  -17.9422  -43.9840 H         1 UNK         0.0600 
    153 H153       -3.3177  -18.5575  -43.0164 H         1 UNK         0.0600 
    154 H154       -2.3787  -17.4073  -45.0031 H         1 UNK         0.3000 
    155 H155       -0.2805  -17.4115  -47.9315 H         1 UNK         0.0600 
    156 H156       -2.4395  -15.5531  -46.8147 H         1 UNK         0.0600 
    157 H157       -2.2804  -16.0861  -48.4774 H         1 UNK         0.0600 
    158 H158       -1.0645  -15.0225  -47.7855 H         1 UNK         0.0600 
    159 H159       -0.0913  -15.7631  -45.6730 H         1 UNK         0.3000 
    160 H160        2.0304  -17.8624  -43.6768 H         1 UNK         0.0600 
    161 H161        2.5201  -15.2062  -45.1033 H         1 UNK         0.0600 
    162 H162        3.3569  -16.6960  -45.5316 H         1 UNK         0.0600 
    163 H163        3.5435  -16.0328  -43.9256 H         1 UNK         0.0600 
    164 H164        0.8327  -15.2069  -43.4523 H         1 UNK         0.3000 
    165 H165       -1.8409  -16.2661  -41.3437 H         1 UNK         0.0600 
    166 H166       -0.8376  -14.5188  -39.8967 H         1 UNK         0.0600 
    167 H167        0.1356  -15.9805  -39.8399 H         1 UNK         0.0600 
    168 H168        0.6779  -14.6045  -40.7929 H         1 UNK         0.0600 
    169 H169       -1.0403  -13.7065  -42.3433 H         1 UNK         0.3000 
    170 H170       -2.8244  -13.7994  -45.4098 H         1 UNK         0.0600 
    171 H171       -4.6623  -13.4769  -43.7456 H         1 UNK         0.0600 
    172 H172       -3.6250  -12.4170  -42.7983 H         1 UNK         0.0600 
    173 H173       -4.1253  -11.9491  -44.4242 H         1 UNK         0.0600 
    174 H174       -1.6915  -11.5876  -44.1820 H         1 UNK         0.3000 
    175 H175        0.9873  -11.4949  -46.1086 H         1 UNK         0.0600 
    176 H176       -0.2184  -10.2006  -43.5996 H         1 UNK         0.0600 
    177 H177        0.8037   -9.4049  -44.7878 H         1 UNK         0.0600 
    178 H178       -0.7839   -9.9761  -45.2567 H         1 UNK         0.0600 
    179 H179        2.7887  -11.7113  -44.8841 H         1 UNK         0.3000 
    180 H180        3.6278  -11.3862  -41.6826 H         1 UNK         0.0600 
    181 H181        3.6764  -14.3302  -42.5011 H         1 UNK         0.0600 
    182 H182        3.0790  -13.6909  -40.9773 H         1 UNK         0.0600 
    183 H183        4.7870  -13.5699  -41.3666 H         1 UNK         0.0600 
    184 H184        4.9449  -12.7504  -43.9234 H         1 UNK         0.3000 
    185 H185        5.6740   -9.7836  -45.6965 H         1 UNK         0.0600 
    186 H186        7.5135   -9.6586  -44.0041 H         1 UNK         0.0600 
    187 H187        7.7015  -11.4073  -44.0632 H         1 UNK         0.0600 
    188 H188        8.0643  -10.4266  -45.4844 H         1 UNK         0.0600 
    189 H189        6.5889  -12.4857  -45.9699 H         1 UNK         0.3000 
    190 H190       -1.6863  -21.0299  -47.8349 H         1 UNK         0.3000 
    191 H191       -2.5933  -22.6600  -49.9570 H         1 UNK         0.0600 
    192 H192       -4.1910  -21.2820  -47.7349 H         1 UNK         0.0600 
    193 H193       -4.8578  -21.8941  -49.2448 H         1 UNK         0.0600 
    194 H194       -3.7173  -20.5583  -49.2667 H         1 UNK         0.0600 
    195 H195       -2.7650  -23.1874  -46.4061 H         1 UNK         0.3000 
    196 H196       -4.2069  -25.6318  -46.4950 H         1 UNK         0.0600 
    197 H197       -3.3358  -25.9381  -44.1788 H         1 UNK         0.0600 
    198 H198       -3.9410  -24.3068  -44.4238 H         1 UNK         0.0600 
    199 H199       -2.2063  -24.6104  -44.4110 H         1 UNK         0.0600 
    200 H200       -0.6601  -25.0049  -46.4892 H         1 UNK         0.3000 
    201 H201        0.1884  -27.7066  -46.6475 H         1 UNK         0.0600 
    202 H202        1.6861  -25.8376  -46.0071 H         1 UNK         0.0600 
    203 H203        1.5645  -25.1473  -47.6234 H         1 UNK         0.0600 
    204 H204        2.3526  -26.7020  -47.3845 H         1 UNK         0.0600 
    205 H205       -0.7106  -25.3891  -49.1970 H         1 UNK         0.3000 
    206 H206       -0.1332  -27.1389  -51.4229 H         1 UNK         0.0600 
    207 H207       -0.1116  -24.6381  -51.5707 H         1 UNK         0.0600 
    208 H208       -1.2290  -25.3376  -52.7267 H         1 UNK         0.0600 
    209 H209       -1.8447  -24.6012  -51.2535 H         1 UNK         0.0600 
    210 H210       -2.5299  -27.4386  -49.1096 H         1 UNK         0.3000 
    211 H211       -4.4545  -28.4857  -48.8815 H         1 UNK         0.0600 
    212 H212       -3.8058  -29.9389  -51.5008 H         1 UNK         0.0600 
    213 H213       -4.9343  -30.4695  -50.2621 H         1 UNK         0.0600 
    214 H214       -3.2163  -30.4022  -49.9051 H         1 UNK         0.0600 
    215 H215       -4.6290  -25.9596  -49.8404 H         1 UNK         0.3000 
    216 H216       -6.0678  -24.4437  -50.4177 H         1 UNK         0.0600 
    217 H217       -8.4404  -24.8899  -50.7917 H         1 UNK         0.0600 
    218 H218       -7.8659  -25.9301  -49.5002 H         1 UNK         0.0600 
    219 H219       -8.1350  -26.5877  -51.1150 H         1 UNK         0.0600 
    220 H220       -4.4857  -26.2070  -52.6039 H         1 UNK         0.3000 
    221 H221       -5.6957  -25.5368  -55.0840 H         1 UNK         0.0600 
    222 H222       -2.7443  -26.0670  -54.4637 H         1 UNK         0.0600 
    223 H223       -3.9548  -27.3058  -54.7960 H         1 UNK         0.0600 
    224 H224       -3.5046  -26.1559  -56.0455 H         1 UNK         0.0600 
    225 H225       -3.9149  -23.5517  -52.8723 H         1 UNK         0.3000 
    226 H226       -3.1746  -21.4482  -54.7332 H         1 UNK         0.0600 
    227 H227       -2.4981  -20.2550  -52.7244 H         1 UNK         0.0600 
    228 H228       -3.4218  -21.3366  -51.6884 H         1 UNK         0.0600 
    229 H229       -1.9866  -21.9219  -52.5356 H         1 UNK         0.0600 
    230 H230       -6.1626  -22.4265  -53.3952 H         1 UNK         0.3000 
    231 H231       -8.2135  -21.6547  -53.3185 H         1 UNK         0.0600 
    232 H232       -7.8866  -21.5868  -55.7461 H         1 UNK         0.0600 
    233 H233       -7.2528  -19.9492  -55.6824 H         1 UNK         0.0600 
    234 H234       -8.9398  -20.2656  -55.2771 H         1 UNK         0.0600 
    235 H235       -7.6547  -18.4422  -54.4156 H         1 UNK         0.3000 
    236 H236       -9.0475  -17.2073  -52.3401 H         1 UNK         0.0600 
    237 H237       -8.2932  -15.0967  -53.4609 H         1 UNK         0.0600 
    238 H238       -7.1094  -16.0080  -54.3905 H         1 UNK         0.0600 
    239 H239       -8.8351  -16.2877  -54.6313 H         1 UNK         0.0600 
    240 H240       -5.6592  -18.0272  -52.3839 H         1 UNK         0.3000 
    241 H241       -4.7804  -16.2031  -50.3368 H         1 UNK         0.0600 
    242 H242       -6.8024  -19.1140  -50.0753 H         1 UNK         0.3800 
    243 H243       -6.6506  -19.2228  -48.3388 H         1 UNK         0.3800 
    244 H244       -3.5976  -18.8988  -51.1259 H         1 UNK         0.0800 
    245 H245       -2.8054  -17.7112  -50.1344 H         1 UNK         0.0800 
    246 H246       -1.2407  -15.2819  -52.5888 H         1 UNK         0.0800 
    247 H247       -2.0434  -15.2952  -51.0376 H         1 UNK         0.0800 
@<TRIPOS>BOND
     1    1    2 1    
     2    1  127 1    
     3    1  128 1    
     4    1  129 1    
     5    2    3 2    
     6    2    4 am   BACKBONE|DICT|INTERRES
     7    4    5 1    
     8    4  130 1    
     9    5    6 1    
    10    5   65 1    
    11    5  131 1    
    12    6    7 1    
    13    6  132 1    
    14    6  133 1    
    15    7    8 1    
    16    8    9 1    
    17    8  134 1    
    18    8  135 1    
    19    9   10 ar   
    20    9   14 ar   
    21   10   11 ar   
    22   10  136 1    
    23   11   12 ar   
    24   11  126 1    
    25   12   13 ar   
    26   12  137 1    
    27   13   14 ar   
    28   13   15 1    
    29   14  138 1    
    30   15   16 1    
    31   15  139 1    
    32   15  140 1    
    33   16   17 1    
    34   17   18 1    
    35   17  141 1    
    36   17  142 1    
    37   18   19 1    
    38   18   67 1    
    39   18  143 1    
    40   19   20 am   BACKBONE|DICT|INTERRES
    41   19  144 1    
    42   20   21 2    
    43   20   22 1    
    44   22   23 1    
    45   22   24 1    
    46   22  145 1    
    47   23  146 1    
    48   23  147 1    
    49   23  148 1    
    50   24   25 am   BACKBONE|DICT|INTERRES
    51   24  149 1    
    52   25   26 2    
    53   25   27 1    
    54   27   28 1    
    55   27   29 1    
    56   27  150 1    
    57   28  151 1    
    58   28  152 1    
    59   28  153 1    
    60   29   30 am   BACKBONE|DICT|INTERRES
    61   29  154 1    
    62   30   31 2    
    63   30   32 1    
    64   32   33 1    
    65   32   34 1    
    66   32  155 1    
    67   33  156 1    
    68   33  157 1    
    69   33  158 1    
    70   34   35 am   BACKBONE|DICT|INTERRES
    71   34  159 1    
    72   35   36 2    
    73   35   37 1    
    74   37   38 1    
    75   37   39 1    
    76   37  160 1    
    77   38  161 1    
    78   38  162 1    
    79   38  163 1    
    80   39   40 am   BACKBONE|DICT|INTERRES
    81   39  164 1    
    82   40   41 2    
    83   40   42 1    
    84   42   43 1    
    85   42   44 1    
    86   42  165 1    
    87   43  166 1    
    88   43  167 1    
    89   43  168 1    
    90   44   45 am   BACKBONE|DICT|INTERRES
    91   44  169 1    
    92   45   46 2    
    93   45   47 1    
    94   47   48 1    
    95   47   49 1    
    96   47  170 1    
    97   48  171 1    
    98   48  172 1    
    99   48  173 1    
   100   49   50 am   BACKBONE|DICT|INTERRES
   101   49  174 1    
   102   50   51 2    
   103   50   52 1    
   104   52   53 1    
   105   52   54 1    
   106   52  175 1    
   107   53  176 1    
   108   53  177 1    
   109   53  178 1    
   110   54   55 am   BACKBONE|DICT|INTERRES
   111   54  179 1    
   112   55   56 2    
   113   55   57 1    
   114   57   58 1    
   115   57   59 1    
   116   57  180 1    
   117   58  181 1    
   118   58  182 1    
   119   58  183 1    
   120   59   60 am   BACKBONE|DICT|INTERRES
   121   59  184 1    
   122   60   61 2    
   123   60   62 1    
   124   62   63 1    
   125   62   64 1    
   126   62  185 1    
   127   63  186 1    
   128   63  187 1    
   129   63  188 1    
   130   64   65 am   BACKBONE|DICT|INTERRES
   131   64  189 1    
   132   65   66 2    
   133   67   68 2    
   134   67   69 am   BACKBONE|DICT|INTERRES
   135   69   70 1    
   136   69  190 1    
   137   70   71 1    
   138   70   72 1    
   139   70  191 1    
   140   71  192 1    
   141   71  193 1    
   142   71  194 1    
   143   72   73 2    
   144   72   74 am   BACKBONE|DICT|INTERRES
   145   74   75 1    
   146   74  195 1    
   147   75   76 1    
   148   75   77 1    
   149   75  196 1    
   150   76  197 1    
   151   76  198 1    
   152   76  199 1    
   153   77   78 2    
   154   77   79 am   BACKBONE|DICT|INTERRES
   155   79   80 1    
   156   79  200 1    
   157   80   81 1    
   158   80   82 1    
   159   80  201 1    
   160   81  202 1    
   161   81  203 1    
   162   81  204 1    
   163   82   83 2    
   164   82   84 am   BACKBONE|DICT|INTERRES
   165   84   85 1    
   166   84  205 1    
   167   85   86 1    
   168   85   87 1    
   169   85  206 1    
   170   86  207 1    
   171   86  208 1    
   172   86  209 1    
   173   87   88 2    
   174   87   89 am   BACKBONE|DICT|INTERRES
   175   89   90 1    
   176   89  210 1    
   177   90   91 1    
   178   90   92 1    
   179   90  211 1    
   180   91  212 1    
   181   91  213 1    
   182   91  214 1    
   183   92   93 2    
   184   92   94 am   BACKBONE|DICT|INTERRES
   185   94   95 1    
   186   94  215 1    
   187   95   96 1    
   188   95   97 1    
   189   95  216 1    
   190   96  217 1    
   191   96  218 1    
   192   96  219 1    
   193   97   98 2    
   194   97   99 am   BACKBONE|DICT|INTERRES
   195   99  100 1    
   196   99  220 1    
   197  100  101 1    
   198  100  102 1    
   199  100  221 1    
   200  101  222 1    
   201  101  223 1    
   202  101  224 1    
   203  102  103 2    
   204  102  104 am   BACKBONE|DICT|INTERRES
   205  104  105 1    
   206  104  225 1    
   207  105  106 1    
   208  105  107 1    
   209  105  226 1    
   210  106  227 1    
   211  106  228 1    
   212  106  229 1    
   213  107  108 2    
   214  107  109 am   BACKBONE|DICT|INTERRES
   215  109  110 1    
   216  109  230 1    
   217  110  111 1    
   218  110  112 1    
   219  110  231 1    
   220  111  232 1    
   221  111  233 1    
   222  111  234 1    
   223  112  113 2    
   224  112  114 am   BACKBONE|DICT|INTERRES
   225  114  115 1    
   226  114  235 1    
   227  115  116 1    
   228  115  117 1    
   229  115  236 1    
   230  116  237 1    
   231  116  238 1    
   232  116  239 1    
   233  117  118 2    
   234  117  119 am   BACKBONE|DICT|INTERRES
   235  119  120 1    
   236  119  240 1    
   237  120  121 1    
   238  120  124 1    
   239  120  241 1    
   240  121  122 am   BACKBONE|DICT|INTERRES
   241  121  123 2    
   242  122  242 1    
   243  122  243 1    
   244  124  125 1    
   245  124  244 1    
   246  124  245 1    
   247  125  126 1    
   248  126  246 1    
   249  126  247 1    
@<TRIPOS>SUBSTRUCTURE
     1 UNK         1 GROUP             0       ****    0 ROOT    
