@<TRIPOS>MOLECULE
3R540
247   249    1
SMALL
USER_CHARGES


@<TRIPOS>ATOM
      1 CA         -0.2435  -14.1487  -51.0524 C.3       0 UNK        -0.1800 
      2 C           0.8469  -13.3539  -50.3488 C.2       0 UNK         0.5000 
      3 O           0.9091  -12.1319  -50.4883 O.2       0 UNK        -0.5000 
      4 N           1.6952  -14.0360  -49.5697 N.am      1 UNK        -0.5000 
      5 CA          2.7657  -13.4648  -48.7431 C.3       1 UNK         0.1400 
      6 C6          3.9447  -14.4597  -48.5319 C.3       23 UNK        -0.0398 
      7 S7          3.4518  -16.1738  -48.1202 S.3       23 UNK        -0.2404 
      8 C8          3.6143  -16.9962  -49.7387 C.3       23 UNK        -0.0205 
      9 C9          2.5989  -18.1180  -49.8880 C.ar      23 UNK        -0.0193 
     10 C10         1.2698  -17.8088  -50.1836 C.ar      23 UNK        -0.1150 
     11 C11         0.3110  -18.8157  -50.3052 C.ar      23 UNK        -0.0193 
     12 C12         0.6958  -20.1499  -50.1463 C.ar      23 UNK        -0.1150 
     13 C13         2.0290  -20.4795  -49.8776 C.ar      23 UNK        -0.0193 
     14 C14         2.9765  -19.4569  -49.7467 C.ar      23 UNK        -0.1150 
     15 C15         2.4366  -21.9444  -49.7559 C.3       23 UNK        -0.0205 
     16 S16         3.3180  -22.3465  -48.2082 S.3       23 UNK        -0.2404 
     17 C17         2.1864  -21.7173  -46.9231 C.3       23 UNK        -0.0398 
     18 CA          1.2264  -22.7825  -46.3426 C.3       11 UNK         0.1400 
     19 N           0.6670  -22.3493  -45.0618 N.am      11 UNK        -0.5000 
     20 C          -0.1076  -23.0860  -44.2548 C.2       10 UNK         0.5000 
     21 O          -0.3974  -24.2632  -44.4680 O.2       10 UNK        -0.5000 
     22 CA         -0.7001  -22.3658  -43.0289 C.3       10 UNK         0.1400 
     23 CB          0.3306  -22.2703  -41.8944 C.3       10 UNK        -0.1800 
     24 N          -1.2027  -21.0290  -43.3553 N.am      10 UNK        -0.5000 
     25 C          -2.2284  -20.7955  -44.1876 C.2       9 UNK         0.5000 
     26 O          -2.8883  -21.6865  -44.7223 O.2       9 UNK        -0.5000 
     27 CA         -2.5489  -19.3247  -44.5102 C.3       9 UNK         0.1400 
     28 CB         -3.3704  -18.6857  -43.3808 C.3       9 UNK        -0.1800 
     29 N          -1.3536  -18.5204  -44.7630 N.am      9 UNK        -0.5000 
     30 C          -0.4862  -18.7338  -45.7634 C.2       8 UNK         0.5000 
     31 O          -0.6106  -19.6296  -46.5956 O.2       8 UNK        -0.5000 
     32 CA          0.7667  -17.8401  -45.7934 C.3       8 UNK         0.1400 
     33 CB          0.4222  -16.4322  -46.3061 C.3       8 UNK        -0.1800 
     34 N           1.4040  -17.7482  -44.4778 N.am      8 UNK        -0.5000 
     35 C           1.8802  -18.7897  -43.7794 C.2       7 UNK         0.5000 
     36 O           1.8846  -19.9473  -44.1916 O.2       7 UNK        -0.5000 
     37 CA          2.3829  -18.5052  -42.3558 C.3       7 UNK         0.1400 
     38 CB          3.8404  -18.0202  -42.3696 C.3       7 UNK        -0.1800 
     39 N           1.5331  -17.5295  -41.6764 N.am      7 UNK        -0.5000 
     40 C           0.2976  -17.7922  -41.2275 C.2       6 UNK         0.5000 
     41 O          -0.2309  -18.9029  -41.2903 O.2       6 UNK        -0.5000 
     42 CA         -0.4922  -16.6025  -40.6491 C.3       6 UNK         0.1400 
     43 CB         -0.1141  -16.3627  -39.1799 C.3       6 UNK        -0.1800 
     44 N          -0.2897  -15.3681  -41.4112 N.am      6 UNK        -0.5000 
     45 C          -0.7150  -15.1857  -42.6689 C.2       5 UNK         0.5000 
     46 O          -1.3645  -16.0232  -43.2937 O.2       5 UNK        -0.5000 
     47 CA         -0.3216  -13.8666  -43.3627 C.3       5 UNK         0.1400 
     48 CB         -1.3881  -12.7933  -43.0989 C.3       5 UNK        -0.1800 
     49 N           1.0011  -13.3401  -43.0031 N.am      5 UNK        -0.5000 
     50 C           2.1592  -14.0125  -43.0871 C.2       4 UNK         0.5000 
     51 O           2.2324  -15.2023  -43.3924 O.2       4 UNK        -0.5000 
     52 CA          3.4373  -13.2023  -42.8195 C.3       4 UNK         0.1400 
     53 CB          4.7231  -14.0421  -42.9266 C.3       4 UNK        -0.1800 
     54 N           3.4840  -12.1195  -43.7922 N.am      4 UNK        -0.5000 
     55 C           3.7773  -10.8395  -43.5322 C.2       3 UNK         0.5000 
     56 O           4.1586  -10.4345  -42.4334 O.2       3 UNK        -0.5000 
     57 CA          3.5841   -9.8308  -44.6867 C.3       3 UNK         0.1400 
     58 CB          4.9235   -9.5500  -45.3847 C.3       3 UNK        -0.1800 
     59 N           2.6118  -10.2777  -45.6886 N.am      3 UNK        -0.5000 
     60 C           1.3126  -10.5072  -45.4510 C.2       2 UNK         0.5000 
     61 O           0.7583  -10.2167  -44.3908 O.2       2 UNK        -0.5000 
     62 CA          0.5014  -11.2213  -46.5518 C.3       2 UNK         0.1400 
     63 CB         -0.4772  -10.2449  -47.2212 C.3       2 UNK        -0.1800 
     64 N           1.2930  -11.8816  -47.5962 N.am      2 UNK        -0.5000 
     65 C           2.1866  -12.8689  -47.4378 C.2       1 UNK         0.5000 
     66 O           2.5388  -13.2917  -46.3367 O.2       1 UNK        -0.5000 
     67 C           0.1147  -23.1597  -47.3415 C.2       11 UNK         0.5000 
     68 O           0.1669  -24.2431  -47.9213 O.2       11 UNK        -0.5000 
     69 N          -0.8916  -22.2867  -47.4900 N.am      12 UNK        -0.5000 
     70 CA         -2.0623  -22.4979  -48.3396 C.3       12 UNK         0.1400 
     71 CB         -2.9326  -21.2343  -48.3452 C.3       12 UNK        -0.1800 
     72 C          -2.8933  -23.7234  -47.9286 C.2       12 UNK         0.5000 
     73 O          -3.3151  -24.4812  -48.8017 O.2       12 UNK        -0.5000 
     74 N          -3.0835  -23.9171  -46.6164 N.am      13 UNK        -0.5000 
     75 CA         -3.7580  -25.0810  -46.0431 C.3       13 UNK         0.1400 
     76 CB         -3.9902  -24.8586  -44.5411 C.3       13 UNK        -0.1800 
     77 C          -2.9906  -26.3917  -46.2949 C.2       13 UNK         0.5000 
     78 O          -3.6070  -27.3863  -46.6778 O.2       13 UNK        -0.5000 
     79 N          -1.6628  -26.3620  -46.1109 N.am      14 UNK        -0.5000 
     80 CA         -0.7627  -27.4899  -46.3609 C.3       14 UNK         0.1400 
     81 CB          0.6294  -27.1695  -45.7954 C.3       14 UNK        -0.1800 
     82 C          -0.6731  -27.8674  -47.8517 C.2       14 UNK         0.5000 
     83 O          -0.6767  -29.0542  -48.1808 O.2       14 UNK        -0.5000 
     84 N          -0.6149  -26.8531  -48.7245 N.am      15 UNK        -0.5000 
     85 CA         -0.5828  -26.9989  -50.1809 C.3       15 UNK         0.1400 
     86 CB         -0.0913  -25.6786  -50.7970 C.3       15 UNK        -0.1800 
     87 C          -1.9420  -27.3911  -50.7933 C.2       15 UNK         0.5000 
     88 O          -1.9703  -27.8453  -51.9377 O.2       15 UNK        -0.5000 
     89 N          -3.0326  -27.1811  -50.0400 N.am      16 UNK        -0.5000 
     90 CA         -4.4370  -27.2875  -50.4500 C.3       16 UNK         0.1400 
     91 CB         -4.8138  -28.7441  -50.7905 C.3       16 UNK        -0.1800 
     92 C          -4.7756  -26.2844  -51.5734 C.2       16 UNK         0.5000 
     93 O          -5.4258  -26.6353  -52.5610 O.2       16 UNK        -0.5000 
     94 N          -4.3014  -25.0435  -51.4035 N.am      17 UNK        -0.5000 
     95 CA         -4.4196  -23.9370  -52.3503 C.3       17 UNK         0.1400 
     96 CB         -3.2978  -22.9217  -52.0683 C.3       17 UNK        -0.1800 
     97 C          -5.8231  -23.3003  -52.3130 C.2       17 UNK         0.5000 
     98 O          -5.9770  -22.1472  -51.9070 O.2       17 UNK        -0.5000 
     99 N          -6.8302  -24.0790  -52.7269 N.am      18 UNK        -0.5000 
    100 CA        -8.2142  -23.6320  -52.8990 C.3       18 UNK         0.1400 
    101 CB        -9.1326  -24.8616  -52.9676 C.3       18 UNK        -0.1800 
    102 C         -8.3926  -22.7487  -54.1505 C.2       18 UNK         0.5000 
    103 O         -9.2743  -21.8888  -54.1695 O.2       18 UNK        -0.5000 
    104 N         -7.5499  -22.9760  -55.1667 N.am      19 UNK        -0.5000 
    105 CA        -7.4452  -22.1594  -56.3739 C.3       19 UNK         0.1400 
    106 CB        -6.7841  -23.0033  -57.4760 C.3       19 UNK        -0.1800 
    107 C         -6.6308  -20.8775  -56.1133 C.2       19 UNK         0.5000 
    108 O         -5.8566  -20.8225  -55.1545 O.2       19 UNK        -0.5000 
    109 N         -6.7957  -19.8894  -57.0034 N.am      20 UNK        -0.5000 
    110 CA        -6.1675  -18.5643  -56.9726 C.3       20 UNK         0.1400 
    111 CB        -4.6357  -18.6683  -57.1621 C.3       20 UNK        -0.1800 
    112 C         -6.6119  -17.7527  -55.7359 C.2       20 UNK         0.5000 
    113 O         -7.8166  -17.6488  -55.4937 O.2       20 UNK        -0.5000 
    114 N         -5.6606  -17.1765  -54.9949 N.am      21 UNK        -0.5000 
    115 CA        -5.8859  -16.3677  -53.8019 C.3       21 UNK         0.1400 
    116 CB        -6.1514  -14.9071  -54.2125 C.3       21 UNK        -0.1800 
    117 C         -4.6650  -16.4761  -52.8764 C.2       21 UNK         0.5000 
    118 O         -3.6109  -16.9626  -53.2959 O.2       21 UNK        -0.5000 
    119 N         -4.8288  -16.0060  -51.6379 N.am      22 UNK        -0.5000 
    120 CA        -3.7962  -15.9534  -50.5980 C.3       22 UNK         0.1400 
    121 C         -4.0687  -14.7893  -49.6021 C.2       22 UNK         0.5000 
    122 N         -3.2177  -14.6018  -48.6037 N.am      22 UNK        -0.7600 
    123 O         -5.0425  -14.0479  -49.7252 O.2       22 UNK        -0.5000 
    124 C124       -3.6027  -17.3331  -49.9075 C.3       23 UNK        -0.0398 
    125 S125       -1.9179  -17.5645  -49.2494 S.3       23 UNK        -0.2404 
    126 C126       -1.1308  -18.4540  -50.6280 C.3       23 UNK        -0.0205 
    127 H127        0.0980  -14.4733  -52.0352 H         1 UNK         0.0600 
    128 H128       -1.1355  -13.5360  -51.1840 H         1 UNK         0.0600 
    129 H129       -0.5275  -15.0271  -50.4743 H         1 UNK         0.0600 
    130 H130        1.5777  -15.0321  -49.4573 H         1 UNK         0.3000 
    131 H131        3.1872  -12.6145  -49.2837 H         1 UNK         0.0600 
    132 H132        4.5529  -14.4851  -49.4368 H         1 UNK         0.0800 
    133 H133        4.6212  -14.1002  -47.7546 H         1 UNK         0.0800 
    134 H134        3.4650  -16.2780  -50.5462 H         1 UNK         0.0800 
    135 H135        4.6314  -17.3752  -49.8485 H         1 UNK         0.0800 
    136 H136        0.9747  -16.7796  -50.3106 H         1 UNK         0.1150 
    137 H137       -0.0422  -20.9331  -50.2445 H         1 UNK         0.1150 
    138 H138        4.0065  -19.7055  -49.5326 H         1 UNK         0.1150 
    139 H139        1.5668  -22.5967  -49.8437 H         1 UNK         0.0800 
    140 H140        3.0841  -22.1940  -50.5972 H         1 UNK         0.0800 
    141 H141        1.6438  -20.8401  -47.2747 H         1 UNK         0.0800 
    142 H142        2.8360  -21.3515  -46.1281 H         1 UNK         0.0800 
    143 H143        1.8046  -23.6862  -46.1387 H         1 UNK         0.0600 
    144 H144        0.8911  -21.3978  -44.7795 H         1 UNK         0.3000 
    145 H145       -1.5427  -22.9606  -42.6706 H         1 UNK         0.0600 
    146 H146       -0.1050  -21.8168  -41.0038 H         1 UNK         0.0600 
    147 H147        0.6926  -23.2598  -41.6127 H         1 UNK         0.0600 
    148 H148        1.1962  -21.6741  -42.1829 H         1 UNK         0.0600 
    149 H149       -0.7282  -20.2428  -42.9269 H         1 UNK         0.3000 
    150 H150       -3.1530  -19.3098  -45.4195 H         1 UNK         0.0600 
    151 H151       -4.2727  -19.2637  -43.1777 H         1 UNK         0.0600 
    152 H152       -3.6835  -17.6757  -43.6458 H         1 UNK         0.0600 
    153 H153       -2.8008  -18.6255  -42.4528 H         1 UNK         0.0600 
    154 H154       -1.1991  -17.7304  -44.1423 H         1 UNK         0.3000 
    155 H155        1.4914  -18.2861  -46.4780 H         1 UNK         0.0600 
    156 H156       -0.4521  -16.0156  -45.8079 H         1 UNK         0.0600 
    157 H157        1.2499  -15.7394  -46.1570 H         1 UNK         0.0600 
    158 H158        0.2065  -16.4565  -47.3742 H         1 UNK         0.0600 
    159 H159        1.5011  -16.8193  -44.0766 H         1 UNK         0.3000 
    160 H160        2.3472  -19.4401  -41.7925 H         1 UNK         0.0600 
    161 H161        3.9655  -17.1197  -42.9704 H         1 UNK         0.0600 
    162 H162        4.4961  -18.7831  -42.7908 H         1 UNK         0.0600 
    163 H163        4.1962  -17.8054  -41.3620 H         1 UNK         0.0600 
    164 H164        1.8563  -16.5718  -41.6841 H         1 UNK         0.3000 
    165 H165       -1.5534  -16.8576  -40.6905 H         1 UNK         0.0600 
    166 H166       -0.7238  -15.5734  -38.7399 H         1 UNK         0.0600 
    167 H167       -0.2715  -17.2635  -38.5852 H         1 UNK         0.0600 
    168 H168        0.9333  -16.0776  -39.0734 H         1 UNK         0.0600 
    169 H169        0.2379  -14.6314  -40.9668 H         1 UNK         0.3000 
    170 H170       -0.3006  -14.0622  -44.4360 H         1 UNK         0.0600 
    171 H171       -2.3833  -13.1582  -43.3570 H         1 UNK         0.0600 
    172 H172       -1.4089  -12.4969  -42.0496 H         1 UNK         0.0600 
    173 H173       -1.2110  -11.8999  -43.6964 H         1 UNK         0.0600 
    174 H174        1.0382  -12.3570  -42.7721 H         1 UNK         0.3000 
    175 H175        3.3613  -12.8058  -41.8050 H         1 UNK         0.0600 
    176 H176        4.8306  -14.4871  -43.9169 H         1 UNK         0.0600 
    177 H177        5.6071  -13.4337  -42.7355 H         1 UNK         0.0600 
    178 H178        4.7220  -14.8522  -42.1968 H         1 UNK         0.0600 
    179 H179        3.1618  -12.3733  -44.7234 H         1 UNK         0.3000 
    180 H180        3.2174   -8.8984  -44.2529 H         1 UNK         0.0600 
    181 H181        5.3284  -10.4479  -45.8535 H         1 UNK         0.0600 
    182 H182        5.6664   -9.1879  -44.6727 H         1 UNK         0.0600 
    183 H183        4.8151   -8.7868  -46.1555 H         1 UNK         0.0600 
    184 H184        2.9800  -10.5427  -46.5897 H         1 UNK         0.3000 
    185 H185       -0.0820  -11.9989  -46.0555 H         1 UNK         0.0600 
    186 H186       -1.1176   -9.7612  -46.4823 H         1 UNK         0.0600 
    187 H187        0.0498   -9.4598  -47.7647 H         1 UNK         0.0600 
    188 H188       -1.1299  -10.7612  -47.9256 H         1 UNK         0.0600 
    189 H189        1.0676  -11.6256  -48.5526 H         1 UNK         0.3000 
    190 H190       -0.8390  -21.3886  -47.0113 H         1 UNK         0.3000 
    191 H191       -1.6994  -22.6697  -49.3543 H         1 UNK         0.0600 
    192 H192       -3.2937  -20.9882  -47.3468 H         1 UNK         0.0600 
    193 H193       -3.8042  -21.3538  -48.9894 H         1 UNK         0.0600 
    194 H194       -2.3689  -20.3795  -48.7123 H         1 UNK         0.0600 
    195 H195       -2.7523  -23.2125  -45.9637 H         1 UNK         0.3000 
    196 H196       -4.7337  -25.1704  -46.5253 H         1 UNK         0.0600 
    197 H197       -4.5086  -25.7085  -44.0957 H         1 UNK         0.0600 
    198 H198       -4.6032  -23.9745  -44.3648 H         1 UNK         0.0600 
    199 H199       -3.0521  -24.7261  -44.0020 H         1 UNK         0.0600 
    200 H200       -1.2359  -25.5107  -45.7567 H         1 UNK         0.3000 
    201 H201       -1.1545  -28.3558  -45.8232 H         1 UNK         0.0600 
    202 H202        0.5847  -26.9836  -44.7222 H         1 UNK         0.0600 
    203 H203        1.0637  -26.2881  -46.2683 H         1 UNK         0.0600 
    204 H204        1.3172  -28.0010  -45.9537 H         1 UNK         0.0600 
    205 H205       -0.5399  -25.9034  -48.3650 H         1 UNK         0.3000 
    206 H206        0.1329  -27.7835  -50.4348 H         1 UNK         0.0600 
    207 H207        0.8996  -25.4146  -50.4267 H         1 UNK         0.0600 
    208 H208       -0.0237  -25.7515  -51.8831 H         1 UNK         0.0600 
    209 H209       -0.7659  -24.8536  -50.5641 H         1 UNK         0.0600 
    210 H210       -2.8847  -26.7657  -49.1295 H         1 UNK         0.3000 
    211 H211       -5.0291  -26.9882  -49.5838 H         1 UNK         0.0600 
    212 H212       -4.3064  -29.0990  -51.6878 H         1 UNK         0.0600 
    213 H213       -5.8862  -28.8365  -50.9656 H         1 UNK         0.0600 
    214 H214       -4.5591  -29.4172  -49.9719 H         1 UNK         0.0600 
    215 H215       -3.8400  -24.8326  -50.5207 H         1 UNK         0.3000 
    216 H216       -4.2640  -24.3241  -53.3594 H         1 UNK         0.0600 
    217 H217       -3.3979  -22.4802  -51.0779 H         1 UNK         0.0600 
    218 H218       -3.3184  -22.1071  -52.7935 H         1 UNK         0.0600 
    219 H219       -2.3149  -23.3891  -52.1309 H         1 UNK         0.0600 
    220 H220       -6.6166  -25.0418  -52.9672 H         1 UNK         0.3000 
    221 H221       -8.5008  -23.0389  -52.0279 H         1 UNK         0.0600 
    222 H222       -9.0565  -25.4612  -52.0603 H         1 UNK         0.0600 
    223 H223       -8.8855  -25.5023  -53.8150 H         1 UNK         0.0600 
    224 H224      -10.1765  -24.5637  -53.0736 H         1 UNK         0.0600 
    225 H225       -6.8363  -23.6771  -55.0387 H         1 UNK         0.3000 
    226 H226       -8.4483  -21.8771  -56.7007 H         1 UNK         0.0600 
    227 H227       -7.3580  -23.9081  -57.6776 H         1 UNK         0.0600 
    228 H228       -6.7188  -22.4474  -58.4121 H         1 UNK         0.0600 
    229 H229       -5.7715  -23.3022  -57.2014 H         1 UNK         0.0600 
    230 H230       -7.4681  -20.0253  -57.7454 H         1 UNK         0.3000 
    231 H231       -6.5611  -18.0253  -57.8355 H         1 UNK         0.0600 
    232 H232       -4.1446  -19.1511  -56.3167 H         1 UNK         0.0600 
    233 H233       -4.1870  -17.6822  -57.2878 H         1 UNK         0.0600 
    234 H234       -4.3929  -19.2433  -58.0558 H         1 UNK         0.0600 
    235 H235       -4.6852  -17.3596  -55.1952 H         1 UNK         0.3000 
    236 H236       -6.7493  -16.7565  -53.2576 H         1 UNK         0.0600 
    237 H237       -6.3320  -14.2768  -53.3410 H         1 UNK         0.0600 
    238 H238       -5.3049  -14.4841  -54.7548 H         1 UNK         0.0600 
    239 H239       -7.0305  -14.8296  -54.8524 H         1 UNK         0.0600 
    240 H240       -5.6996  -15.5608  -51.3783 H         1 UNK         0.3000 
    241 H241       -2.8689  -15.6821  -51.1056 H         1 UNK         0.0600 
    242 H242       -3.3837  -13.8525  -47.9511 H         1 UNK         0.3800 
    243 H243       -2.4414  -15.2303  -48.4642 H         1 UNK         0.3800 
    244 H244       -3.8034  -18.1457  -50.6069 H         1 UNK         0.0800 
    245 H245       -4.3211  -17.4675  -49.0972 H         1 UNK         0.0800 
    246 H246       -1.7074  -19.3509  -50.8592 H         1 UNK         0.0800 
    247 H247       -1.1567  -17.8298  -51.5227 H         1 UNK         0.0800 
@<TRIPOS>BOND
     1    1    2 1    
     2    1  127 1    
     3    1  128 1    
     4    1  129 1    
     5    2    3 2    
     6    2    4 am   BACKBONE|DICT|INTERRES
     7    4    5 1    
     8    4  130 1    
     9    5    6 1    
    10    5   65 1    
    11    5  131 1    
    12    6    7 1    
    13    6  132 1    
    14    6  133 1    
    15    7    8 1    
    16    8    9 1    
    17    8  134 1    
    18    8  135 1    
    19    9   10 ar   
    20    9   14 ar   
    21   10   11 ar   
    22   10  136 1    
    23   11   12 ar   
    24   11  126 1    
    25   12   13 ar   
    26   12  137 1    
    27   13   14 ar   
    28   13   15 1    
    29   14  138 1    
    30   15   16 1    
    31   15  139 1    
    32   15  140 1    
    33   16   17 1    
    34   17   18 1    
    35   17  141 1    
    36   17  142 1    
    37   18   19 1    
    38   18   67 1    
    39   18  143 1    
    40   19   20 am   BACKBONE|DICT|INTERRES
    41   19  144 1    
    42   20   21 2    
    43   20   22 1    
    44   22   23 1    
    45   22   24 1    
    46   22  145 1    
    47   23  146 1    
    48   23  147 1    
    49   23  148 1    
    50   24   25 am   BACKBONE|DICT|INTERRES
    51   24  149 1    
    52   25   26 2    
    53   25   27 1    
    54   27   28 1    
    55   27   29 1    
    56   27  150 1    
    57   28  151 1    
    58   28  152 1    
    59   28  153 1    
    60   29   30 am   BACKBONE|DICT|INTERRES
    61   29  154 1    
    62   30   31 2    
    63   30   32 1    
    64   32   33 1    
    65   32   34 1    
    66   32  155 1    
    67   33  156 1    
    68   33  157 1    
    69   33  158 1    
    70   34   35 am   BACKBONE|DICT|INTERRES
    71   34  159 1    
    72   35   36 2    
    73   35   37 1    
    74   37   38 1    
    75   37   39 1    
    76   37  160 1    
    77   38  161 1    
    78   38  162 1    
    79   38  163 1    
    80   39   40 am   BACKBONE|DICT|INTERRES
    81   39  164 1    
    82   40   41 2    
    83   40   42 1    
    84   42   43 1    
    85   42   44 1    
    86   42  165 1    
    87   43  166 1    
    88   43  167 1    
    89   43  168 1    
    90   44   45 am   BACKBONE|DICT|INTERRES
    91   44  169 1    
    92   45   46 2    
    93   45   47 1    
    94   47   48 1    
    95   47   49 1    
    96   47  170 1    
    97   48  171 1    
    98   48  172 1    
    99   48  173 1    
   100   49   50 am   BACKBONE|DICT|INTERRES
   101   49  174 1    
   102   50   51 2    
   103   50   52 1    
   104   52   53 1    
   105   52   54 1    
   106   52  175 1    
   107   53  176 1    
   108   53  177 1    
   109   53  178 1    
   110   54   55 am   BACKBONE|DICT|INTERRES
   111   54  179 1    
   112   55   56 2    
   113   55   57 1    
   114   57   58 1    
   115   57   59 1    
   116   57  180 1    
   117   58  181 1    
   118   58  182 1    
   119   58  183 1    
   120   59   60 am   BACKBONE|DICT|INTERRES
   121   59  184 1    
   122   60   61 2    
   123   60   62 1    
   124   62   63 1    
   125   62   64 1    
   126   62  185 1    
   127   63  186 1    
   128   63  187 1    
   129   63  188 1    
   130   64   65 am   BACKBONE|DICT|INTERRES
   131   64  189 1    
   132   65   66 2    
   133   67   68 2    
   134   67   69 am   BACKBONE|DICT|INTERRES
   135   69   70 1    
   136   69  190 1    
   137   70   71 1    
   138   70   72 1    
   139   70  191 1    
   140   71  192 1    
   141   71  193 1    
   142   71  194 1    
   143   72   73 2    
   144   72   74 am   BACKBONE|DICT|INTERRES
   145   74   75 1    
   146   74  195 1    
   147   75   76 1    
   148   75   77 1    
   149   75  196 1    
   150   76  197 1    
   151   76  198 1    
   152   76  199 1    
   153   77   78 2    
   154   77   79 am   BACKBONE|DICT|INTERRES
   155   79   80 1    
   156   79  200 1    
   157   80   81 1    
   158   80   82 1    
   159   80  201 1    
   160   81  202 1    
   161   81  203 1    
   162   81  204 1    
   163   82   83 2    
   164   82   84 am   BACKBONE|DICT|INTERRES
   165   84   85 1    
   166   84  205 1    
   167   85   86 1    
   168   85   87 1    
   169   85  206 1    
   170   86  207 1    
   171   86  208 1    
   172   86  209 1    
   173   87   88 2    
   174   87   89 am   BACKBONE|DICT|INTERRES
   175   89   90 1    
   176   89  210 1    
   177   90   91 1    
   178   90   92 1    
   179   90  211 1    
   180   91  212 1    
   181   91  213 1    
   182   91  214 1    
   183   92   93 2    
   184   92   94 am   BACKBONE|DICT|INTERRES
   185   94   95 1    
   186   94  215 1    
   187   95   96 1    
   188   95   97 1    
   189   95  216 1    
   190   96  217 1    
   191   96  218 1    
   192   96  219 1    
   193   97   98 2    
   194   97   99 am   BACKBONE|DICT|INTERRES
   195   99  100 1    
   196   99  220 1    
   197  100  101 1    
   198  100  102 1    
   199  100  221 1    
   200  101  222 1    
   201  101  223 1    
   202  101  224 1    
   203  102  103 2    
   204  102  104 am   BACKBONE|DICT|INTERRES
   205  104  105 1    
   206  104  225 1    
   207  105  106 1    
   208  105  107 1    
   209  105  226 1    
   210  106  227 1    
   211  106  228 1    
   212  106  229 1    
   213  107  108 2    
   214  107  109 am   BACKBONE|DICT|INTERRES
   215  109  110 1    
   216  109  230 1    
   217  110  111 1    
   218  110  112 1    
   219  110  231 1    
   220  111  232 1    
   221  111  233 1    
   222  111  234 1    
   223  112  113 2    
   224  112  114 am   BACKBONE|DICT|INTERRES
   225  114  115 1    
   226  114  235 1    
   227  115  116 1    
   228  115  117 1    
   229  115  236 1    
   230  116  237 1    
   231  116  238 1    
   232  116  239 1    
   233  117  118 2    
   234  117  119 am   BACKBONE|DICT|INTERRES
   235  119  120 1    
   236  119  240 1    
   237  120  121 1    
   238  120  124 1    
   239  120  241 1    
   240  121  122 am   BACKBONE|DICT|INTERRES
   241  121  123 2    
   242  122  242 1    
   243  122  243 1    
   244  124  125 1    
   245  124  244 1    
   246  124  245 1    
   247  125  126 1    
   248  126  246 1    
   249  126  247 1    
@<TRIPOS>SUBSTRUCTURE
     1 UNK         1 GROUP             0       ****    0 ROOT    
