@<TRIPOS>MOLECULE
3R540
247   249    1
SMALL
USER_CHARGES


@<TRIPOS>ATOM
      1 CA          2.3785  -12.3155  -46.6090 C.3       0 UNK        -0.1800 
      2 C           1.5600  -13.5622  -46.9070 C.2       0 UNK         0.5000 
      3 O           0.6762  -13.9155  -46.1303 O.2       0 UNK        -0.5000 
      4 N           1.8220  -14.2159  -48.0452 N.am      1 UNK        -0.5000 
      5 CA          1.2238  -15.4942  -48.4662 C.3       1 UNK         0.1400 
      6 C6          1.9876  -16.1121  -49.6625 C.3       23 UNK        -0.0398 
      7 S7          3.7565  -16.3736  -49.2976 S.3       23 UNK        -0.2404 
      8 C8          4.3750  -16.9487  -50.9093 C.3       23 UNK        -0.0205 
      9 C9          3.7945  -18.3025  -51.2877 C.ar      23 UNK        -0.0193 
     10 C10         2.7909  -18.3943  -52.2543 C.ar      23 UNK        -0.1150 
     11 C11         2.2457  -19.6326  -52.6023 C.ar      23 UNK        -0.0193 
     12 C12         2.7228  -20.7868  -51.9685 C.ar      23 UNK        -0.1150 
     13 C13         3.7198  -20.7134  -50.9847 C.ar      23 UNK        -0.0193 
     14 C14         4.2546  -19.4632  -50.6618 C.ar      23 UNK        -0.1150 
     15 C15         4.2478  -21.9408  -50.2331 C.3       23 UNK        -0.0205 
     16 S16         3.2339  -23.4609  -50.3318 S.3       23 UNK        -0.2404 
     17 C17         1.6153  -22.8824  -49.7213 C.3       23 UNK        -0.0398 
     18 CA          1.1699  -23.5370  -48.3961 C.3       11 UNK         0.1400 
     19 N           2.1211  -23.3200  -47.3037 N.am      11 UNK        -0.5000 
     20 C           2.0652  -23.9326  -46.1120 C.2       10 UNK         0.5000 
     21 O           1.2558  -24.8168  -45.8339 O.2       10 UNK        -0.5000 
     22 CA          3.0489  -23.4309  -45.0357 C.3       10 UNK         0.1400 
     23 CB          4.3746  -24.2024  -45.1144 C.3       10 UNK        -0.1800 
     24 N           3.3167  -21.9915  -45.1369 N.am      10 UNK        -0.5000 
     25 C           2.3868  -21.0401  -44.9809 C.2       9 UNK         0.5000 
     26 O           1.2139  -21.2754  -44.6842 O.2       9 UNK        -0.5000 
     27 CA          2.8186  -19.6036  -45.2959 C.3       9 UNK         0.1400 
     28 CB          2.8815  -19.4052  -46.8275 C.3       9 UNK        -0.1800 
     29 N           1.8649  -18.6719  -44.6980 N.am      9 UNK        -0.5000 
     30 C           2.0111  -17.3429  -44.6515 C.2       8 UNK         0.5000 
     31 O           3.0116  -16.7479  -45.0538 O.2       8 UNK        -0.5000 
     32 CA          0.8392  -16.5378  -44.0667 C.3       8 UNK         0.1400 
     33 CB         -0.4310  -16.6949  -44.9179 C.3       8 UNK        -0.1800 
     34 N           0.5137  -16.8603  -42.6815 N.am      8 UNK        -0.5000 
     35 C           1.3254  -16.7468  -41.6229 C.2       7 UNK         0.5000 
     36 O           2.5144  -16.4347  -41.6912 O.2       7 UNK        -0.5000 
     37 CA          0.6883  -16.9917  -40.2441 C.3       7 UNK         0.1400 
     38 CB          0.1195  -15.6786  -39.6823 C.3       7 UNK        -0.1800 
     39 N          -0.3878  -17.9811  -40.3057 N.am      7 UNK        -0.5000 
     40 C          -0.2335  -19.2855  -40.0464 C.2       6 UNK         0.5000 
     41 O           0.8360  -19.7919  -39.7044 O.2       6 UNK        -0.5000 
     42 CA         -1.4818  -20.1827  -40.1696 C.3       6 UNK         0.1400 
     43 CB         -2.1275  -20.3940  -38.7916 C.3       6 UNK        -0.1800 
     44 N          -2.4979  -19.6752  -41.0940 N.am      6 UNK        -0.5000 
     45 C          -2.3464  -19.6220  -42.4230 C.2       5 UNK         0.5000 
     46 O          -1.3114  -19.9340  -43.0089 O.2       5 UNK        -0.5000 
     47 CA         -3.5488  -19.1035  -43.2322 C.3       5 UNK         0.1400 
     48 CB         -4.6618  -20.1621  -43.2849 C.3       5 UNK        -0.1800 
     49 N          -4.1322  -17.8332  -42.7864 N.am      5 UNK        -0.5000 
     50 C          -3.4784  -16.7216  -42.4247 C.2       4 UNK         0.5000 
     51 O          -2.2716  -16.6648  -42.1851 O.2       4 UNK        -0.5000 
     52 CA         -4.3196  -15.4354  -42.3334 C.3       4 UNK         0.1400 
     53 CB         -4.4190  -14.9584  -40.8765 C.3       4 UNK        -0.1800 
     54 N          -3.7443  -14.3655  -43.1530 N.am      4 UNK        -0.5000 
     55 C          -3.5524  -14.4224  -44.4799 C.2       3 UNK         0.5000 
     56 O          -3.9388  -15.3649  -45.1759 O.2       3 UNK        -0.5000 
     57 CA         -2.8012  -13.2308  -45.1202 C.3       3 UNK         0.1400 
     58 CB         -1.6376  -12.7322  -44.2401 C.3       3 UNK        -0.1800 
     59 N          -2.2787  -13.5484  -46.4540 N.am      3 UNK        -0.5000 
     60 C          -3.0089  -13.5633  -47.5805 C.2       2 UNK         0.5000 
     61 O          -4.2026  -13.2599  -47.6115 O.2       2 UNK        -0.5000 
     62 CA         -2.3087  -13.9516  -48.9021 C.3       2 UNK         0.1400 
     63 CB         -2.4606  -12.8336  -49.9494 C.3       2 UNK        -0.1800 
     64 N          -0.8820  -14.2244  -48.7277 N.am      2 UNK        -0.5000 
     65 C          -0.2955  -15.4277  -48.7664 C.2       1 UNK         0.5000 
     66 O          -0.8972  -16.4661  -49.0477 O.2       1 UNK        -0.5000 
     67 C          -0.2280  -23.0123  -48.0207 C.2       11 UNK         0.5000 
     68 O          -1.2187  -23.7050  -48.2426 O.2       11 UNK        -0.5000 
     69 N          -0.2845  -21.8074  -47.4351 N.am      12 UNK        -0.5000 
     70 CA         -1.5214  -21.1538  -47.0094 C.3       12 UNK         0.1400 
     71 CB         -1.2324  -19.6978  -46.6265 C.3       12 UNK        -0.1800 
     72 C          -2.2262  -21.9114  -45.8739 C.2       12 UNK         0.5000 
     73 O          -3.4489  -22.0412  -45.9059 O.2       12 UNK        -0.5000 
     74 N          -1.4412  -22.4784  -44.9484 N.am      13 UNK        -0.5000 
     75 CA         -1.9009  -23.3854  -43.8943 C.3       13 UNK         0.1400 
     76 CB         -0.7352  -23.6691  -42.9359 C.3       13 UNK        -0.1800 
     77 C          -2.5062  -24.7001  -44.4349 C.2       13 UNK         0.5000 
     78 O          -3.3429  -25.3012  -43.7612 O.2       13 UNK        -0.5000 
     79 N          -2.1052  -25.0990  -45.6499 N.am      14 UNK        -0.5000 
     80 CA         -2.6479  -26.2273  -46.4088 C.3       14 UNK         0.1400 
     81 CB         -1.4859  -26.9444  -47.1186 C.3       14 UNK        -0.1800 
     82 C          -3.7439  -25.7945  -47.4110 C.2       14 UNK         0.5000 
     83 O          -4.1418  -26.6039  -48.2495 O.2       14 UNK        -0.5000 
     84 N          -4.2129  -24.5400  -47.3117 N.am      15 UNK        -0.5000 
     85 CA         -5.2542  -23.8905  -48.1180 C.3       15 UNK         0.1400 
     86 CB         -6.5956  -24.6486  -48.0283 C.3       15 UNK        -0.1800 
     87 C          -4.8424  -23.5722  -49.5722 C.2       15 UNK         0.5000 
     88 O          -5.7096  -23.2733  -50.3938 O.2       15 UNK        -0.5000 
     89 N          -3.5360  -23.5790  -49.8618 N.am      16 UNK        -0.5000 
     90 CA         -2.9398  -23.1884  -51.1395 C.3       16 UNK         0.1400 
     91 CB         -1.9566  -24.2857  -51.5860 C.3       16 UNK        -0.1800 
     92 C          -2.2712  -21.8080  -50.9940 C.2       16 UNK         0.5000 
     93 O          -1.1071  -21.6334  -51.3542 O.2       16 UNK        -0.5000 
     94 N          -3.0165  -20.8513  -50.4263 N.am      17 UNK        -0.5000 
     95 CA         -2.5944  -19.4651  -50.2273 C.3       17 UNK         0.1400 
     96 CB         -3.6139  -18.7789  -49.3019 C.3       17 UNK        -0.1800 
     97 C          -2.5057  -18.7037  -51.5590 C.2       17 UNK         0.5000 
     98 O          -3.1631  -19.0852  -52.5299 O.2       17 UNK        -0.5000 
     99 N          -1.7757  -17.5817  -51.5705 N.am      18 UNK        -0.5000 
    100 CA        -1.7213  -16.6691  -52.7198 C.3       18 UNK         0.1400 
    101 CB        -0.6133  -15.6297  -52.5071 C.3       18 UNK        -0.1800 
    102 C         -3.0798  -15.9917  -52.9997 C.2       18 UNK         0.5000 
    103 O         -3.3935  -15.7071  -54.1551 O.2       18 UNK        -0.5000 
    104 N         -3.8947  -15.8287  -51.9461 N.am      19 UNK        -0.5000 
    105 CA        -5.2960  -15.4029  -52.0123 C.3       19 UNK         0.1400 
    106 CB        -5.7874  -15.0949  -50.5895 C.3       19 UNK        -0.1800 
    107 C         -6.2229  -16.4429  -52.6793 C.2       19 UNK         0.5000 
    108 O         -7.2820  -16.0716  -53.1846 O.2       19 UNK        -0.5000 
    109 N         -5.8016  -17.7150  -52.6859 N.am      20 UNK        -0.5000 
    110 CA        -6.4672  -18.8413  -53.3420 C.3       20 UNK         0.1400 
    111 CB        -6.4874  -20.0332  -52.3669 C.3       20 UNK        -0.1800 
    112 C         -5.7669  -19.2040  -54.6693 C.2       20 UNK         0.5000 
    113 O         -5.9098  -20.3315  -55.1466 O.2       20 UNK        -0.5000 
    114 N         -4.9887  -18.2594  -55.2241 N.am      21 UNK        -0.5000 
    115 CA        -4.2067  -18.3535  -56.4627 C.3       21 UNK         0.1400 
    116 CB        -5.1443  -18.4316  -57.6854 C.3       21 UNK        -0.1800 
    117 C         -3.1512  -19.4810  -56.4494 C.2       21 UNK         0.5000 
    118 O         -2.7865  -19.9926  -57.5094 O.2       21 UNK        -0.5000 
    119 N         -2.6804  -19.8499  -55.2503 N.am      22 UNK        -0.5000 
    120 CA        -1.7708  -20.9733  -54.9874 C.3       22 UNK         0.1400 
    121 C         -2.4161  -22.3809  -55.1793 C.2       22 UNK         0.5000 
    122 N         -3.7392  -22.5022  -55.2246 N.am      22 UNK        -0.7600 
    123 O         -1.7167  -23.3856  -55.2671 O.2       22 UNK        -0.5000 
    124 C124       -0.3924  -20.7993  -55.6937 C.3       23 UNK        -0.0398 
    125 S125        1.0194  -21.2041  -54.6143 S.3       23 UNK        -0.2404 
    126 C126        1.1063  -19.6752  -53.6187 C.3       23 UNK        -0.0205 
    127 H127        1.7218  -11.4517  -46.5066 H         1 UNK         0.0600 
    128 H128        3.0997  -12.1052  -47.3991 H         1 UNK         0.0600 
    129 H129        2.9241  -12.4431  -45.6742 H         1 UNK         0.0600 
    130 H130        2.5591  -13.8730  -48.6450 H         1 UNK         0.3000 
    131 H131        1.3338  -16.1831  -47.6271 H         1 UNK         0.0600 
    132 H132        1.5571  -17.0785  -49.9320 H         1 UNK         0.0800 
    133 H133        1.9020  -15.4734  -50.5430 H         1 UNK         0.0800 
    134 H134        4.1524  -16.2016  -51.6727 H         1 UNK         0.0800 
    135 H135        5.4624  -17.0233  -50.8638 H         1 UNK         0.0800 
    136 H136        2.4248  -17.4950  -52.7292 H         1 UNK         0.1150 
    137 H137        2.2946  -21.7421  -52.2302 H         1 UNK         0.1150 
    138 H138        5.0242  -19.3872  -49.9061 H         1 UNK         0.1150 
    139 H139        5.2429  -22.1719  -50.6151 H         1 UNK         0.0800 
    140 H140        4.3763  -21.6895  -49.1796 H         1 UNK         0.0800 
    141 H141        0.8921  -23.1026  -50.5076 H         1 UNK         0.0800 
    142 H142        1.6232  -21.7963  -49.6197 H         1 UNK         0.0800 
    143 H143        1.0862  -24.6138  -48.5594 H         1 UNK         0.0600 
    144 H144        2.8417  -22.6327  -47.4584 H         1 UNK         0.3000 
    145 H145        2.5970  -23.6218  -44.0600 H         1 UNK         0.0600 
    146 H146        5.0502  -23.9090  -44.3108 H         1 UNK         0.0600 
    147 H147        4.8854  -24.0320  -46.0630 H         1 UNK         0.0600 
    148 H148        4.2067  -25.2761  -45.0202 H         1 UNK         0.0600 
    149 H149        4.2604  -21.7250  -45.3783 H         1 UNK         0.3000 
    150 H150        3.8033  -19.4323  -44.8567 H         1 UNK         0.0600 
    151 H151        3.5309  -20.1419  -47.3008 H         1 UNK         0.0600 
    152 H152        3.2825  -18.4267  -47.0884 H         1 UNK         0.0600 
    153 H153        1.8965  -19.4895  -47.2873 H         1 UNK         0.0600 
    154 H154        1.0379  -19.1090  -44.3055 H         1 UNK         0.3000 
    155 H155        1.1328  -15.4872  -44.0899 H         1 UNK         0.0600 
    156 H156       -0.2139  -16.6869  -45.9847 H         1 UNK         0.0600 
    157 H157       -1.1212  -15.8773  -44.7259 H         1 UNK         0.0600 
    158 H158       -0.9559  -17.6215  -44.6919 H         1 UNK         0.0600 
    159 H159       -0.4665  -17.0563  -42.5001 H         1 UNK         0.3000 
    160 H160        1.4745  -17.3334  -39.5675 H         1 UNK         0.0600 
    161 H161       -0.6713  -15.2766  -40.3172 H         1 UNK         0.0600 
    162 H162        0.8971  -14.9177  -39.6047 H         1 UNK         0.0600 
    163 H163       -0.2940  -15.8240  -38.6843 H         1 UNK         0.0600 
    164 H164       -1.2833  -17.6528  -40.6482 H         1 UNK         0.3000 
    165 H165       -1.1469  -21.1541  -40.5397 H         1 UNK         0.0600 
    166 H166       -2.9586  -21.0972  -38.8484 H         1 UNK         0.0600 
    167 H167       -1.4075  -20.8014  -38.0805 H         1 UNK         0.0600 
    168 H168       -2.5050  -19.4584  -38.3770 H         1 UNK         0.0600 
    169 H169       -3.3719  -19.3693  -40.6921 H         1 UNK         0.3000 
    170 H170       -3.1948  -18.9410  -44.2511 H         1 UNK         0.0600 
    171 H171       -5.1595  -20.2723  -42.3209 H         1 UNK         0.0600 
    172 H172       -4.2688  -21.1401  -43.5592 H         1 UNK         0.0600 
    173 H173       -5.4181  -19.9021  -44.0257 H         1 UNK         0.0600 
    174 H174       -5.1283  -17.7541  -42.9303 H         1 UNK         0.3000 
    175 H175       -5.3273  -15.6360  -42.7027 H         1 UNK         0.0600 
    176 H176       -3.4386  -14.7161  -40.4638 H         1 UNK         0.0600 
    177 H177       -5.0473  -14.0714  -40.7929 H         1 UNK         0.0600 
    178 H178       -4.8599  -15.7290  -40.2428 H         1 UNK         0.0600 
    179 H179       -3.3752  -13.5735  -42.6485 H         1 UNK         0.3000 
    180 H180       -3.5187  -12.4136  -45.2169 H         1 UNK         0.0600 
    181 H181       -1.0579  -11.9635  -44.7518 H         1 UNK         0.0600 
    182 H182       -0.9546  -13.5409  -43.9768 H         1 UNK         0.0600 
    183 H183       -1.9978  -12.2887  -43.3116 H         1 UNK         0.0600 
    184 H184       -1.3039  -13.8276  -46.4896 H         1 UNK         0.3000 
    185 H185       -2.8187  -14.8409  -49.2757 H         1 UNK         0.0600 
    186 H186       -2.0320  -13.1256  -50.9074 H         1 UNK         0.0600 
    187 H187       -3.5090  -12.5945  -50.1294 H         1 UNK         0.0600 
    188 H188       -1.9676  -11.9153  -49.6287 H         1 UNK         0.0600 
    189 H189       -0.3032  -13.4324  -48.4871 H         1 UNK         0.3000 
    190 H190        0.5752  -21.3279  -47.2202 H         1 UNK         0.3000 
    191 H191       -2.2018  -21.1533  -47.8599 H         1 UNK         0.0600 
    192 H192       -0.7465  -19.1563  -47.4383 H         1 UNK         0.0600 
    193 H193       -0.5870  -19.6425  -45.7519 H         1 UNK         0.0600 
    194 H194       -2.1541  -19.1662  -46.3902 H         1 UNK         0.0600 
    195 H195       -0.4523  -22.2431  -44.9464 H         1 UNK         0.3000 
    196 H196       -2.6818  -22.8725  -43.3311 H         1 UNK         0.0600 
    197 H197       -0.3364  -22.7440  -42.5183 H         1 UNK         0.0600 
    198 H198        0.0809  -24.1878  -43.4389 H         1 UNK         0.0600 
    199 H199       -1.0577  -24.2925  -42.1013 H         1 UNK         0.0600 
    200 H200       -1.4169  -24.5389  -46.1363 H         1 UNK         0.3000 
    201 H201       -3.1091  -26.9404  -45.7230 H         1 UNK         0.0600 
    202 H202       -0.7132  -27.2398  -46.4084 H         1 UNK         0.0600 
    203 H203       -1.0191  -26.3119  -47.8735 H         1 UNK         0.0600 
    204 H204       -1.8293  -27.8509  -47.6182 H         1 UNK         0.0600 
    205 H205       -3.7995  -23.9379  -46.6085 H         1 UNK         0.3000 
    206 H206       -5.4110  -22.9185  -47.6488 H         1 UNK         0.0600 
    207 H207       -6.5628  -25.5992  -48.5609 H         1 UNK         0.0600 
    208 H208       -6.8662  -24.8516  -46.9921 H         1 UNK         0.0600 
    209 H209       -7.4056  -24.0624  -48.4637 H         1 UNK         0.0600 
    210 H210       -2.8682  -23.7827  -49.1214 H         1 UNK         0.3000 
    211 H211       -3.7044  -23.0914  -51.9130 H         1 UNK         0.0600 
    212 H212       -1.1618  -24.4400  -50.8566 H         1 UNK         0.0600 
    213 H213       -1.4864  -24.0300  -52.5362 H         1 UNK         0.0600 
    214 H214       -2.4700  -25.2372  -51.7242 H         1 UNK         0.0600 
    215 H215       -3.9729  -21.0708  -50.1922 H         1 UNK         0.3000 
    216 H216       -1.6103  -19.4601  -49.7545 H         1 UNK         0.0600 
    217 H217       -3.2996  -17.7658  -49.0488 H         1 UNK         0.0600 
    218 H218       -3.7307  -19.3201  -48.3635 H         1 UNK         0.0600 
    219 H219       -4.5985  -18.7106  -49.7671 H         1 UNK         0.0600 
    220 H220       -1.3164  -17.2786  -50.7148 H         1 UNK         0.3000 
    221 H221       -1.4631  -17.2571  -53.6034 H         1 UNK         0.0600 
    222 H222       -0.8008  -15.0128  -51.6301 H         1 UNK         0.0600 
    223 H223        0.3557  -16.1114  -52.3817 H         1 UNK         0.0600 
    224 H224       -0.5349  -14.9621  -53.3661 H         1 UNK         0.0600 
    225 H225       -3.5501  -16.1015  -51.0387 H         1 UNK         0.3000 
    226 H226       -5.3478  -14.4862  -52.6033 H         1 UNK         0.0600 
    227 H227       -5.2125  -14.2886  -50.1365 H         1 UNK         0.0600 
    228 H228       -6.8312  -14.7780  -50.5958 H         1 UNK         0.0600 
    229 H229       -5.7138  -15.9673  -49.9388 H         1 UNK         0.0600 
    230 H230       -4.8869  -17.9275  -52.3086 H         1 UNK         0.3000 
    231 H231       -7.4999  -18.5823  -53.5828 H         1 UNK         0.0600 
    232 H232       -7.0609  -20.8660  -52.7755 H         1 UNK         0.0600 
    233 H233       -6.9488  -19.7599  -51.4179 H         1 UNK         0.0600 
    234 H234       -5.4833  -20.4023  -52.1569 H         1 UNK         0.0600 
    235 H235       -4.9008  -17.3792  -54.7336 H         1 UNK         0.3000 
    236 H236       -3.6458  -17.4208  -56.5364 H         1 UNK         0.0600 
    237 H237       -5.6940  -19.3728  -57.7137 H         1 UNK         0.0600 
    238 H238       -5.8705  -17.6188  -57.6777 H         1 UNK         0.0600 
    239 H239       -4.5828  -18.3527  -58.6170 H         1 UNK         0.0600 
    240 H240       -3.0481  -19.4012  -54.4160 H         1 UNK         0.3000 
    241 H241       -1.6056  -20.9145  -53.9128 H         1 UNK         0.0600 
    242 H242       -4.1439  -23.4162  -55.3491 H         1 UNK         0.3800 
    243 H243       -4.3464  -21.6915  -55.1768 H         1 UNK         0.3800 
    244 H244       -0.3336  -21.4046  -56.5997 H         1 UNK         0.0800 
    245 H245       -0.2549  -19.7711  -56.0310 H         1 UNK         0.0800 
    246 H246        1.1899  -18.8264  -54.2992 H         1 UNK         0.0800 
    247 H247        0.1686  -19.5499  -53.0763 H         1 UNK         0.0800 
@<TRIPOS>BOND
     1    1    2 1    
     2    1  127 1    
     3    1  128 1    
     4    1  129 1    
     5    2    3 2    
     6    2    4 am   BACKBONE|DICT|INTERRES
     7    4    5 1    
     8    4  130 1    
     9    5    6 1    
    10    5   65 1    
    11    5  131 1    
    12    6    7 1    
    13    6  132 1    
    14    6  133 1    
    15    7    8 1    
    16    8    9 1    
    17    8  134 1    
    18    8  135 1    
    19    9   10 ar   
    20    9   14 ar   
    21   10   11 ar   
    22   10  136 1    
    23   11   12 ar   
    24   11  126 1    
    25   12   13 ar   
    26   12  137 1    
    27   13   14 ar   
    28   13   15 1    
    29   14  138 1    
    30   15   16 1    
    31   15  139 1    
    32   15  140 1    
    33   16   17 1    
    34   17   18 1    
    35   17  141 1    
    36   17  142 1    
    37   18   19 1    
    38   18   67 1    
    39   18  143 1    
    40   19   20 am   BACKBONE|DICT|INTERRES
    41   19  144 1    
    42   20   21 2    
    43   20   22 1    
    44   22   23 1    
    45   22   24 1    
    46   22  145 1    
    47   23  146 1    
    48   23  147 1    
    49   23  148 1    
    50   24   25 am   BACKBONE|DICT|INTERRES
    51   24  149 1    
    52   25   26 2    
    53   25   27 1    
    54   27   28 1    
    55   27   29 1    
    56   27  150 1    
    57   28  151 1    
    58   28  152 1    
    59   28  153 1    
    60   29   30 am   BACKBONE|DICT|INTERRES
    61   29  154 1    
    62   30   31 2    
    63   30   32 1    
    64   32   33 1    
    65   32   34 1    
    66   32  155 1    
    67   33  156 1    
    68   33  157 1    
    69   33  158 1    
    70   34   35 am   BACKBONE|DICT|INTERRES
    71   34  159 1    
    72   35   36 2    
    73   35   37 1    
    74   37   38 1    
    75   37   39 1    
    76   37  160 1    
    77   38  161 1    
    78   38  162 1    
    79   38  163 1    
    80   39   40 am   BACKBONE|DICT|INTERRES
    81   39  164 1    
    82   40   41 2    
    83   40   42 1    
    84   42   43 1    
    85   42   44 1    
    86   42  165 1    
    87   43  166 1    
    88   43  167 1    
    89   43  168 1    
    90   44   45 am   BACKBONE|DICT|INTERRES
    91   44  169 1    
    92   45   46 2    
    93   45   47 1    
    94   47   48 1    
    95   47   49 1    
    96   47  170 1    
    97   48  171 1    
    98   48  172 1    
    99   48  173 1    
   100   49   50 am   BACKBONE|DICT|INTERRES
   101   49  174 1    
   102   50   51 2    
   103   50   52 1    
   104   52   53 1    
   105   52   54 1    
   106   52  175 1    
   107   53  176 1    
   108   53  177 1    
   109   53  178 1    
   110   54   55 am   BACKBONE|DICT|INTERRES
   111   54  179 1    
   112   55   56 2    
   113   55   57 1    
   114   57   58 1    
   115   57   59 1    
   116   57  180 1    
   117   58  181 1    
   118   58  182 1    
   119   58  183 1    
   120   59   60 am   BACKBONE|DICT|INTERRES
   121   59  184 1    
   122   60   61 2    
   123   60   62 1    
   124   62   63 1    
   125   62   64 1    
   126   62  185 1    
   127   63  186 1    
   128   63  187 1    
   129   63  188 1    
   130   64   65 am   BACKBONE|DICT|INTERRES
   131   64  189 1    
   132   65   66 2    
   133   67   68 2    
   134   67   69 am   BACKBONE|DICT|INTERRES
   135   69   70 1    
   136   69  190 1    
   137   70   71 1    
   138   70   72 1    
   139   70  191 1    
   140   71  192 1    
   141   71  193 1    
   142   71  194 1    
   143   72   73 2    
   144   72   74 am   BACKBONE|DICT|INTERRES
   145   74   75 1    
   146   74  195 1    
   147   75   76 1    
   148   75   77 1    
   149   75  196 1    
   150   76  197 1    
   151   76  198 1    
   152   76  199 1    
   153   77   78 2    
   154   77   79 am   BACKBONE|DICT|INTERRES
   155   79   80 1    
   156   79  200 1    
   157   80   81 1    
   158   80   82 1    
   159   80  201 1    
   160   81  202 1    
   161   81  203 1    
   162   81  204 1    
   163   82   83 2    
   164   82   84 am   BACKBONE|DICT|INTERRES
   165   84   85 1    
   166   84  205 1    
   167   85   86 1    
   168   85   87 1    
   169   85  206 1    
   170   86  207 1    
   171   86  208 1    
   172   86  209 1    
   173   87   88 2    
   174   87   89 am   BACKBONE|DICT|INTERRES
   175   89   90 1    
   176   89  210 1    
   177   90   91 1    
   178   90   92 1    
   179   90  211 1    
   180   91  212 1    
   181   91  213 1    
   182   91  214 1    
   183   92   93 2    
   184   92   94 am   BACKBONE|DICT|INTERRES
   185   94   95 1    
   186   94  215 1    
   187   95   96 1    
   188   95   97 1    
   189   95  216 1    
   190   96  217 1    
   191   96  218 1    
   192   96  219 1    
   193   97   98 2    
   194   97   99 am   BACKBONE|DICT|INTERRES
   195   99  100 1    
   196   99  220 1    
   197  100  101 1    
   198  100  102 1    
   199  100  221 1    
   200  101  222 1    
   201  101  223 1    
   202  101  224 1    
   203  102  103 2    
   204  102  104 am   BACKBONE|DICT|INTERRES
   205  104  105 1    
   206  104  225 1    
   207  105  106 1    
   208  105  107 1    
   209  105  226 1    
   210  106  227 1    
   211  106  228 1    
   212  106  229 1    
   213  107  108 2    
   214  107  109 am   BACKBONE|DICT|INTERRES
   215  109  110 1    
   216  109  230 1    
   217  110  111 1    
   218  110  112 1    
   219  110  231 1    
   220  111  232 1    
   221  111  233 1    
   222  111  234 1    
   223  112  113 2    
   224  112  114 am   BACKBONE|DICT|INTERRES
   225  114  115 1    
   226  114  235 1    
   227  115  116 1    
   228  115  117 1    
   229  115  236 1    
   230  116  237 1    
   231  116  238 1    
   232  116  239 1    
   233  117  118 2    
   234  117  119 am   BACKBONE|DICT|INTERRES
   235  119  120 1    
   236  119  240 1    
   237  120  121 1    
   238  120  124 1    
   239  120  241 1    
   240  121  122 am   BACKBONE|DICT|INTERRES
   241  121  123 2    
   242  122  242 1    
   243  122  243 1    
   244  124  125 1    
   245  124  244 1    
   246  124  245 1    
   247  125  126 1    
   248  126  246 1    
   249  126  247 1    
@<TRIPOS>SUBSTRUCTURE
     1 UNK         1 GROUP             0       ****    0 ROOT    
