@<TRIPOS>MOLECULE
3R540
247   249    1
SMALL
USER_CHARGES


@<TRIPOS>ATOM
      1 CA         -3.8184  -11.9880  -50.6549 C.3       0 UNK        -0.1800 
      2 C          -3.0131  -13.0607  -49.9353 C.2       0 UNK         0.5000 
      3 O          -3.5905  -13.8772  -49.2181 O.2       0 UNK        -0.5000 
      4 N          -1.6859  -13.0534  -50.1241 N.am      1 UNK        -0.5000 
      5 CA         -0.7153  -13.9936  -49.5439 C.3       1 UNK         0.1400 
      6 C6         -0.8504  -15.4451  -50.0834 C.3       23 UNK        -0.0398 
      7 S7         -0.3894  -15.5547  -51.8438 S.3       23 UNK        -0.2404 
      8 C8          1.4269  -15.6849  -51.7375 C.3       23 UNK        -0.0205 
      9 C9          1.9011  -17.1004  -51.4392 C.ar      23 UNK        -0.0193 
     10 C10         2.2007  -17.9693  -52.4919 C.ar      23 UNK        -0.1150 
     11 C11         2.6794  -19.2612  -52.2430 C.ar      23 UNK        -0.0193 
     12 C12         2.8617  -19.6688  -50.9191 C.ar      23 UNK        -0.1150 
     13 C13         2.5639  -18.8144  -49.8513 C.ar      23 UNK        -0.0193 
     14 C14         2.0914  -17.5274  -50.1213 C.ar      23 UNK        -0.1150 
     15 C15         2.8044  -19.2462  -48.4076 C.3       23 UNK        -0.0205 
     16 S16         2.2775  -20.9565  -48.0622 S.3       23 UNK        -0.2404 
     17 C17         0.4606  -20.7931  -48.0838 C.3       23 UNK        -0.0398 
     18 CA         -0.2005  -21.9349  -47.2799 C.3       11 UNK         0.1400 
     19 N           0.1406  -21.8888  -45.8547 N.am      11 UNK        -0.5000 
     20 C           0.0100  -22.9255  -45.0176 C.2       10 UNK         0.5000 
     21 O          -0.4266  -24.0234  -45.3608 O.2       10 UNK        -0.5000 
     22 CA          0.3835  -22.6850  -43.5437 C.3       10 UNK         0.1400 
     23 CB          1.9078  -22.6748  -43.3585 C.3       10 UNK        -0.1800 
     24 N          -0.1940  -21.4498  -43.0104 N.am      10 UNK        -0.5000 
     25 C          -1.5110  -21.2262  -42.8942 C.2       9 UNK         0.5000 
     26 O          -2.3722  -22.0475  -43.2052 O.2       9 UNK        -0.5000 
     27 CA         -1.9474  -19.8425  -42.3856 C.3       9 UNK         0.1400 
     28 CB         -1.8762  -19.7793  -40.8530 C.3       9 UNK        -0.1800 
     29 N          -1.1601  -18.7544  -42.9609 N.am      9 UNK        -0.5000 
     30 C          -1.1240  -18.4406  -44.2645 C.2       8 UNK         0.5000 
     31 O          -1.7742  -19.0234  -45.1311 O.2       8 UNK        -0.5000 
     32 CA         -0.1462  -17.3231  -44.6692 C.3       8 UNK         0.1400 
     33 CB         -0.6789  -15.9554  -44.2127 C.3       8 UNK        -0.1800 
     34 N           1.1942  -17.5467  -44.1217 N.am      8 UNK        -0.5000 
     35 C           1.9411  -18.6372  -44.3525 C.2       7 UNK         0.5000 
     36 O           1.6089  -19.5420  -45.1148 O.2       7 UNK        -0.5000 
     37 CA          3.2413  -18.7819  -43.5450 C.3       7 UNK         0.1400 
     38 CB          4.4548  -18.2273  -44.3047 C.3       7 UNK        -0.1800 
     39 N           3.1312  -18.1656  -42.2217 N.am      7 UNK        -0.5000 
     40 C           2.4314  -18.7158  -41.2186 C.2       6 UNK         0.5000 
     41 O           1.8392  -19.7926  -41.3112 O.2       6 UNK        -0.5000 
     42 CA          2.3526  -17.9172  -39.9068 C.3       6 UNK         0.1400 
     43 CB          3.7062  -17.9146  -39.1799 C.3       6 UNK        -0.1800 
     44 N           1.9032  -16.5392  -40.0992 N.am      6 UNK        -0.5000 
     45 C           0.6993  -16.1678  -40.5495 C.2       5 UNK         0.5000 
     46 O          -0.1623  -16.9673  -40.9112 O.2       5 UNK        -0.5000 
     47 CA          0.3977  -14.6559  -40.6207 C.3       5 UNK         0.1400 
     48 CB          0.0170  -14.0972  -39.2368 C.3       5 UNK        -0.1800 
     49 N           1.4525  -13.8573  -41.2582 N.am      5 UNK        -0.5000 
     50 C           2.7104  -13.6359  -40.8503 C.2       4 UNK         0.5000 
     51 O           3.1560  -14.0295  -39.7705 O.2       4 UNK        -0.5000 
     52 CA          3.6345  -12.8780  -41.8302 C.3       4 UNK         0.1400 
     53 CB          5.1130  -13.2845  -41.6577 C.3       4 UNK        -0.1800 
     54 N           3.2571  -12.9830  -43.2483 N.am      4 UNK        -0.5000 
     55 C           3.1049  -14.0998  -43.9743 C.2       3 UNK         0.5000 
     56 O           3.0828  -15.2340  -43.4923 O.2       3 UNK        -0.5000 
     57 CA          2.9045  -13.8971  -45.4890 C.3       3 UNK         0.1400 
     58 CB          3.3160  -15.1337  -46.3078 C.3       3 UNK        -0.1800 
     59 N           1.5181  -13.5791  -45.8102 N.am      3 UNK        -0.5000 
     60 C           0.8806  -12.4274  -45.5760 C.2       2 UNK         0.5000 
     61 O           1.4168  -11.4514  -45.0478 O.2       2 UNK        -0.5000 
     62 CA         -0.5930  -12.3643  -46.0416 C.3       2 UNK         0.1400 
     63 CB         -1.2395  -10.9918  -45.7838 C.3       2 UNK        -0.1800 
     64 N          -0.7357  -12.6912  -47.4637 N.am      2 UNK        -0.5000 
     65 C          -0.6594  -13.9171  -48.0020 C.2       1 UNK         0.5000 
     66 O          -0.4984  -14.9374  -47.3300 O.2       1 UNK        -0.5000 
     67 C          -1.7230  -21.9965  -47.5196 C.2       11 UNK         0.5000 
     68 O          -2.1453  -22.5360  -48.5437 O.2       11 UNK        -0.5000 
     69 N          -2.5273  -21.4749  -46.5823 N.am      12 UNK        -0.5000 
     70 CA         -3.9808  -21.6331  -46.5723 C.3       12 UNK         0.1400 
     71 CB         -4.6236  -20.5940  -45.6438 C.3       12 UNK        -0.1800 
     72 C          -4.3937  -23.0624  -46.1806 C.2       12 UNK         0.5000 
     73 O          -5.2541  -23.6397  -46.8427 O.2       12 UNK        -0.5000 
     74 N          -3.7458  -23.6327  -45.1536 N.am      13 UNK        -0.5000 
     75 CA         -3.9397  -25.0169  -44.7062 C.3       13 UNK         0.1400 
     76 CB         -3.1873  -25.2442  -43.3865 C.3       13 UNK        -0.1800 
     77 C          -3.5167  -26.0561  -45.7629 C.2       13 UNK         0.5000 
     78 O          -4.1663  -27.0939  -45.8922 O.2       13 UNK        -0.5000 
     79 N          -2.4725  -25.7309  -46.5370 N.am      14 UNK        -0.5000 
     80 CA         -2.0149  -26.4785  -47.7114 C.3       14 UNK         0.1400 
     81 CB         -0.5791  -26.0406  -48.0424 C.3       14 UNK        -0.1800 
     82 C          -2.9255  -26.3111  -48.9491 C.2       14 UNK         0.5000 
     83 O          -2.6512  -26.9268  -49.9787 O.2       14 UNK        -0.5000 
     84 N          -3.9615  -25.4656  -48.8430 N.am      15 UNK        -0.5000 
     85 CA         -4.9800  -25.1024  -49.8343 C.3       15 UNK         0.1400 
     86 CB         -5.6892  -26.3409  -50.4157 C.3       15 UNK        -0.1800 
     87 C          -4.4938  -24.1548  -50.9459 C.2       15 UNK         0.5000 
     88 O          -5.3347  -23.5805  -51.6362 O.2       15 UNK        -0.5000 
     89 N          -3.1750  -23.9737  -51.0904 N.am      16 UNK        -0.5000 
     90 CA         -2.5279  -23.1770  -52.1326 C.3       16 UNK         0.1400 
     91 CB         -1.0023  -23.2871  -51.9841 C.3       16 UNK        -0.1800 
     92 C          -2.9710  -21.7051  -52.1444 C.2       16 UNK         0.5000 
     93 O          -3.3644  -21.1989  -53.1964 O.2       16 UNK        -0.5000 
     94 N          -2.9319  -21.0614  -50.9709 N.am      17 UNK        -0.5000 
     95 CA         -3.3544  -19.6693  -50.8052 C.3       17 UNK         0.1400 
     96 CB         -2.6456  -19.0517  -49.5900 C.3       17 UNK        -0.1800 
     97 C          -4.8817  -19.5326  -50.6710 C.2       17 UNK         0.5000 
     98 O          -5.4256  -18.4904  -51.0339 O.2       17 UNK        -0.5000 
     99 N          -5.5496  -20.5786  -50.1615 N.am      18 UNK        -0.5000 
    100 CA        -6.9973  -20.6019  -49.9372 C.3       18 UNK         0.1400 
    101 CB        -7.3567  -21.7390  -48.9704 C.3       18 UNK        -0.1800 
    102 C         -7.7918  -20.7266  -51.2483 C.2       18 UNK         0.5000 
    103 O         -8.7769  -20.0113  -51.4331 O.2       18 UNK        -0.5000 
    104 N         -7.3331  -21.6092  -52.1461 N.am      19 UNK        -0.5000 
    105 CA        -7.8912  -21.7932  -53.4878 C.3       19 UNK         0.1400 
    106 CB        -7.5279  -23.2016  -53.9860 C.3       19 UNK        -0.1800 
    107 C         -7.3953  -20.7318  -54.4894 C.2       19 UNK         0.5000 
    108 O         -7.9325  -20.6542  -55.5948 O.2       19 UNK        -0.5000 
    109 N         -6.3681  -19.9620  -54.0967 N.am      20 UNK        -0.5000 
    110 CA        -5.6299  -18.9783  -54.8951 C.3       20 UNK         0.1400 
    111 CB        -6.5326  -17.7946  -55.2998 C.3       20 UNK        -0.1800 
    112 C         -4.8933  -19.6236  -56.0882 C.2       20 UNK         0.5000 
    113 O         -4.7571  -19.0081  -57.1471 O.2       20 UNK        -0.5000 
    114 N         -4.4152  -20.8582  -55.8807 N.am      21 UNK        -0.5000 
    115 CA        -3.5434  -21.5887  -56.7999 C.3       21 UNK         0.1400 
    116 CB        -3.5714  -23.0806  -56.4354 C.3       21 UNK        -0.1800 
    117 C         -2.1033  -21.0431  -56.7632 C.2       21 UNK         0.5000 
    118 O         -1.3896  -21.1384  -57.7622 O.2       21 UNK        -0.5000 
    119 N         -1.7240  -20.4566  -55.6232 N.am      22 UNK        -0.5000 
    120 CA        -0.5083  -19.6708  -55.4175 C.3       22 UNK         0.1400 
    121 C         -0.8790  -18.3187  -54.7530 C.2       22 UNK         0.5000 
    122 N         -0.1728  -17.2446  -55.0753 N.am      22 UNK        -0.7600 
    123 O         -1.8009  -18.2348  -53.9446 O.2       22 UNK        -0.5000 
    124 C124        0.5337  -20.4672  -54.5921 C.3       23 UNK        -0.0398 
    125 S125        2.2411  -19.9511  -54.9686 S.3       23 UNK        -0.2404 
    126 C126        3.0675  -20.2262  -53.3644 C.3       23 UNK        -0.0205 
    127 H127       -3.1828  -11.3375  -51.2562 H         1 UNK         0.0600 
    128 H128       -4.3503  -11.3699  -49.9316 H         1 UNK         0.0600 
    129 H129       -4.5522  -12.4503  -51.3151 H         1 UNK         0.0600 
    130 H130       -1.2888  -12.3544  -50.7363 H         1 UNK         0.3000 
    131 H131        0.2618  -13.6225  -49.8547 H         1 UNK         0.0600 
    132 H132       -0.2327  -16.1469  -49.5261 H         1 UNK         0.0800 
    133 H133       -1.8729  -15.8049  -49.9681 H         1 UNK         0.0800 
    134 H134        1.8130  -14.9941  -50.9874 H         1 UNK         0.0800 
    135 H135        1.8488  -15.3540  -52.6877 H         1 UNK         0.0800 
    136 H136        2.0772  -17.6222  -53.5066 H         1 UNK         0.1150 
    137 H137        3.2544  -20.6557  -50.7187 H         1 UNK         0.1150 
    138 H138        1.8932  -16.8504  -49.3028 H         1 UNK         0.1150 
    139 H139        2.3027  -18.5738  -47.7095 H         1 UNK         0.0800 
    140 H140        3.8714  -19.1642  -48.1983 H         1 UNK         0.0800 
    141 H141        0.1403  -20.8111  -49.1272 H         1 UNK         0.0800 
    142 H142        0.1703  -19.8216  -47.6792 H         1 UNK         0.0800 
    143 H143        0.1982  -22.8713  -47.6746 H         1 UNK         0.0600 
    144 H144        0.5516  -21.0209  -45.5158 H         1 UNK         0.3000 
    145 H145       -0.0199  -23.5147  -42.9595 H         1 UNK         0.0600 
    146 H146        2.3410  -23.6281  -43.6637 H         1 UNK         0.0600 
    147 H147        2.1800  -22.5116  -42.3156 H         1 UNK         0.0600 
    148 H148        2.3819  -21.8971  -43.9562 H         1 UNK         0.0600 
    149 H149        0.4530  -20.7329  -42.7036 H         1 UNK         0.3000 
    150 H150       -2.9872  -19.6926  -42.6829 H         1 UNK         0.0600 
    151 H151       -0.8508  -19.8725  -40.4932 H         1 UNK         0.0600 
    152 H152       -2.4596  -20.5819  -40.4001 H         1 UNK         0.0600 
    153 H153       -2.2757  -18.8362  -40.4796 H         1 UNK         0.0600 
    154 H154       -0.6162  -18.1989  -42.3057 H         1 UNK         0.3000 
    155 H155       -0.0580  -17.3160  -45.7577 H         1 UNK         0.0600 
    156 H156        0.0767  -15.1803  -44.3046 H         1 UNK         0.0600 
    157 H157       -1.0110  -15.9656  -43.1760 H         1 UNK         0.0600 
    158 H158       -1.5346  -15.6571  -44.8192 H         1 UNK         0.0600 
    159 H159        1.5754  -16.8331  -43.5138 H         1 UNK         0.3000 
    160 H160        3.4172  -19.8503  -43.4071 H         1 UNK         0.0600 
    161 H161        4.3971  -17.1511  -44.4459 H         1 UNK         0.0600 
    162 H162        4.5347  -18.6821  -45.2930 H         1 UNK         0.0600 
    163 H163        5.3811  -18.4426  -43.7723 H         1 UNK         0.0600 
    164 H164        3.5359  -17.2461  -42.1068 H         1 UNK         0.3000 
    165 H165        1.6247  -18.4153  -39.2630 H         1 UNK         0.0600 
    166 H166        4.0683  -18.9315  -39.0231 H         1 UNK         0.0600 
    167 H167        4.4682  -17.3764  -39.7451 H         1 UNK         0.0600 
    168 H168        3.6244  -17.4446  -38.1997 H         1 UNK         0.0600 
    169 H169        2.5474  -15.7972  -39.8385 H         1 UNK         0.3000 
    170 H170       -0.4779  -14.5438  -41.2615 H         1 UNK         0.0600 
    171 H171       -0.2543  -13.0433  -39.2986 H         1 UNK         0.0600 
    172 H172        0.8295  -14.1928  -38.5163 H         1 UNK         0.0600 
    173 H173       -0.8420  -14.6305  -38.8277 H         1 UNK         0.0600 
    174 H174        1.2211  -13.5063  -42.1762 H         1 UNK         0.3000 
    175 H175        3.5474  -11.8228  -41.5681 H         1 UNK         0.0600 
    176 H176        5.2627  -14.3473  -41.8517 H         1 UNK         0.0600 
    177 H177        5.4635  -13.0831  -40.6448 H         1 UNK         0.0600 
    178 H178        5.7575  -12.7261  -42.3366 H         1 UNK         0.0600 
    179 H179        3.1329  -12.1010  -43.7314 H         1 UNK         0.3000 
    180 H180        3.5359  -13.0641  -45.8048 H         1 UNK         0.0600 
    181 H181        2.6969  -16.0007  -46.0749 H         1 UNK         0.0600 
    182 H182        4.3541  -15.4034  -46.1116 H         1 UNK         0.0600 
    183 H183        3.2291  -14.9435  -47.3777 H         1 UNK         0.0600 
    184 H184        0.9792  -14.3161  -46.2554 H         1 UNK         0.3000 
    185 H185       -1.1458  -13.1034  -45.4583 H         1 UNK         0.0600 
    186 H186       -1.1973  -10.7311  -44.7254 H         1 UNK         0.0600 
    187 H187       -0.7370  -10.1987  -46.3389 H         1 UNK         0.0600 
    188 H188       -2.2903  -10.9906  -46.0742 H         1 UNK         0.0600 
    189 H189       -0.8477  -11.9069  -48.0896 H         1 UNK         0.3000 
    190 H190       -2.1175  -20.9601  -45.8106 H         1 UNK         0.3000 
    191 H191       -4.3513  -21.4465  -47.5819 H         1 UNK         0.0600 
    192 H192       -4.3905  -19.5801  -45.9695 H         1 UNK         0.0600 
    193 H193       -5.7097  -20.6926  -45.6406 H         1 UNK         0.0600 
    194 H194       -4.2806  -20.7020  -44.6151 H         1 UNK         0.0600 
    195 H195       -3.0867  -23.0748  -44.6162 H         1 UNK         0.3000 
    196 H196       -5.0057  -25.1572  -44.5163 H         1 UNK         0.0600 
    197 H197       -3.3329  -26.2623  -43.0234 H         1 UNK         0.0600 
    198 H198       -3.5432  -24.5678  -42.6092 H         1 UNK         0.0600 
    199 H199       -2.1148  -25.0861  -43.5012 H         1 UNK         0.0600 
    200 H200       -1.9361  -24.9043  -46.2908 H         1 UNK         0.3000 
    201 H201       -1.9996  -27.5405  -47.4589 H         1 UNK         0.0600 
    202 H202       -0.1617  -26.6402  -48.8523 H         1 UNK         0.0600 
    203 H203        0.0799  -26.1569  -47.1817 H         1 UNK         0.0600 
    204 H204       -0.5429  -24.9976  -48.3561 H         1 UNK         0.0600 
    205 H205       -4.0769  -24.9904  -47.9558 H         1 UNK         0.3000 
    206 H206       -5.7309  -24.5455  -49.2763 H         1 UNK         0.0600 
    207 H207       -6.0546  -26.9951  -49.6241 H         1 UNK         0.0600 
    208 H208       -6.5505  -26.0463  -51.0166 H         1 UNK         0.0600 
    209 H209       -5.0323  -26.9243  -51.0609 H         1 UNK         0.0600 
    210 H210       -2.5654  -24.4535  -50.4450 H         1 UNK         0.3000 
    211 H211       -2.8081  -23.6130  -53.0927 H         1 UNK         0.0600 
    212 H212       -0.6724  -24.3225  -52.0710 H         1 UNK         0.0600 
    213 H213       -0.4916  -22.7186  -52.7615 H         1 UNK         0.0600 
    214 H214       -0.6605  -22.9078  -51.0200 H         1 UNK         0.0600 
    215 H215       -2.6239  -21.5671  -50.1447 H         1 UNK         0.3000 
    216 H216       -3.0505  -19.1004  -51.6865 H         1 UNK         0.0600 
    217 H217       -2.9162  -19.5544  -48.6626 H         1 UNK         0.0600 
    218 H218       -2.9167  -18.0015  -49.4774 H         1 UNK         0.0600 
    219 H219       -1.5623  -19.0937  -49.7010 H         1 UNK         0.0600 
    220 H220       -5.0347  -21.4169  -49.9402 H         1 UNK         0.3000 
    221 H221       -7.2831  -19.6601  -49.4636 H         1 UNK         0.0600 
    222 H222       -7.1045  -22.7145  -49.3835 H         1 UNK         0.0600 
    223 H223       -6.8393  -21.6288  -48.0179 H         1 UNK         0.0600 
    224 H224       -8.4263  -21.7434  -48.7573 H         1 UNK         0.0600 
    225 H225       -6.5383  -22.2003  -51.9093 H         1 UNK         0.3000 
    226 H226       -8.9794  -21.7194  -53.4352 H         1 UNK         0.0600 
    227 H227       -7.8666  -23.9678  -53.2885 H         1 UNK         0.0600 
    228 H228       -7.9951  -23.4088  -54.9495 H         1 UNK         0.0600 
    229 H229       -6.4507  -23.3172  -54.1135 H         1 UNK         0.0600 
    230 H230       -6.0090  -20.1200  -53.1661 H         1 UNK         0.3000 
    231 H231       -4.8500  -18.5859  -54.2401 H         1 UNK         0.0600 
    232 H232       -7.2963  -18.0914  -56.0189 H         1 UNK         0.0600 
    233 H233       -5.9464  -16.9972  -55.7579 H         1 UNK         0.0600 
    234 H234       -7.0351  -17.3686  -54.4314 H         1 UNK         0.0600 
    235 H235       -4.5060  -21.2445  -54.9484 H         1 UNK         0.3000 
    236 H236       -3.9253  -21.4726  -57.8162 H         1 UNK         0.0600 
    237 H237       -3.1911  -23.2555  -55.4290 H         1 UNK         0.0600 
    238 H238       -4.5846  -23.4799  -56.4853 H         1 UNK         0.0600 
    239 H239       -2.9574  -23.6617  -57.1245 H         1 UNK         0.0600 
    240 H240       -2.3851  -20.4190  -54.8535 H         1 UNK         0.3000 
    241 H241       -0.0837  -19.4414  -56.3972 H         1 UNK         0.0600 
    242 H242        0.5884  -17.2881  -55.7344 H         1 UNK         0.3800 
    243 H243       -0.4014  -16.3699  -54.6300 H         1 UNK         0.3800 
    244 H244        0.3334  -20.3904  -53.5216 H         1 UNK         0.0800 
    245 H245        0.4718  -21.5294  -54.8329 H         1 UNK         0.0800 
    246 H246        2.8763  -21.2546  -53.0531 H         1 UNK         0.0800 
    247 H247        4.1442  -20.1475  -53.5187 H         1 UNK         0.0800 
@<TRIPOS>BOND
     1    1    2 1    
     2    1  127 1    
     3    1  128 1    
     4    1  129 1    
     5    2    3 2    
     6    2    4 am   BACKBONE|DICT|INTERRES
     7    4    5 1    
     8    4  130 1    
     9    5    6 1    
    10    5   65 1    
    11    5  131 1    
    12    6    7 1    
    13    6  132 1    
    14    6  133 1    
    15    7    8 1    
    16    8    9 1    
    17    8  134 1    
    18    8  135 1    
    19    9   10 ar   
    20    9   14 ar   
    21   10   11 ar   
    22   10  136 1    
    23   11   12 ar   
    24   11  126 1    
    25   12   13 ar   
    26   12  137 1    
    27   13   14 ar   
    28   13   15 1    
    29   14  138 1    
    30   15   16 1    
    31   15  139 1    
    32   15  140 1    
    33   16   17 1    
    34   17   18 1    
    35   17  141 1    
    36   17  142 1    
    37   18   19 1    
    38   18   67 1    
    39   18  143 1    
    40   19   20 am   BACKBONE|DICT|INTERRES
    41   19  144 1    
    42   20   21 2    
    43   20   22 1    
    44   22   23 1    
    45   22   24 1    
    46   22  145 1    
    47   23  146 1    
    48   23  147 1    
    49   23  148 1    
    50   24   25 am   BACKBONE|DICT|INTERRES
    51   24  149 1    
    52   25   26 2    
    53   25   27 1    
    54   27   28 1    
    55   27   29 1    
    56   27  150 1    
    57   28  151 1    
    58   28  152 1    
    59   28  153 1    
    60   29   30 am   BACKBONE|DICT|INTERRES
    61   29  154 1    
    62   30   31 2    
    63   30   32 1    
    64   32   33 1    
    65   32   34 1    
    66   32  155 1    
    67   33  156 1    
    68   33  157 1    
    69   33  158 1    
    70   34   35 am   BACKBONE|DICT|INTERRES
    71   34  159 1    
    72   35   36 2    
    73   35   37 1    
    74   37   38 1    
    75   37   39 1    
    76   37  160 1    
    77   38  161 1    
    78   38  162 1    
    79   38  163 1    
    80   39   40 am   BACKBONE|DICT|INTERRES
    81   39  164 1    
    82   40   41 2    
    83   40   42 1    
    84   42   43 1    
    85   42   44 1    
    86   42  165 1    
    87   43  166 1    
    88   43  167 1    
    89   43  168 1    
    90   44   45 am   BACKBONE|DICT|INTERRES
    91   44  169 1    
    92   45   46 2    
    93   45   47 1    
    94   47   48 1    
    95   47   49 1    
    96   47  170 1    
    97   48  171 1    
    98   48  172 1    
    99   48  173 1    
   100   49   50 am   BACKBONE|DICT|INTERRES
   101   49  174 1    
   102   50   51 2    
   103   50   52 1    
   104   52   53 1    
   105   52   54 1    
   106   52  175 1    
   107   53  176 1    
   108   53  177 1    
   109   53  178 1    
   110   54   55 am   BACKBONE|DICT|INTERRES
   111   54  179 1    
   112   55   56 2    
   113   55   57 1    
   114   57   58 1    
   115   57   59 1    
   116   57  180 1    
   117   58  181 1    
   118   58  182 1    
   119   58  183 1    
   120   59   60 am   BACKBONE|DICT|INTERRES
   121   59  184 1    
   122   60   61 2    
   123   60   62 1    
   124   62   63 1    
   125   62   64 1    
   126   62  185 1    
   127   63  186 1    
   128   63  187 1    
   129   63  188 1    
   130   64   65 am   BACKBONE|DICT|INTERRES
   131   64  189 1    
   132   65   66 2    
   133   67   68 2    
   134   67   69 am   BACKBONE|DICT|INTERRES
   135   69   70 1    
   136   69  190 1    
   137   70   71 1    
   138   70   72 1    
   139   70  191 1    
   140   71  192 1    
   141   71  193 1    
   142   71  194 1    
   143   72   73 2    
   144   72   74 am   BACKBONE|DICT|INTERRES
   145   74   75 1    
   146   74  195 1    
   147   75   76 1    
   148   75   77 1    
   149   75  196 1    
   150   76  197 1    
   151   76  198 1    
   152   76  199 1    
   153   77   78 2    
   154   77   79 am   BACKBONE|DICT|INTERRES
   155   79   80 1    
   156   79  200 1    
   157   80   81 1    
   158   80   82 1    
   159   80  201 1    
   160   81  202 1    
   161   81  203 1    
   162   81  204 1    
   163   82   83 2    
   164   82   84 am   BACKBONE|DICT|INTERRES
   165   84   85 1    
   166   84  205 1    
   167   85   86 1    
   168   85   87 1    
   169   85  206 1    
   170   86  207 1    
   171   86  208 1    
   172   86  209 1    
   173   87   88 2    
   174   87   89 am   BACKBONE|DICT|INTERRES
   175   89   90 1    
   176   89  210 1    
   177   90   91 1    
   178   90   92 1    
   179   90  211 1    
   180   91  212 1    
   181   91  213 1    
   182   91  214 1    
   183   92   93 2    
   184   92   94 am   BACKBONE|DICT|INTERRES
   185   94   95 1    
   186   94  215 1    
   187   95   96 1    
   188   95   97 1    
   189   95  216 1    
   190   96  217 1    
   191   96  218 1    
   192   96  219 1    
   193   97   98 2    
   194   97   99 am   BACKBONE|DICT|INTERRES
   195   99  100 1    
   196   99  220 1    
   197  100  101 1    
   198  100  102 1    
   199  100  221 1    
   200  101  222 1    
   201  101  223 1    
   202  101  224 1    
   203  102  103 2    
   204  102  104 am   BACKBONE|DICT|INTERRES
   205  104  105 1    
   206  104  225 1    
   207  105  106 1    
   208  105  107 1    
   209  105  226 1    
   210  106  227 1    
   211  106  228 1    
   212  106  229 1    
   213  107  108 2    
   214  107  109 am   BACKBONE|DICT|INTERRES
   215  109  110 1    
   216  109  230 1    
   217  110  111 1    
   218  110  112 1    
   219  110  231 1    
   220  111  232 1    
   221  111  233 1    
   222  111  234 1    
   223  112  113 2    
   224  112  114 am   BACKBONE|DICT|INTERRES
   225  114  115 1    
   226  114  235 1    
   227  115  116 1    
   228  115  117 1    
   229  115  236 1    
   230  116  237 1    
   231  116  238 1    
   232  116  239 1    
   233  117  118 2    
   234  117  119 am   BACKBONE|DICT|INTERRES
   235  119  120 1    
   236  119  240 1    
   237  120  121 1    
   238  120  124 1    
   239  120  241 1    
   240  121  122 am   BACKBONE|DICT|INTERRES
   241  121  123 2    
   242  122  242 1    
   243  122  243 1    
   244  124  125 1    
   245  124  244 1    
   246  124  245 1    
   247  125  126 1    
   248  126  246 1    
   249  126  247 1    
@<TRIPOS>SUBSTRUCTURE
     1 UNK         1 GROUP             0       ****    0 ROOT    
