@<TRIPOS>MOLECULE
3R540
247   249    1
SMALL
USER_CHARGES


@<TRIPOS>ATOM
      1 CA          5.4624  -15.4502  -47.9100 C.3       0 UNK        -0.1800 
      2 C           4.4483  -14.7944  -46.9854 C.2       0 UNK         0.5000 
      3 O           4.7165  -14.6301  -45.7974 O.2       0 UNK        -0.5000 
      4 N           3.2907  -14.3951  -47.5262 N.am      1 UNK        -0.5000 
      5 CA          2.1595  -13.8173  -46.7901 C.3       1 UNK         0.1400 
      6 C6          0.8959  -13.7214  -47.6829 C.3       23 UNK        -0.0398 
      7 S7          0.9661  -12.4867  -49.0409 S.3       23 UNK        -0.2404 
      8 C8          1.7935  -13.3419  -50.4290 C.3       23 UNK        -0.0205 
      9 C9          1.2144  -14.7197  -50.7106 C.ar      23 UNK        -0.0193 
     10 C10        -0.0778  -14.8551  -51.2281 C.ar      23 UNK        -0.1150 
     11 C11        -0.6417  -16.1225  -51.4090 C.ar      23 UNK        -0.0193 
     12 C12         0.1073  -17.2554  -51.0801 C.ar      23 UNK        -0.1150 
     13 C13         1.4040  -17.1322  -50.5746 C.ar      23 UNK        -0.0193 
     14 C14         1.9598  -15.8631  -50.4123 C.ar      23 UNK        -0.1150 
     15 C15         2.1798  -18.3660  -50.1372 C.3       23 UNK        -0.0205 
     16 S16         2.2749  -18.4910  -48.3191 S.3       23 UNK        -0.2404 
     17 C17         0.5109  -18.6005  -47.8661 C.3       23 UNK        -0.0398 
     18 CA          0.0739  -20.0428  -47.5160 C.3       11 UNK         0.1400 
     19 N           0.2799  -20.3338  -46.0953 N.am      11 UNK        -0.5000 
     20 C           0.0820  -21.5184  -45.5040 C.2       10 UNK         0.5000 
     21 O          -0.2493  -22.5378  -46.1076 O.2       10 UNK        -0.5000 
     22 CA          0.2158  -21.5516  -43.9700 C.3       10 UNK         0.1400 
     23 CB          1.6902  -21.6225  -43.5460 C.3       10 UNK        -0.1800 
     24 N          -0.4319  -20.4047  -43.3282 N.am      10 UNK        -0.5000 
     25 C          -1.7483  -20.1542  -43.3833 C.2       9 UNK         0.5000 
     26 O          -2.5596  -20.8966  -43.9352 O.2       9 UNK        -0.5000 
     27 CA         -2.2390  -18.8319  -42.7667 C.3       9 UNK         0.1400 
     28 CB         -2.3704  -18.9521  -41.2414 C.3       9 UNK        -0.1800 
     29 N          -1.3796  -17.6966  -43.1049 N.am      9 UNK        -0.5000 
     30 C          -1.1871  -17.2324  -44.3479 C.2       8 UNK         0.5000 
     31 O          -1.7514  -17.6888  -45.3415 O.2       8 UNK        -0.5000 
     32 CA         -0.1512  -16.1054  -44.5208 C.3       8 UNK         0.1400 
     33 CB         -0.7555  -14.7417  -44.1577 C.3       8 UNK        -0.1800 
     34 N           1.0682  -16.3339  -43.7432 N.am      8 UNK        -0.5000 
     35 C           1.8876  -17.3837  -43.9072 C.2       7 UNK         0.5000 
     36 O           1.7357  -18.2389  -44.7771 O.2       7 UNK        -0.5000 
     37 CA          3.0209  -17.5507  -42.8816 C.3       7 UNK         0.1400 
     38 CB          4.2297  -16.6698  -43.2287 C.3       7 UNK        -0.1800 
     39 N           2.5611  -17.2617  -41.5239 N.am      7 UNK        -0.5000 
     40 C           1.7126  -18.0405  -40.8367 C.2       6 UNK         0.5000 
     41 O           1.2722  -19.1094  -41.2593 O.2       6 UNK        -0.5000 
     42 CA          1.2461  -17.5143  -39.4666 C.3       6 UNK         0.1400 
     43 CB          2.2609  -17.8795  -38.3732 C.3       6 UNK        -0.1800 
     44 N           1.0345  -16.0659  -39.4666 N.am      6 UNK        -0.5000 
     45 C           0.0749  -15.4384  -40.1624 C.2       5 UNK         0.5000 
     46 O          -0.7770  -16.0250  -40.8275 O.2       5 UNK        -0.5000 
     47 CA          0.1097  -13.8975  -40.1583 C.3       5 UNK         0.1400 
     48 CB         -0.7068  -13.3414  -38.9826 C.3       5 UNK        -0.1800 
     49 N           1.4740  -13.3640  -40.1014 N.am      5 UNK        -0.5000 
     50 C           2.3918  -13.5390  -41.0606 C.2       4 UNK         0.5000 
     51 O           2.1685  -14.1228  -42.1243 O.2       4 UNK        -0.5000 
     52 CA          3.8117  -13.0635  -40.7341 C.3       4 UNK         0.1400 
     53 CB          4.5083  -14.1002  -39.8267 C.3       4 UNK        -0.1800 
     54 N           4.5578  -12.8906  -41.9767 N.am      4 UNK        -0.5000 
     55 C           5.7645  -12.3227  -42.0867 C.2       3 UNK         0.5000 
     56 O           6.3828  -11.8345  -41.1396 O.2       3 UNK        -0.5000 
     57 CA          6.3909  -12.2890  -43.4908 C.3       3 UNK         0.1400 
     58 CB          7.0841  -13.6245  -43.8028 C.3       3 UNK        -0.1800 
     59 N           5.4235  -11.9724  -44.5440 N.am      3 UNK        -0.5000 
     60 C           4.9137  -10.7460  -44.7429 C.2       2 UNK         0.5000 
     61 O           5.1689   -9.7833  -44.0177 O.2       2 UNK        -0.5000 
     62 CA          3.9979  -10.5266  -45.9644 C.3       2 UNK         0.1400 
     63 CB          4.7392   -9.7376  -47.0554 C.3       2 UNK        -0.1800 
     64 N           3.5036  -11.7696  -46.5502 N.am      2 UNK        -0.5000 
     65 C           2.4780  -12.4850  -46.0717 C.2       1 UNK         0.5000 
     66 O           1.8072  -12.1418  -45.0986 O.2       1 UNK        -0.5000 
     67 C          -1.3807  -20.2886  -47.9700 C.2       11 UNK         0.5000 
     68 O          -1.5830  -20.8151  -49.0639 O.2       11 UNK        -0.5000 
     69 N          -2.3576  -19.9046  -47.1377 N.am      12 UNK        -0.5000 
     70 CA         -3.7830  -20.1227  -47.3856 C.3       12 UNK         0.1400 
     71 CB         -4.6062  -19.2371  -46.4381 C.3       12 UNK        -0.1800 
     72 C          -4.1901  -21.6013  -47.2446 C.2       12 UNK         0.5000 
     73 O          -5.0390  -22.0723  -48.0015 O.2       12 UNK        -0.5000 
     74 N          -3.5804  -22.3100  -46.2834 N.am      13 UNK        -0.5000 
     75 CA         -3.7782  -23.7424  -46.0583 C.3       13 UNK         0.1400 
     76 CB         -3.1626  -24.1432  -44.7092 C.3       13 UNK        -0.1800 
     77 C          -3.2053  -24.6021  -47.1998 C.2       13 UNK         0.5000 
     78 O          -3.8362  -25.5809  -47.6002 O.2       13 UNK        -0.5000 
     79 N          -2.0451  -24.2013  -47.7354 N.am      14 UNK        -0.5000 
     80 CA         -1.3416  -24.8351  -48.8538 C.3       14 UNK         0.1400 
     81 CB          0.1463  -24.4476  -48.7737 C.3       14 UNK        -0.1800 
     82 C          -1.9590  -24.5098  -50.2347 C.2       14 UNK         0.5000 
     83 O          -1.2246  -24.2492  -51.1908 O.2       14 UNK        -0.5000 
     84 N          -3.2950  -24.5205  -50.3223 N.am      15 UNK        -0.5000 
     85 CA         -4.0780  -24.2987  -51.5384 C.3       15 UNK         0.1400 
     86 CB         -5.5622  -24.2127  -51.1502 C.3       15 UNK        -0.1800 
     87 C          -3.8525  -25.4051  -52.5874 C.2       15 UNK         0.5000 
     88 O          -3.4982  -26.5338  -52.2332 O.2       15 UNK        -0.5000 
     89 N          -4.1017  -25.0799  -53.8606 N.am      16 UNK        -0.5000 
     90 CA         -3.9410  -25.9730  -55.0080 C.3       16 UNK         0.1400 
     91 CB         -3.7697  -25.1198  -56.2777 C.3       16 UNK        -0.1800 
     92 C          -5.1240  -26.9552  -55.1107 C.2       16 UNK         0.5000 
     93 O          -5.9671  -26.8160  -55.9966 O.2       16 UNK        -0.5000 
     94 N          -5.1780  -27.9051  -54.1662 N.am      17 UNK        -0.5000 
     95 CA         -6.2399  -28.8976  -53.9617 C.3       17 UNK         0.1400 
     96 CB         -6.3211  -29.8807  -55.1489 C.3       17 UNK        -0.1800 
     97 C          -7.5881  -28.2272  -53.6246 C.2       17 UNK         0.5000 
     98 O          -8.6089  -28.5266  -54.2465 O.2       17 UNK        -0.5000 
     99 N          -7.5410  -27.3110  -52.6442 N.am      18 UNK        -0.5000 
    100 CA        -8.6466  -26.4770  -52.1539 C.3       18 UNK         0.1400 
    101 CB        -9.7478  -27.3399  -51.5015 C.3       18 UNK        -0.1800 
    102 C         -9.1893  -25.5011  -53.2214 C.2       18 UNK         0.5000 
    103 O        -10.3914  -25.2323  -53.2651 O.2       18 UNK        -0.5000 
    104 N         -8.2846  -24.9760  -54.0541 N.am      19 UNK        -0.5000 
    105 CA        -8.5489  -23.9894  -55.0948 C.3       19 UNK         0.1400 
    106 CB        -8.8574  -24.7088  -56.4197 C.3       19 UNK        -0.1800 
    107 C         -7.3357  -23.0548  -55.2237 C.2       19 UNK         0.5000 
    108 O         -6.2994  -23.2961  -54.5987 O.2       19 UNK        -0.5000 
    109 N         -7.5025  -21.9848  -56.0128 N.am      20 UNK        -0.5000 
    110 CA        -6.5251  -20.9343  -56.3452 C.3       20 UNK         0.1400 
    111 CB        -5.2606  -21.5352  -56.9928 C.3       20 UNK        -0.1800 
    112 C         -6.1559  -19.9829  -55.1859 C.2       20 UNK         0.5000 
    113 O         -5.4325  -19.0140  -55.4222 O.2       20 UNK        -0.5000 
    114 N         -6.6559  -20.2569  -53.9720 N.am      21 UNK        -0.5000 
    115 CA        -6.4441  -19.5663  -52.6926 C.3       21 UNK         0.1400 
    116 CB        -6.9274  -18.1039  -52.7461 C.3       21 UNK        -0.1800 
    117 C         -5.0018  -19.6637  -52.1595 C.2       21 UNK         0.5000 
    118 O         -4.8086  -20.0619  -51.0119 O.2       21 UNK        -0.5000 
    119 N         -4.0241  -19.3054  -52.9949 N.am      22 UNK        -0.5000 
    120 CA        -2.5898  -19.4288  -52.7286 C.3       22 UNK         0.1400 
    121 C         -2.1334  -20.9057  -52.8534 C.2       22 UNK         0.5000 
    122 N         -1.5940  -21.4901  -51.7954 N.am      22 UNK        -0.7600 
    123 O         -2.2474  -21.5173  -53.9129 O.2       22 UNK        -0.5000 
    124 C124       -1.7549  -18.5110  -53.6633 C.3       23 UNK        -0.0398 
    125 S125       -2.2174  -16.7390  -53.6382 S.3       23 UNK        -0.2404 
    126 C126       -2.0824  -16.2623  -51.8831 C.3       23 UNK        -0.0205 
    127 H127        5.5758  -16.5027  -47.6502 H         1 UNK         0.0600 
    128 H128        6.4330  -14.9653  -47.8062 H         1 UNK         0.0600 
    129 H129        5.1612  -15.3865  -48.9555 H         1 UNK         0.0600 
    130 H130        3.1302  -14.5408  -48.5103 H         1 UNK         0.3000 
    131 H131        1.9341  -14.5276  -45.9928 H         1 UNK         0.0600 
    132 H132        0.6496  -14.7039  -48.0858 H         1 UNK         0.0800 
    133 H133        0.0393  -13.4588  -47.0598 H         1 UNK         0.0800 
    134 H134        2.8635  -13.4017  -50.2270 H         1 UNK         0.0800 
    135 H135        1.6947  -12.7267  -51.3245 H         1 UNK         0.0800 
    136 H136       -0.6565  -13.9699  -51.4523 H         1 UNK         0.1150 
    137 H137       -0.3300  -18.2375  -51.1752 H         1 UNK         0.1150 
    138 H138        2.9596  -15.7756  -50.0144 H         1 UNK         0.1150 
    139 H139        1.7251  -19.2738  -50.5372 H         1 UNK         0.0800 
    140 H140        3.1907  -18.3225  -50.5449 H         1 UNK         0.0800 
    141 H141       -0.0958  -18.1836  -48.6660 H         1 UNK         0.0800 
    142 H142        0.3370  -17.9300  -47.0265 H         1 UNK         0.0800 
    143 H143        0.6889  -20.7469  -48.0808 H         1 UNK         0.0600 
    144 H144        0.6184  -19.5603  -45.5280 H         1 UNK         0.3000 
    145 H145       -0.2814  -22.4560  -43.6135 H         1 UNK         0.0600 
    146 H146        1.7844  -21.7127  -42.4637 H         1 UNK         0.0600 
    147 H147        2.1819  -22.4889  -43.9897 H         1 UNK         0.0600 
    148 H148        2.2438  -20.7363  -43.8561 H         1 UNK         0.0600 
    149 H149        0.1690  -19.7689  -42.8134 H         1 UNK         0.3000 
    150 H150       -3.2311  -18.6268  -43.1742 H         1 UNK         0.0600 
    151 H151       -3.0309  -19.7768  -40.9708 H         1 UNK         0.0600 
    152 H152       -2.7905  -18.0437  -40.8096 H         1 UNK         0.0600 
    153 H153       -1.4069  -19.1337  -40.7656 H         1 UNK         0.0600 
    154 H154       -0.9294  -17.2195  -42.3291 H         1 UNK         0.3000 
    155 H155        0.1321  -16.0758  -45.5738 H         1 UNK         0.0600 
    156 H156       -1.1189  -14.7195  -43.1311 H         1 UNK         0.0600 
    157 H157       -1.5993  -14.5062  -44.8073 H         1 UNK         0.0600 
    158 H158       -0.0250  -13.9411  -44.2682 H         1 UNK         0.0600 
    159 H159        1.2962  -15.6468  -43.0311 H         1 UNK         0.3000 
    160 H160        3.3481  -18.5922  -42.9131 H         1 UNK         0.0600 
    161 H161        3.9705  -15.6125  -43.2631 H         1 UNK         0.0600 
    162 H162        4.6305  -16.9351  -44.2078 H         1 UNK         0.0600 
    163 H163        5.0343  -16.7950  -42.5042 H         1 UNK         0.0600 
    164 H164        2.8346  -16.3746  -41.1310 H         1 UNK         0.3000 
    165 H165        0.2965  -17.9979  -39.2282 H         1 UNK         0.0600 
    166 H166        1.9054  -17.5760  -37.3884 H         1 UNK         0.0600 
    167 H167        2.4267  -18.9571  -38.3398 H         1 UNK         0.0600 
    168 H168        3.2276  -17.4035  -38.5432 H         1 UNK         0.0600 
    169 H169        1.6850  -15.5091  -38.9334 H         1 UNK         0.3000 
    170 H170       -0.3490  -13.5522  -41.0870 H         1 UNK         0.0600 
    171 H171       -1.7339  -13.7078  -39.0138 H         1 UNK         0.0600 
    172 H172       -0.2827  -13.6345  -38.0214 H         1 UNK         0.0600 
    173 H173       -0.7507  -12.2526  -39.0132 H         1 UNK         0.0600 
    174 H174        1.7326  -12.8783  -39.2543 H         1 UNK         0.3000 
    175 H175        3.7486  -12.1013  -40.2220 H         1 UNK         0.0600 
    176 H176        4.6390  -15.0556  -40.3364 H         1 UNK         0.0600 
    177 H177        5.4925  -13.7589  -39.5070 H         1 UNK         0.0600 
    178 H178        3.9318  -14.2867  -38.9200 H         1 UNK         0.0600 
    179 H179        4.0866  -13.2406  -42.8021 H         1 UNK         0.3000 
    180 H180        7.1580  -11.5113  -43.4934 H         1 UNK         0.0600 
    181 H181        6.3882  -14.4625  -43.7559 H         1 UNK         0.0600 
    182 H182        7.8810  -13.8245  -43.0855 H         1 UNK         0.0600 
    183 H183        7.5336  -13.6163  -44.7958 H         1 UNK         0.0600 
    184 H184        5.1432  -12.7384  -45.1474 H         1 UNK         0.3000 
    185 H185        3.1463   -9.9286  -45.6329 H         1 UNK         0.0600 
    186 H186        5.0944   -8.7795  -46.6735 H         1 UNK         0.0600 
    187 H187        5.6062  -10.2840  -47.4287 H         1 UNK         0.0600 
    188 H188        4.0854   -9.5253  -47.9017 H         1 UNK         0.0600 
    189 H189        4.0015  -12.1256  -47.3526 H         1 UNK         0.3000 
    190 H190       -2.1128  -19.4009  -46.2910 H         1 UNK         0.3000 
    191 H191       -4.0010  -19.8145  -48.4101 H         1 UNK         0.0600 
    192 H192       -4.4228  -19.4852  -45.3925 H         1 UNK         0.0600 
    193 H193       -5.6745  -19.3566  -46.6226 H         1 UNK         0.0600 
    194 H194       -4.3671  -18.1827  -46.5781 H         1 UNK         0.0600 
    195 H195       -2.9507  -21.8299  -45.6480 H         1 UNK         0.3000 
    196 H196       -4.8527  -23.9302  -46.0077 H         1 UNK         0.0600 
    197 H197       -3.3260  -25.2020  -44.5050 H         1 UNK         0.0600 
    198 H198       -3.6099  -23.5806  -43.8895 H         1 UNK         0.0600 
    199 H199       -2.0872  -23.9667  -44.6873 H         1 UNK         0.0600 
    200 H200       -1.5802  -23.4008  -47.3179 H         1 UNK         0.3000 
    201 H201       -1.4071  -25.9177  -48.7299 H         1 UNK         0.0600 
    202 H202        0.5738  -24.7213  -47.8089 H         1 UNK         0.0600 
    203 H203        0.2856  -23.3739  -48.9081 H         1 UNK         0.0600 
    204 H204        0.7307  -24.9567  -49.5409 H         1 UNK         0.0600 
    205 H205       -3.8107  -24.7885  -49.4928 H         1 UNK         0.3000 
    206 H206       -3.7748  -23.3442  -51.9718 H         1 UNK         0.0600 
    207 H207       -5.9049  -25.1297  -50.6700 H         1 UNK         0.0600 
    208 H208       -6.1918  -24.0385  -52.0225 H         1 UNK         0.0600 
    209 H209       -5.7373  -23.3874  -50.4594 H         1 UNK         0.0600 
    210 H210       -4.5093  -24.1737  -54.0678 H         1 UNK         0.3000 
    211 H211       -3.0290  -26.5595  -54.8778 H         1 UNK         0.0600 
    212 H212       -4.6548  -24.5168  -56.4821 H         1 UNK         0.0600 
    213 H213       -3.5950  -25.7505  -57.1500 H         1 UNK         0.0600 
    214 H214       -2.9188  -24.4441  -56.1880 H         1 UNK         0.0600 
    215 H215       -4.4602  -27.8719  -53.4488 H         1 UNK         0.3000 
    216 H216       -5.9564  -29.4750  -53.0805 H         1 UNK         0.0600 
    217 H217       -7.0266  -30.6853  -54.9388 H         1 UNK         0.0600 
    218 H218       -5.3532  -30.3416  -55.3455 H         1 UNK         0.0600 
    219 H219       -6.6514  -29.3905  -56.0651 H         1 UNK         0.0600 
    220 H220       -6.6469  -27.1503  -52.2032 H         1 UNK         0.3000 
    221 H221       -8.2258  -25.8490  -51.3678 H         1 UNK         0.0600 
    222 H222      -10.2773  -27.9482  -52.2352 H         1 UNK         0.0600 
    223 H223       -9.3307  -28.0087  -50.7487 H         1 UNK         0.0600 
    224 H224      -10.4890  -26.7147  -51.0024 H         1 UNK         0.0600 
    225 H225       -7.3080  -25.2120  -53.9449 H         1 UNK         0.3000 
    226 H226       -9.4062  -23.3767  -54.8080 H         1 UNK         0.0600 
    227 H227       -9.6976  -25.3946  -56.3096 H         1 UNK         0.0600 
    228 H228       -9.1207  -23.9997  -57.2050 H         1 UNK         0.0600 
    229 H229       -8.0020  -25.2853  -56.7721 H         1 UNK         0.0600 
    230 H230       -8.4050  -21.8664  -56.4526 H         1 UNK         0.3000 
    231 H231       -7.0111  -20.3116  -57.0976 H         1 UNK         0.0600 
    232 H232       -5.5143  -22.2291  -57.7941 H         1 UNK         0.0600 
    233 H233       -4.6462  -22.0668  -56.2655 H         1 UNK         0.0600 
    234 H234       -4.6369  -20.7527  -57.4264 H         1 UNK         0.0600 
    235 H235       -7.1898  -21.1110  -53.9035 H         1 UNK         0.3000 
    236 H236       -7.0767  -20.0884  -51.9728 H         1 UNK         0.0600 
    237 H237       -6.3318  -17.4984  -53.4296 H         1 UNK         0.0600 
    238 H238       -7.9680  -18.0444  -53.0647 H         1 UNK         0.0600 
    239 H239       -6.8612  -17.6391  -51.7617 H         1 UNK         0.0600 
    240 H240       -4.2902  -19.0264  -53.9350 H         1 UNK         0.3000 
    241 H241       -2.4168  -19.1206  -51.6975 H         1 UNK         0.0600 
    242 H242       -1.5844  -21.0511  -50.8769 H         1 UNK         0.3800 
    243 H243       -1.3178  -22.4650  -51.8538 H         1 UNK         0.3800 
    244 H244       -0.6916  -18.5945  -53.4367 H         1 UNK         0.0800 
    245 H245       -1.8575  -18.8481  -54.6964 H         1 UNK         0.0800 
    246 H246       -2.6231  -16.9630  -51.2477 H         1 UNK         0.0800 
    247 H247       -2.6001  -15.3099  -51.7594 H         1 UNK         0.0800 
@<TRIPOS>BOND
     1    1    2 1    
     2    1  127 1    
     3    1  128 1    
     4    1  129 1    
     5    2    3 2    
     6    2    4 am   BACKBONE|DICT|INTERRES
     7    4    5 1    
     8    4  130 1    
     9    5    6 1    
    10    5   65 1    
    11    5  131 1    
    12    6    7 1    
    13    6  132 1    
    14    6  133 1    
    15    7    8 1    
    16    8    9 1    
    17    8  134 1    
    18    8  135 1    
    19    9   10 ar   
    20    9   14 ar   
    21   10   11 ar   
    22   10  136 1    
    23   11   12 ar   
    24   11  126 1    
    25   12   13 ar   
    26   12  137 1    
    27   13   14 ar   
    28   13   15 1    
    29   14  138 1    
    30   15   16 1    
    31   15  139 1    
    32   15  140 1    
    33   16   17 1    
    34   17   18 1    
    35   17  141 1    
    36   17  142 1    
    37   18   19 1    
    38   18   67 1    
    39   18  143 1    
    40   19   20 am   BACKBONE|DICT|INTERRES
    41   19  144 1    
    42   20   21 2    
    43   20   22 1    
    44   22   23 1    
    45   22   24 1    
    46   22  145 1    
    47   23  146 1    
    48   23  147 1    
    49   23  148 1    
    50   24   25 am   BACKBONE|DICT|INTERRES
    51   24  149 1    
    52   25   26 2    
    53   25   27 1    
    54   27   28 1    
    55   27   29 1    
    56   27  150 1    
    57   28  151 1    
    58   28  152 1    
    59   28  153 1    
    60   29   30 am   BACKBONE|DICT|INTERRES
    61   29  154 1    
    62   30   31 2    
    63   30   32 1    
    64   32   33 1    
    65   32   34 1    
    66   32  155 1    
    67   33  156 1    
    68   33  157 1    
    69   33  158 1    
    70   34   35 am   BACKBONE|DICT|INTERRES
    71   34  159 1    
    72   35   36 2    
    73   35   37 1    
    74   37   38 1    
    75   37   39 1    
    76   37  160 1    
    77   38  161 1    
    78   38  162 1    
    79   38  163 1    
    80   39   40 am   BACKBONE|DICT|INTERRES
    81   39  164 1    
    82   40   41 2    
    83   40   42 1    
    84   42   43 1    
    85   42   44 1    
    86   42  165 1    
    87   43  166 1    
    88   43  167 1    
    89   43  168 1    
    90   44   45 am   BACKBONE|DICT|INTERRES
    91   44  169 1    
    92   45   46 2    
    93   45   47 1    
    94   47   48 1    
    95   47   49 1    
    96   47  170 1    
    97   48  171 1    
    98   48  172 1    
    99   48  173 1    
   100   49   50 am   BACKBONE|DICT|INTERRES
   101   49  174 1    
   102   50   51 2    
   103   50   52 1    
   104   52   53 1    
   105   52   54 1    
   106   52  175 1    
   107   53  176 1    
   108   53  177 1    
   109   53  178 1    
   110   54   55 am   BACKBONE|DICT|INTERRES
   111   54  179 1    
   112   55   56 2    
   113   55   57 1    
   114   57   58 1    
   115   57   59 1    
   116   57  180 1    
   117   58  181 1    
   118   58  182 1    
   119   58  183 1    
   120   59   60 am   BACKBONE|DICT|INTERRES
   121   59  184 1    
   122   60   61 2    
   123   60   62 1    
   124   62   63 1    
   125   62   64 1    
   126   62  185 1    
   127   63  186 1    
   128   63  187 1    
   129   63  188 1    
   130   64   65 am   BACKBONE|DICT|INTERRES
   131   64  189 1    
   132   65   66 2    
   133   67   68 2    
   134   67   69 am   BACKBONE|DICT|INTERRES
   135   69   70 1    
   136   69  190 1    
   137   70   71 1    
   138   70   72 1    
   139   70  191 1    
   140   71  192 1    
   141   71  193 1    
   142   71  194 1    
   143   72   73 2    
   144   72   74 am   BACKBONE|DICT|INTERRES
   145   74   75 1    
   146   74  195 1    
   147   75   76 1    
   148   75   77 1    
   149   75  196 1    
   150   76  197 1    
   151   76  198 1    
   152   76  199 1    
   153   77   78 2    
   154   77   79 am   BACKBONE|DICT|INTERRES
   155   79   80 1    
   156   79  200 1    
   157   80   81 1    
   158   80   82 1    
   159   80  201 1    
   160   81  202 1    
   161   81  203 1    
   162   81  204 1    
   163   82   83 2    
   164   82   84 am   BACKBONE|DICT|INTERRES
   165   84   85 1    
   166   84  205 1    
   167   85   86 1    
   168   85   87 1    
   169   85  206 1    
   170   86  207 1    
   171   86  208 1    
   172   86  209 1    
   173   87   88 2    
   174   87   89 am   BACKBONE|DICT|INTERRES
   175   89   90 1    
   176   89  210 1    
   177   90   91 1    
   178   90   92 1    
   179   90  211 1    
   180   91  212 1    
   181   91  213 1    
   182   91  214 1    
   183   92   93 2    
   184   92   94 am   BACKBONE|DICT|INTERRES
   185   94   95 1    
   186   94  215 1    
   187   95   96 1    
   188   95   97 1    
   189   95  216 1    
   190   96  217 1    
   191   96  218 1    
   192   96  219 1    
   193   97   98 2    
   194   97   99 am   BACKBONE|DICT|INTERRES
   195   99  100 1    
   196   99  220 1    
   197  100  101 1    
   198  100  102 1    
   199  100  221 1    
   200  101  222 1    
   201  101  223 1    
   202  101  224 1    
   203  102  103 2    
   204  102  104 am   BACKBONE|DICT|INTERRES
   205  104  105 1    
   206  104  225 1    
   207  105  106 1    
   208  105  107 1    
   209  105  226 1    
   210  106  227 1    
   211  106  228 1    
   212  106  229 1    
   213  107  108 2    
   214  107  109 am   BACKBONE|DICT|INTERRES
   215  109  110 1    
   216  109  230 1    
   217  110  111 1    
   218  110  112 1    
   219  110  231 1    
   220  111  232 1    
   221  111  233 1    
   222  111  234 1    
   223  112  113 2    
   224  112  114 am   BACKBONE|DICT|INTERRES
   225  114  115 1    
   226  114  235 1    
   227  115  116 1    
   228  115  117 1    
   229  115  236 1    
   230  116  237 1    
   231  116  238 1    
   232  116  239 1    
   233  117  118 2    
   234  117  119 am   BACKBONE|DICT|INTERRES
   235  119  120 1    
   236  119  240 1    
   237  120  121 1    
   238  120  124 1    
   239  120  241 1    
   240  121  122 am   BACKBONE|DICT|INTERRES
   241  121  123 2    
   242  122  242 1    
   243  122  243 1    
   244  124  125 1    
   245  124  244 1    
   246  124  245 1    
   247  125  126 1    
   248  126  246 1    
   249  126  247 1    
@<TRIPOS>SUBSTRUCTURE
     1 UNK         1 GROUP             0       ****    0 ROOT    
