@<TRIPOS>MOLECULE
3R540
247   249    1
SMALL
USER_CHARGES


@<TRIPOS>ATOM
      1 CA         -2.3514  -16.1320  -42.1177 C.3       0 UNK        -0.1800 
      2 C          -3.3423  -15.5692  -43.1265 C.2       0 UNK         0.5000 
      3 O          -4.2905  -14.8875  -42.7398 O.2       0 UNK        -0.5000 
      4 N          -3.1202  -15.8589  -44.4157 N.am      1 UNK        -0.5000 
      5 CA         -3.9601  -15.4581  -45.5522 C.3       1 UNK         0.1400 
      6 C6         -3.4418  -16.1242  -46.8525 C.3       23 UNK        -0.0398 
      7 S7         -4.4751  -15.8510  -48.3355 S.3       23 UNK        -0.2404 
      8 C8         -3.4054  -14.7652  -49.3375 C.3       23 UNK        -0.0205 
      9 C9         -2.4996  -15.5593  -50.2703 C.ar      23 UNK        -0.0193 
     10 C10        -2.7812  -15.6244  -51.6393 C.ar      23 UNK        -0.1150 
     11 C11        -1.9494  -16.3442  -52.5028 C.ar      23 UNK        -0.0193 
     12 C12        -0.8426  -17.0227  -51.9850 C.ar      23 UNK        -0.1150 
     13 C13        -0.5580  -16.9767  -50.6187 C.ar      23 UNK        -0.0193 
     14 C14        -1.3749  -16.2239  -49.7727 C.ar      23 UNK        -0.1150 
     15 C15         0.6200  -17.7524  -50.0495 C.3       23 UNK        -0.0205 
     16 S16         0.2276  -19.5186  -49.8370 S.3       23 UNK        -0.2404 
     17 C17        -1.2319  -19.4556  -48.7450 C.3       23 UNK        -0.0398 
     18 CA         -1.4638  -20.7871  -47.9946 C.3       11 UNK         0.1400 
     19 N          -0.4244  -21.0653  -46.9981 N.am      11 UNK        -0.5000 
     20 C          -0.3186  -22.2100  -46.3076 C.2       10 UNK         0.5000 
     21 O          -1.0570  -23.1806  -46.4749 O.2       10 UNK        -0.5000 
     22 CA          0.7482  -22.2601  -45.1994 C.3       10 UNK         0.1400 
     23 CB          2.1421  -22.5301  -45.7851 C.3       10 UNK        -0.1800 
     24 N           0.7694  -21.0417  -44.3873 N.am      10 UNK        -0.5000 
     25 C          -0.2499  -20.6276  -43.6199 C.2       9 UNK         0.5000 
     26 O          -1.2968  -21.2580  -43.4811 O.2       9 UNK        -0.5000 
     27 CA         -0.1032  -19.2581  -42.9343 C.3       9 UNK         0.1400 
     28 CB          0.7416  -19.3627  -41.6568 C.3       9 UNK        -0.1800 
     29 N           0.4774  -18.2580  -43.8264 N.am      9 UNK        -0.5000 
     30 C          -0.1208  -17.7742  -44.9213 C.2       8 UNK         0.5000 
     31 O          -1.2814  -18.0324  -45.2402 O.2       8 UNK        -0.5000 
     32 CA          0.7186  -16.8543  -45.8221 C.3       8 UNK         0.1400 
     33 CB          0.6122  -15.3927  -45.3642 C.3       8 UNK        -0.1800 
     34 N           2.1243  -17.2574  -45.8822 N.am      8 UNK        -0.5000 
     35 C           2.5549  -18.3953  -46.4452 C.2       7 UNK         0.5000 
     36 O           1.8079  -19.2136  -46.9765 O.2       7 UNK        -0.5000 
     37 CA          4.0626  -18.6881  -46.3561 C.3       7 UNK         0.1400 
     38 CB          4.8361  -17.8751  -47.4048 C.3       7 UNK        -0.1800 
     39 N           4.6024  -18.4142  -45.0236 N.am      7 UNK        -0.5000 
     40 C           4.2829  -19.1111  -43.9233 C.2       6 UNK         0.5000 
     41 O           3.5377  -20.0904  -43.9277 O.2       6 UNK        -0.5000 
     42 CA          4.8449  -18.5915  -42.5847 C.3       6 UNK         0.1400 
     43 CB          6.2514  -19.1552  -42.3342 C.3       6 UNK        -0.1800 
     44 N           4.8816  -17.1272  -42.4877 N.am      6 UNK        -0.5000 
     45 C           3.8113  -16.3311  -42.6102 C.2       5 UNK         0.5000 
     46 O           2.6776  -16.7536  -42.8482 O.2       5 UNK        -0.5000 
     47 CA          4.0602  -14.8146  -42.5122 C.3       5 UNK         0.1400 
     48 CB          4.7869  -14.3083  -43.7695 C.3       5 UNK        -0.1800 
     49 N           2.8008  -14.0838  -42.3916 N.am      5 UNK        -0.5000 
     50 C           2.0368  -14.0164  -41.2939 C.2       4 UNK         0.5000 
     51 O           2.3857  -14.4563  -40.1970 O.2       4 UNK        -0.5000 
     52 CA          0.6336  -13.3869  -41.4592 C.3       4 UNK         0.1400 
     53 CB          0.2335  -12.5067  -40.2574 C.3       4 UNK        -0.1800 
     54 N           0.4323  -12.6757  -42.7321 N.am      4 UNK        -0.5000 
     55 C           1.0395  -11.5536  -43.1491 C.2       3 UNK         0.5000 
     56 O           1.8639  -10.9277  -42.4829 O.2       3 UNK        -0.5000 
     57 CA          0.7047  -11.0690  -44.5734 C.3       3 UNK         0.1400 
     58 CB          1.8489  -11.4275  -45.5356 C.3       3 UNK        -0.1800 
     59 N          -0.5516  -11.5992  -45.1169 N.am      3 UNK        -0.5000 
     60 C          -1.7686  -11.1786  -44.7415 C.2       2 UNK         0.5000 
     61 O          -1.9672  -10.3923  -43.8154 O.2       2 UNK        -0.5000 
     62 CA         -2.9577  -11.7301  -45.5378 C.3       2 UNK         0.1400 
     63 CB         -2.9262  -11.2490  -47.0024 C.3       2 UNK        -0.1800 
     64 N          -2.9952  -13.1904  -45.4722 N.am      2 UNK        -0.5000 
     65 C          -4.0958  -13.9228  -45.6924 C.2       1 UNK         0.5000 
     66 O          -5.1916  -13.4360  -45.9766 O.2       1 UNK        -0.5000 
     67 C          -2.8784  -20.8236  -47.3801 C.2       11 UNK         0.5000 
     68 O          -3.7779  -21.4007  -47.9883 O.2       11 UNK        -0.5000 
     69 N          -3.0516  -20.2506  -46.1794 N.am      12 UNK        -0.5000 
     70 CA         -4.3118  -20.2905  -45.4330 C.3       12 UNK         0.1400 
     71 CB         -4.2439  -19.3273  -44.2403 C.3       12 UNK        -0.1800 
     72 C          -4.6958  -21.7059  -44.9641 C.2       12 UNK         0.5000 
     73 O          -5.8741  -22.0583  -45.0166 O.2       12 UNK        -0.5000 
     74 N          -3.7022  -22.4888  -44.5225 N.am      13 UNK        -0.5000 
     75 CA         -3.8696  -23.8744  -44.0856 C.3       13 UNK         0.1400 
     76 CB         -2.5951  -24.3470  -43.3691 C.3       13 UNK        -0.1800 
     77 C          -4.2324  -24.8224  -45.2427 C.2       13 UNK         0.5000 
     78 O          -5.1256  -25.6556  -45.0838 O.2       13 UNK        -0.5000 
     79 N          -3.5413  -24.6777  -46.3818 N.am      14 UNK        -0.5000 
     80 CA         -3.7896  -25.4517  -47.5987 C.3       14 UNK         0.1400 
     81 CB         -2.5808  -25.3268  -48.5350 C.3       14 UNK        -0.1800 
     82 C          -5.0940  -25.0408  -48.3076 C.2       14 UNK         0.5000 
     83 O          -5.8096  -25.9114  -48.8050 O.2       14 UNK        -0.5000 
     84 N          -5.3945  -23.7342  -48.3124 N.am      15 UNK        -0.5000 
     85 CA         -6.5998  -23.0984  -48.8447 C.3       15 UNK         0.1400 
     86 CB         -7.8128  -23.4168  -47.9416 C.3       15 UNK        -0.1800 
     87 C          -6.8244  -23.4288  -50.3345 C.2       15 UNK         0.5000 
     88 O          -6.1191  -22.8927  -51.1889 O.2       15 UNK        -0.5000 
     89 N          -7.8008  -24.2976  -50.6218 N.am      16 UNK        -0.5000 
     90 CA         -8.1499  -24.7447  -51.9683 C.3       16 UNK         0.1400 
     91 CB         -9.5909  -25.2787  -51.9480 C.3       16 UNK        -0.1800 
     92 C          -7.1908  -25.8109  -52.5336 C.2       16 UNK         0.5000 
     93 O          -7.1925  -26.0217  -53.7474 O.2       16 UNK        -0.5000 
     94 N          -6.4154  -26.4856  -51.6700 N.am      17 UNK        -0.5000 
     95 CA         -5.5256  -27.5811  -52.0632 C.3       17 UNK         0.1400 
     96 CB         -5.1062  -28.3840  -50.8218 C.3       17 UNK        -0.1800 
     97 C          -4.2851  -27.1038  -52.8380 C.2       17 UNK         0.5000 
     98 O          -3.8728  -27.7730  -53.7865 O.2       17 UNK        -0.5000 
     99 N          -3.7189  -25.9640  -52.4259 N.am      18 UNK        -0.5000 
    100 CA        -2.5179  -25.3508  -52.9847 C.3       18 UNK         0.1400 
    101 CB        -1.2789  -26.2273  -52.7013 C.3       18 UNK        -0.1800 
    102 C         -2.3285  -23.9630  -52.3584 C.2       18 UNK         0.5000 
    103 O         -2.8906  -23.6861  -51.2977 O.2       18 UNK        -0.5000 
    104 N         -1.4986  -23.1397  -53.0020 N.am      19 UNK        -0.5000 
    105 CA        -1.0147  -21.8590  -52.5037 C.3       19 UNK         0.1400 
    106 CB        -2.0909  -20.7728  -52.6515 C.3       19 UNK        -0.1800 
    107 C          0.2541  -21.5136  -53.2929 C.2       19 UNK         0.5000 
    108 O          0.3211  -21.8030  -54.4907 O.2       19 UNK        -0.5000 
    109 N          1.2365  -20.9069  -52.6193 N.am      20 UNK        -0.5000 
    110 CA         2.5955  -20.6874  -53.1247 C.3       20 UNK         0.1400 
    111 CB         3.4705  -20.1651  -51.9740 C.3       20 UNK        -0.1800 
    112 C          2.6997  -19.7503  -54.3440 C.2       20 UNK         0.5000 
    113 O          3.6713  -19.8522  -55.0943 O.2       20 UNK        -0.5000 
    114 N          1.7156  -18.8590  -54.5130 N.am      21 UNK        -0.5000 
    115 CA         1.6767  -17.8501  -55.5739 C.3       21 UNK         0.1400 
    116 CB         1.9022  -16.4652  -54.9398 C.3       21 UNK        -0.1800 
    117 C          0.3739  -17.8898  -56.3962 C.2       21 UNK         0.5000 
    118 O          0.1867  -17.0208  -57.2493 O.2       21 UNK        -0.5000 
    119 N         -0.5117  -18.8619  -56.1388 N.am      22 UNK        -0.5000 
    120 CA        -1.8310  -18.9613  -56.7907 C.3       22 UNK         0.1400 
    121 C         -2.4335  -20.3946  -56.8599 C.2       22 UNK         0.5000 
    122 N         -1.7615  -21.4462  -56.4078 N.am      22 UNK        -0.7600 
    123 O         -3.5330  -20.5713  -57.3776 O.2       22 UNK        -0.5000 
    124 C124       -2.8443  -17.8906  -56.2865 C.3       23 UNK        -0.0398 
    125 S125       -3.1029  -17.9002  -54.4774 S.3       23 UNK        -0.2404 
    126 C126       -2.2305  -16.3794  -53.9961 C.3       23 UNK        -0.0205 
    127 H127       -2.2437  -15.4534  -41.2715 H         1 UNK         0.0600 
    128 H128       -2.7047  -17.0920  -41.7417 H         1 UNK         0.0600 
    129 H129       -1.3663  -16.2752  -42.5610 H         1 UNK         0.0600 
    130 H130       -2.3759  -16.5097  -44.6439 H         1 UNK         0.3000 
    131 H131       -4.9608  -15.8486  -45.3555 H         1 UNK         0.0600 
    132 H132       -3.3837  -17.2042  -46.7113 H         1 UNK         0.0800 
    133 H133       -2.4211  -15.7972  -47.0398 H         1 UNK         0.0800 
    134 H134       -4.0451  -14.0983  -49.9175 H         1 UNK         0.0800 
    135 H135       -2.8079  -14.1172  -48.6948 H         1 UNK         0.0800 
    136 H136       -3.6446  -15.1087  -52.0357 H         1 UNK         0.1150 
    137 H137       -0.2095  -17.5970  -52.6438 H         1 UNK         0.1150 
    138 H138       -1.1374  -16.1757  -48.7227 H         1 UNK         0.1150 
    139 H139        1.4766  -17.6545  -50.7169 H         1 UNK         0.0800 
    140 H140        0.9345  -17.3352  -49.0927 H         1 UNK         0.0800 
    141 H141       -1.1205  -18.6362  -48.0339 H         1 UNK         0.0800 
    142 H142       -2.0913  -19.2085  -49.3721 H         1 UNK         0.0800 
    143 H143       -1.4262  -21.5950  -48.7293 H         1 UNK         0.0600 
    144 H144        0.2737  -20.3396  -46.8547 H         1 UNK         0.3000 
    145 H145        0.4972  -23.0920  -44.5382 H         1 UNK         0.0600 
    146 H146        2.8858  -22.6404  -44.9958 H         1 UNK         0.0600 
    147 H147        2.1473  -23.4517  -46.3682 H         1 UNK         0.0600 
    148 H148        2.4698  -21.7252  -46.4424 H         1 UNK         0.0600 
    149 H149        1.6218  -20.4918  -44.4145 H         1 UNK         0.3000 
    150 H150       -1.1019  -18.9199  -42.6518 H         1 UNK         0.0600 
    151 H151        0.3015  -20.0727  -40.9556 H         1 UNK         0.0600 
    152 H152        0.8077  -18.3999  -41.1495 H         1 UNK         0.0600 
    153 H153        1.7566  -19.6974  -41.8703 H         1 UNK         0.0600 
    154 H154        1.4043  -17.9135  -43.5884 H         1 UNK         0.3000 
    155 H155        0.3060  -16.9217  -46.8296 H         1 UNK         0.0600 
    156 H156        1.1729  -14.7354  -46.0282 H         1 UNK         0.0600 
    157 H157        0.9934  -15.2585  -44.3524 H         1 UNK         0.0600 
    158 H158       -0.4237  -15.0557  -45.3737 H         1 UNK         0.0600 
    159 H159        2.7897  -16.6693  -45.4044 H         1 UNK         0.3000 
    160 H160        4.2090  -19.7486  -46.5721 H         1 UNK         0.0600 
    161 H161        4.7554  -16.8020  -47.2270 H         1 UNK         0.0600 
    162 H162        4.4551  -18.0715  -48.4081 H         1 UNK         0.0600 
    163 H163        5.8944  -18.1368  -47.4035 H         1 UNK         0.0600 
    164 H164        5.2230  -17.6240  -44.9311 H         1 UNK         0.3000 
    165 H165        4.1875  -18.9554  -41.7925 H         1 UNK         0.0600 
    166 H166        6.9680  -18.7955  -43.0736 H         1 UNK         0.0600 
    167 H167        6.6184  -18.8761  -41.3464 H         1 UNK         0.0600 
    168 H168        6.2493  -20.2451  -42.3820 H         1 UNK         0.0600 
    169 H169        5.7836  -16.7118  -42.3045 H         1 UNK         0.3000 
    170 H170        4.6762  -14.6151  -41.6330 H         1 UNK         0.0600 
    171 H171        5.7617  -14.7839  -43.8834 H         1 UNK         0.0600 
    172 H172        4.2147  -14.5096  -44.6762 H         1 UNK         0.0600 
    173 H173        4.9596  -13.2330  -43.7167 H         1 UNK         0.0600 
    174 H174        2.4224  -13.7047  -43.2444 H         1 UNK         0.3000 
    175 H175       -0.0568  -14.2303  -41.4827 H         1 UNK         0.0600 
    176 H176       -0.7631  -12.0860  -40.3918 H         1 UNK         0.0600 
    177 H177        0.2167  -13.0880  -39.3349 H         1 UNK         0.0600 
    178 H178        0.9297  -11.6813  -40.1076 H         1 UNK         0.0600 
    179 H179       -0.2322  -13.0948  -43.3637 H         1 UNK         0.3000 
    180 H180        0.6275   -9.9801  -44.5334 H         1 UNK         0.0600 
    181 H181        1.6648  -11.0297  -46.5338 H         1 UNK         0.0600 
    182 H182        2.7954  -11.0076  -45.1920 H         1 UNK         0.0600 
    183 H183        1.9836  -12.5055  -45.6226 H         1 UNK         0.0600 
    184 H184       -0.4705  -12.2088  -45.9170 H         1 UNK         0.3000 
    185 H185       -3.8617  -11.3359  -45.0677 H         1 UNK         0.0600 
    186 H186       -3.8427  -11.5182  -47.5276 H         1 UNK         0.0600 
    187 H187       -2.8327  -10.1636  -47.0558 H         1 UNK         0.0600 
    188 H188       -2.0903  -11.6798  -47.5544 H         1 UNK         0.0600 
    189 H189       -2.1537  -13.6549  -45.1696 H         1 UNK         0.3000 
    190 H190       -2.2774  -19.7610  -45.7445 H         1 UNK         0.3000 
    191 H191       -5.1047  -19.9417  -46.0982 H         1 UNK         0.0600 
    192 H192       -5.1556  -19.3745  -43.6434 H         1 UNK         0.0600 
    193 H193       -4.1385  -18.3015  -44.5820 H         1 UNK         0.0600 
    194 H194       -3.4061  -19.5522  -43.5808 H         1 UNK         0.0600 
    195 H195       -2.7695  -22.0946  -44.4399 H         1 UNK         0.3000 
    196 H196       -4.6893  -23.9017  -43.3647 H         1 UNK         0.0600 
    197 H197       -2.7025  -25.3737  -43.0173 H         1 UNK         0.0600 
    198 H198       -2.3792  -23.7258  -42.4998 H         1 UNK         0.0600 
    199 H199       -1.7263  -24.3137  -44.0268 H         1 UNK         0.0600 
    200 H200       -2.7827  -24.0011  -46.4162 H         1 UNK         0.3000 
    201 H201       -3.8870  -26.5034  -47.3213 H         1 UNK         0.0600 
    202 H202       -1.6826  -25.7382  -48.0745 H         1 UNK         0.0600 
    203 H203       -2.3772  -24.2849  -48.7840 H         1 UNK         0.0600 
    204 H204       -2.7467  -25.8668  -49.4679 H         1 UNK         0.0600 
    205 H205       -4.7006  -23.0795  -47.9625 H         1 UNK         0.3000 
    206 H206       -6.4272  -22.0224  -48.7932 H         1 UNK         0.0600 
    207 H207       -7.6457  -23.0501  -46.9289 H         1 UNK         0.0600 
    208 H208       -8.7174  -22.9324  -48.3113 H         1 UNK         0.0600 
    209 H209       -8.0102  -24.4868  -47.8707 H         1 UNK         0.0600 
    210 H210       -8.3133  -24.7137  -49.8577 H         1 UNK         0.3000 
    211 H211       -8.1169  -23.8854  -52.6417 H         1 UNK         0.0600 
    212 H212       -9.6916  -26.1398  -51.2860 H         1 UNK         0.0600 
    213 H213       -9.9068  -25.5919  -52.9440 H         1 UNK         0.0600 
    214 H214      -10.2911  -24.5131  -51.6132 H         1 UNK         0.0600 
    215 H215       -6.4361  -26.2443  -50.6835 H         1 UNK         0.3000 
    216 H216       -6.0872  -28.2521  -52.7169 H         1 UNK         0.0600 
    217 H217       -4.5298  -29.2650  -51.1068 H         1 UNK         0.0600 
    218 H218       -5.9745  -28.7301  -50.2610 H         1 UNK         0.0600 
    219 H219       -4.4842  -27.7936  -50.1486 H         1 UNK         0.0600 
    220 H220       -4.1340  -25.4383  -51.6658 H         1 UNK         0.3000 
    221 H221       -2.6519  -25.2320  -54.0617 H         1 UNK         0.0600 
    222 H222       -1.1511  -26.4026  -51.6323 H         1 UNK         0.0600 
    223 H223       -1.3466  -27.1974  -53.1926 H         1 UNK         0.0600 
    224 H224       -0.3670  -25.7532  -53.0662 H         1 UNK         0.0600 
    225 H225       -1.0573  -23.4346  -53.8641 H         1 UNK         0.3000 
    226 H226       -0.7529  -21.9680  -51.4491 H         1 UNK         0.0600 
    227 H227       -1.7095  -19.7966  -52.3524 H         1 UNK         0.0600 
    228 H228       -2.4385  -20.6948  -53.6812 H         1 UNK         0.0600 
    229 H229       -2.9566  -20.9846  -52.0239 H         1 UNK         0.0600 
    230 H230        1.0798  -20.6606  -51.6497 H         1 UNK         0.3000 
    231 H231        2.9883  -21.6582  -53.4342 H         1 UNK         0.0600 
    232 H232        4.5063  -20.0430  -52.2937 H         1 UNK         0.0600 
    233 H233        3.4717  -20.8568  -51.1313 H         1 UNK         0.0600 
    234 H234        3.1236  -19.1970  -51.6125 H         1 UNK         0.0600 
    235 H235        0.9634  -18.8486  -53.8417 H         1 UNK         0.3000 
    236 H236        2.4803  -18.0220  -56.2925 H         1 UNK         0.0600 
    237 H237        1.1224  -16.2159  -54.2207 H         1 UNK         0.0600 
    238 H238        2.8593  -16.4246  -54.4194 H         1 UNK         0.0600 
    239 H239        1.9153  -15.6797  -55.6964 H         1 UNK         0.0600 
    240 H240       -0.2894  -19.5746  -55.4611 H         1 UNK         0.3000 
    241 H241       -1.6604  -18.7392  -57.8460 H         1 UNK         0.0600 
    242 H242       -2.1907  -22.3516  -56.5065 H         1 UNK         0.3800 
    243 H243       -0.8563  -21.3868  -55.9568 H         1 UNK         0.3800 
    244 H244       -3.8141  -18.0159  -56.7704 H         1 UNK         0.0800 
    245 H245       -2.5080  -16.8997  -56.5931 H         1 UNK         0.0800 
    246 H246       -1.2895  -16.3036  -54.5401 H         1 UNK         0.0800 
    247 H247       -2.8254  -15.5149  -54.2946 H         1 UNK         0.0800 
@<TRIPOS>BOND
     1    1    2 1    
     2    1  127 1    
     3    1  128 1    
     4    1  129 1    
     5    2    3 2    
     6    2    4 am   BACKBONE|DICT|INTERRES
     7    4    5 1    
     8    4  130 1    
     9    5    6 1    
    10    5   65 1    
    11    5  131 1    
    12    6    7 1    
    13    6  132 1    
    14    6  133 1    
    15    7    8 1    
    16    8    9 1    
    17    8  134 1    
    18    8  135 1    
    19    9   10 ar   
    20    9   14 ar   
    21   10   11 ar   
    22   10  136 1    
    23   11   12 ar   
    24   11  126 1    
    25   12   13 ar   
    26   12  137 1    
    27   13   14 ar   
    28   13   15 1    
    29   14  138 1    
    30   15   16 1    
    31   15  139 1    
    32   15  140 1    
    33   16   17 1    
    34   17   18 1    
    35   17  141 1    
    36   17  142 1    
    37   18   19 1    
    38   18   67 1    
    39   18  143 1    
    40   19   20 am   BACKBONE|DICT|INTERRES
    41   19  144 1    
    42   20   21 2    
    43   20   22 1    
    44   22   23 1    
    45   22   24 1    
    46   22  145 1    
    47   23  146 1    
    48   23  147 1    
    49   23  148 1    
    50   24   25 am   BACKBONE|DICT|INTERRES
    51   24  149 1    
    52   25   26 2    
    53   25   27 1    
    54   27   28 1    
    55   27   29 1    
    56   27  150 1    
    57   28  151 1    
    58   28  152 1    
    59   28  153 1    
    60   29   30 am   BACKBONE|DICT|INTERRES
    61   29  154 1    
    62   30   31 2    
    63   30   32 1    
    64   32   33 1    
    65   32   34 1    
    66   32  155 1    
    67   33  156 1    
    68   33  157 1    
    69   33  158 1    
    70   34   35 am   BACKBONE|DICT|INTERRES
    71   34  159 1    
    72   35   36 2    
    73   35   37 1    
    74   37   38 1    
    75   37   39 1    
    76   37  160 1    
    77   38  161 1    
    78   38  162 1    
    79   38  163 1    
    80   39   40 am   BACKBONE|DICT|INTERRES
    81   39  164 1    
    82   40   41 2    
    83   40   42 1    
    84   42   43 1    
    85   42   44 1    
    86   42  165 1    
    87   43  166 1    
    88   43  167 1    
    89   43  168 1    
    90   44   45 am   BACKBONE|DICT|INTERRES
    91   44  169 1    
    92   45   46 2    
    93   45   47 1    
    94   47   48 1    
    95   47   49 1    
    96   47  170 1    
    97   48  171 1    
    98   48  172 1    
    99   48  173 1    
   100   49   50 am   BACKBONE|DICT|INTERRES
   101   49  174 1    
   102   50   51 2    
   103   50   52 1    
   104   52   53 1    
   105   52   54 1    
   106   52  175 1    
   107   53  176 1    
   108   53  177 1    
   109   53  178 1    
   110   54   55 am   BACKBONE|DICT|INTERRES
   111   54  179 1    
   112   55   56 2    
   113   55   57 1    
   114   57   58 1    
   115   57   59 1    
   116   57  180 1    
   117   58  181 1    
   118   58  182 1    
   119   58  183 1    
   120   59   60 am   BACKBONE|DICT|INTERRES
   121   59  184 1    
   122   60   61 2    
   123   60   62 1    
   124   62   63 1    
   125   62   64 1    
   126   62  185 1    
   127   63  186 1    
   128   63  187 1    
   129   63  188 1    
   130   64   65 am   BACKBONE|DICT|INTERRES
   131   64  189 1    
   132   65   66 2    
   133   67   68 2    
   134   67   69 am   BACKBONE|DICT|INTERRES
   135   69   70 1    
   136   69  190 1    
   137   70   71 1    
   138   70   72 1    
   139   70  191 1    
   140   71  192 1    
   141   71  193 1    
   142   71  194 1    
   143   72   73 2    
   144   72   74 am   BACKBONE|DICT|INTERRES
   145   74   75 1    
   146   74  195 1    
   147   75   76 1    
   148   75   77 1    
   149   75  196 1    
   150   76  197 1    
   151   76  198 1    
   152   76  199 1    
   153   77   78 2    
   154   77   79 am   BACKBONE|DICT|INTERRES
   155   79   80 1    
   156   79  200 1    
   157   80   81 1    
   158   80   82 1    
   159   80  201 1    
   160   81  202 1    
   161   81  203 1    
   162   81  204 1    
   163   82   83 2    
   164   82   84 am   BACKBONE|DICT|INTERRES
   165   84   85 1    
   166   84  205 1    
   167   85   86 1    
   168   85   87 1    
   169   85  206 1    
   170   86  207 1    
   171   86  208 1    
   172   86  209 1    
   173   87   88 2    
   174   87   89 am   BACKBONE|DICT|INTERRES
   175   89   90 1    
   176   89  210 1    
   177   90   91 1    
   178   90   92 1    
   179   90  211 1    
   180   91  212 1    
   181   91  213 1    
   182   91  214 1    
   183   92   93 2    
   184   92   94 am   BACKBONE|DICT|INTERRES
   185   94   95 1    
   186   94  215 1    
   187   95   96 1    
   188   95   97 1    
   189   95  216 1    
   190   96  217 1    
   191   96  218 1    
   192   96  219 1    
   193   97   98 2    
   194   97   99 am   BACKBONE|DICT|INTERRES
   195   99  100 1    
   196   99  220 1    
   197  100  101 1    
   198  100  102 1    
   199  100  221 1    
   200  101  222 1    
   201  101  223 1    
   202  101  224 1    
   203  102  103 2    
   204  102  104 am   BACKBONE|DICT|INTERRES
   205  104  105 1    
   206  104  225 1    
   207  105  106 1    
   208  105  107 1    
   209  105  226 1    
   210  106  227 1    
   211  106  228 1    
   212  106  229 1    
   213  107  108 2    
   214  107  109 am   BACKBONE|DICT|INTERRES
   215  109  110 1    
   216  109  230 1    
   217  110  111 1    
   218  110  112 1    
   219  110  231 1    
   220  111  232 1    
   221  111  233 1    
   222  111  234 1    
   223  112  113 2    
   224  112  114 am   BACKBONE|DICT|INTERRES
   225  114  115 1    
   226  114  235 1    
   227  115  116 1    
   228  115  117 1    
   229  115  236 1    
   230  116  237 1    
   231  116  238 1    
   232  116  239 1    
   233  117  118 2    
   234  117  119 am   BACKBONE|DICT|INTERRES
   235  119  120 1    
   236  119  240 1    
   237  120  121 1    
   238  120  124 1    
   239  120  241 1    
   240  121  122 am   BACKBONE|DICT|INTERRES
   241  121  123 2    
   242  122  242 1    
   243  122  243 1    
   244  124  125 1    
   245  124  244 1    
   246  124  245 1    
   247  125  126 1    
   248  126  246 1    
   249  126  247 1    
@<TRIPOS>SUBSTRUCTURE
     1 UNK         1 GROUP             0       ****    0 ROOT    
