@<TRIPOS>MOLECULE
3R540
247   249    1
SMALL
USER_CHARGES


@<TRIPOS>ATOM
      1 CA          4.6618  -13.2363  -47.0869 C.3       0 UNK        -0.1800 
      2 C           3.5432  -12.2095  -46.9822 C.2       0 UNK         0.5000 
      3 O           3.6975  -11.0913  -47.4727 O.2       0 UNK        -0.5000 
      4 N           2.4249  -12.5932  -46.3497 N.am      1 UNK        -0.5000 
      5 CA          1.2095  -11.7901  -46.1347 C.3       1 UNK         0.1400 
      6 C6          0.3926  -11.5639  -47.4364 C.3       23 UNK        -0.0398 
      7 S7         -0.2778  -13.1245  -48.1000 S.3       23 UNK        -0.2404 
      8 C8          0.8833  -13.4680  -49.4543 C.3       23 UNK        -0.0205 
      9 C9          0.6700  -14.8619  -50.0203 C.ar      23 UNK        -0.0193 
     10 C10        -0.2155  -15.0662  -51.0808 C.ar      23 UNK        -0.1150 
     11 C11        -0.4096  -16.3456  -51.6138 C.ar      23 UNK        -0.0193 
     12 C12         0.3080  -17.4234  -51.0817 C.ar      23 UNK        -0.1150 
     13 C13         1.2114  -17.2278  -50.0308 C.ar      23 UNK        -0.0193 
     14 C14         1.3793  -15.9466  -49.4995 C.ar      23 UNK        -0.1150 
     15 C15         2.0500  -18.3816  -49.4986 C.3       23 UNK        -0.0205 
     16 S16         1.3355  -19.1271  -48.0014 S.3       23 UNK        -0.2404 
     17 C17        -0.0366  -20.0871  -48.7177 C.3       23 UNK        -0.0398 
     18 CA         -0.5736  -21.1696  -47.7531 C.3       11 UNK         0.1400 
     19 N          -1.1494  -20.6041  -46.5306 N.am      11 UNK        -0.5000 
     20 C          -1.5827  -21.3147  -45.4803 C.2       10 UNK         0.5000 
     21 O          -1.4946  -22.5389  -45.3953 O.2       10 UNK        -0.5000 
     22 CA         -2.2871  -20.5309  -44.3613 C.3       10 UNK         0.1400 
     23 CB         -1.2692  -19.8897  -43.4045 C.3       10 UNK        -0.1800 
     24 N          -3.1808  -19.5072  -44.9031 N.am      10 UNK        -0.5000 
     25 C          -4.3372  -19.7708  -45.5279 C.2       9 UNK         0.5000 
     26 O          -4.7875  -20.9058  -45.6791 O.2       9 UNK        -0.5000 
     27 CA         -5.1062  -18.5698  -46.1089 C.3       9 UNK         0.1400 
     28 CB         -5.9901  -17.9224  -45.0326 C.3       9 UNK        -0.1800 
     29 N          -4.2283  -17.5534  -46.6893 N.am      9 UNK        -0.5000 
     30 C          -3.4715  -17.7418  -47.7794 C.2       8 UNK         0.5000 
     31 O          -3.4397  -18.7939  -48.4159 O.2       8 UNK        -0.5000 
     32 CA         -2.5567  -16.5720  -48.1890 C.3       8 UNK         0.1400 
     33 CB         -3.3657  -15.5077  -48.9442 C.3       8 UNK        -0.1800 
     34 N          -1.8546  -15.9312  -47.0709 N.am      8 UNK        -0.5000 
     35 C          -1.1207  -16.5634  -46.1473 C.2       7 UNK         0.5000 
     36 O          -1.0303  -17.7890  -46.0675 O.2       7 UNK        -0.5000 
     37 CA         -0.4128  -15.6917  -45.0990 C.3       7 UNK         0.1400 
     38 CB         -1.3243  -15.4686  -43.8835 C.3       7 UNK        -0.1800 
     39 N           0.8008  -16.3706  -44.6584 N.am      7 UNK        -0.5000 
     40 C           1.9782  -16.2949  -45.2828 C.2       6 UNK         0.5000 
     41 O           2.2417  -15.4405  -46.1289 O.2       6 UNK        -0.5000 
     42 CA          3.0390  -17.3322  -44.8634 C.3       6 UNK         0.1400 
     43 CB          4.2435  -17.3629  -45.8213 C.3       6 UNK        -0.1800 
     44 N           3.5250  -17.0813  -43.5090 N.am      6 UNK        -0.5000 
     45 C           2.8576  -17.3283  -42.3738 C.2       5 UNK         0.5000 
     46 O           1.7589  -17.8848  -42.3378 O.2       5 UNK        -0.5000 
     47 CA          3.5227  -16.8731  -41.0582 C.3       5 UNK         0.1400 
     48 CB          4.1186  -18.0781  -40.3138 C.3       5 UNK        -0.1800 
     49 N           4.5719  -15.8636  -41.2434 N.am      5 UNK        -0.5000 
     50 C           4.3548  -14.5959  -41.6176 C.2       4 UNK         0.5000 
     51 O           3.2384  -14.1348  -41.8648 O.2       4 UNK        -0.5000 
     52 CA          5.6076  -13.7187  -41.8014 C.3       4 UNK         0.1400 
     53 CB          6.1178  -13.8245  -43.2480 C.3       4 UNK        -0.1800 
     54 N           5.3413  -12.3130  -41.5022 N.am      4 UNK        -0.5000 
     55 C           5.0513  -11.8184  -40.2903 C.2       3 UNK         0.5000 
     56 O           5.0721  -12.4876  -39.2561 O.2       3 UNK        -0.5000 
     57 CA          4.6825  -10.3215  -40.2183 C.3       3 UNK         0.1400 
     58 CB          5.8843   -9.4938  -39.7366 C.3       3 UNK        -0.1800 
     59 N           4.2164   -9.7798  -41.4989 N.am      3 UNK        -0.5000 
     60 C           3.0287  -10.0534  -42.0558 C.2       2 UNK         0.5000 
     61 O           2.1662  -10.7433  -41.5096 O.2       2 UNK        -0.5000 
     62 CA          2.7553   -9.4887  -43.4600 C.3       2 UNK         0.1400 
     63 CB          3.9572   -8.7693  -44.1115 C.3       2 UNK        -0.1800 
     64 N           2.3167  -10.5886  -44.3125 N.am      2 UNK        -0.5000 
     65 C           1.5018  -10.4782  -45.3673 C.2       1 UNK         0.5000 
     66 O           1.0086   -9.4102  -45.7367 O.2       1 UNK        -0.5000 
     67 C          -1.5787  -22.0886  -48.4745 C.2       11 UNK         0.5000 
     68 O          -1.2242  -23.2153  -48.8217 O.2       11 UNK        -0.5000 
     69 N          -2.8215  -21.6129  -48.6429 N.am      12 UNK        -0.5000 
     70 CA         -3.9272  -22.3727  -49.2248 C.3       12 UNK         0.1400 
     71 CB         -5.1534  -21.4633  -49.3831 C.3       12 UNK        -0.1800 
     72 C          -4.2823  -23.6242  -48.4042 C.2       12 UNK         0.5000 
     73 O          -4.4786  -24.6878  -48.9896 O.2       12 UNK        -0.5000 
     74 N          -4.3249  -23.4906  -47.0700 N.am      13 UNK        -0.5000 
     75 CA         -4.5708  -24.5909  -46.1365 C.3       13 UNK         0.1400 
     76 CB         -4.7587  -24.0422  -44.7145 C.3       13 UNK        -0.1800 
     77 C          -3.4646  -25.6602  -46.1694 C.2       13 UNK         0.5000 
     78 O          -3.7791  -26.8493  -46.2210 O.2       13 UNK        -0.5000 
     79 N          -2.1957  -25.2264  -46.1887 N.am      14 UNK        -0.5000 
     80 CA         -1.0191  -26.0934  -46.3071 C.3       14 UNK         0.1400 
     81 CB          0.2548  -25.2572  -46.1137 C.3       14 UNK        -0.1800 
     82 C          -0.9690  -26.8598  -47.6429 C.2       14 UNK         0.5000 
     83 O          -0.5628  -28.0219  -47.6665 O.2       14 UNK        -0.5000 
     84 N          -1.4240  -26.2073  -48.7191 N.am      15 UNK        -0.5000 
     85 CA         -1.5828  -26.7806  -50.0552 C.3       15 UNK         0.1400 
     86 CB         -1.5088  -25.6372  -51.0768 C.3       15 UNK        -0.1800 
     87 C          -2.8876  -27.5883  -50.2318 C.2       15 UNK         0.5000 
     88 O          -3.1345  -28.0853  -51.3313 O.2       15 UNK        -0.5000 
     89 N          -3.7168  -27.6845  -49.1796 N.am      16 UNK        -0.5000 
     90 CA         -5.0152  -28.3700  -49.1230 C.3       16 UNK         0.1400 
     91 CB         -4.8157  -29.8978  -49.1941 C.3       16 UNK        -0.1800 
     92 C          -6.0328  -27.8508  -50.1642 C.2       16 UNK         0.5000 
     93 O          -6.8538  -28.6209  -50.6649 O.2       16 UNK        -0.5000 
     94 N          -5.9313  -26.5538  -50.4896 N.am      17 UNK        -0.5000 
     95 CA         -6.6786  -25.8032  -51.5033 C.3       17 UNK         0.1400 
     96 CB         -8.1741  -25.7258  -51.1357 C.3       17 UNK        -0.1800 
     97 C          -6.4539  -26.2751  -52.9585 C.2       17 UNK         0.5000 
     98 O          -7.1633  -25.8128  -53.8534 O.2       17 UNK        -0.5000 
     99 N          -5.4663  -27.1527  -53.1939 N.am      18 UNK        -0.5000 
    100 CA        -5.0830  -27.6290  -54.5268 C.3       18 UNK         0.1400 
    101 CB        -4.3588  -28.9771  -54.3904 C.3       18 UNK        -0.1800 
    102 C         -4.2016  -26.6141  -55.2812 C.2       18 UNK         0.5000 
    103 O         -4.0875  -26.6941  -56.5049 O.2       18 UNK        -0.5000 
    104 N         -3.6053  -25.6780  -54.5384 N.am      19 UNK        -0.5000 
    105 CA        -2.7963  -24.5636  -55.0071 C.3       19 UNK         0.1400 
    106 CB        -1.3527  -25.0375  -55.2599 C.3       19 UNK        -0.1800 
    107 C         -2.8558  -23.4609  -53.9384 C.2       19 UNK         0.5000 
    108 O         -3.4306  -23.6762  -52.8679 O.2       19 UNK        -0.5000 
    109 N         -2.2676  -22.2984  -54.2518 N.am      20 UNK        -0.5000 
    110 CA        -2.0676  -21.1353  -53.3729 C.3       20 UNK         0.1400 
    111 CB        -1.1203  -21.4939  -52.2108 C.3       20 UNK        -0.1800 
    112 C         -3.3548  -20.4448  -52.8693 C.2       20 UNK         0.5000 
    113 O         -3.2699  -19.5468  -52.0318 O.2       20 UNK        -0.5000 
    114 N         -4.5190  -20.8254  -53.4102 N.am      21 UNK        -0.5000 
    115 CA        -5.8364  -20.2722  -53.0960 C.3       21 UNK         0.1400 
    116 CB        -6.9030  -21.3339  -53.4200 C.3       21 UNK        -0.1800 
    117 C         -6.0730  -18.9316  -53.8226 C.2       21 UNK         0.5000 
    118 O         -7.0153  -18.8020  -54.6060 O.2       21 UNK        -0.5000 
    119 N         -5.1841  -17.9659  -53.5683 N.am      22 UNK        -0.5000 
    120 CA        -5.1858  -16.6192  -54.1585 C.3       22 UNK         0.1400 
    121 C         -6.2415  -15.6358  -53.5689 C.2       22 UNK         0.5000 
    122 N         -6.9414  -15.9730  -52.4922 N.am      22 UNK        -0.7600 
    123 O         -6.4418  -14.5521  -54.1110 O.2       22 UNK        -0.5000 
    124 C124       -3.7597  -16.0094  -54.1763 C.3       23 UNK        -0.0398 
    125 S125       -3.0020  -15.8465  -52.5205 S.3       23 UNK        -0.2404 
    126 C126       -1.3455  -16.5523  -52.8004 C.3       23 UNK        -0.0205 
    127 H127        5.6250  -12.7692  -46.8814 H         1 UNK         0.0600 
    128 H128        4.5271  -14.0508  -46.3762 H         1 UNK         0.0600 
    129 H129        4.6908  -13.6585  -48.0913 H         1 UNK         0.0600 
    130 H130        2.3543  -13.5682  -46.0657 H         1 UNK         0.3000 
    131 H131        0.5846  -12.3737  -45.4573 H         1 UNK         0.0600 
    132 H132       -0.4652  -10.9173  -47.2448 H         1 UNK         0.0800 
    133 H133        0.9916  -11.0554  -48.1933 H         1 UNK         0.0800 
    134 H134        0.7600  -12.7183  -50.2372 H         1 UNK         0.0800 
    135 H135        1.9079  -13.3739  -49.0953 H         1 UNK         0.0800 
    136 H136       -0.7558  -14.2259  -51.4937 H         1 UNK         0.1150 
    137 H137        0.1818  -18.4112  -51.5008 H         1 UNK         0.1150 
    138 H138        2.0754  -15.7911  -48.6876 H         1 UNK         0.1150 
    139 H139        2.1863  -19.1447  -50.2662 H         1 UNK         0.0800 
    140 H140        3.0504  -18.0178  -49.2594 H         1 UNK         0.0800 
    141 H141        0.3318  -20.5564  -49.6307 H         1 UNK         0.0800 
    142 H142       -0.8291  -19.3987  -49.0159 H         1 UNK         0.0800 
    143 H143        0.2682  -21.7959  -47.4498 H         1 UNK         0.0600 
    144 H144       -1.2106  -19.5888  -46.4867 H         1 UNK         0.3000 
    145 H145       -2.8890  -21.2368  -43.7852 H         1 UNK         0.0600 
    146 H146       -1.7682  -19.3448  -42.6031 H         1 UNK         0.0600 
    147 H147       -0.6438  -20.6520  -42.9384 H         1 UNK         0.0600 
    148 H148       -0.6032  -19.1958  -43.9168 H         1 UNK         0.0600 
    149 H149       -2.8274  -18.5610  -44.9140 H         1 UNK         0.3000 
    150 H150       -5.7557  -18.9461  -46.9022 H         1 UNK         0.0600 
    151 H151       -6.6696  -18.6545  -44.5942 H         1 UNK         0.0600 
    152 H152       -6.6019  -17.1238  -45.4526 H         1 UNK         0.0600 
    153 H153       -5.3951  -17.4998  -44.2220 H         1 UNK         0.0600 
    154 H154       -4.1822  -16.6622  -46.2182 H         1 UNK         0.3000 
    155 H155       -1.7984  -16.9714  -48.8654 H         1 UNK         0.0600 
    156 H156       -2.7102  -14.7715  -49.4094 H         1 UNK         0.0600 
    157 H157       -4.0528  -14.9773  -48.2842 H         1 UNK         0.0600 
    158 H158       -3.9613  -15.9596  -49.7380 H         1 UNK         0.0600 
    159 H159       -1.8547  -14.9210  -47.0767 H         1 UNK         0.3000 
    160 H160       -0.1626  -14.7251  -45.5383 H         1 UNK         0.0600 
    161 H161       -1.6132  -16.4117  -43.4171 H         1 UNK         0.0600 
    162 H162       -2.2390  -14.9482  -44.1699 H         1 UNK         0.0600 
    163 H163       -0.8274  -14.8605  -43.1273 H         1 UNK         0.0600 
    164 H164        0.6900  -17.0848  -43.9481 H         1 UNK         0.3000 
    165 H165        2.5645  -18.3156  -44.8944 H         1 UNK         0.0600 
    166 H166        4.8007  -16.4259  -45.8025 H         1 UNK         0.0600 
    167 H167        4.9318  -18.1673  -45.5619 H         1 UNK         0.0600 
    168 H168        3.9201  -17.5327  -46.8489 H         1 UNK         0.0600 
    169 H169        4.4114  -16.6065  -43.4351 H         1 UNK         0.3000 
    170 H170        2.7396  -16.4388  -40.4332 H         1 UNK         0.0600 
    171 H171        3.3586  -18.8385  -40.1288 H         1 UNK         0.0600 
    172 H172        4.9203  -18.5479  -40.8849 H         1 UNK         0.0600 
    173 H173        4.5227  -17.7836  -39.3450 H         1 UNK         0.0600 
    174 H174        5.5192  -16.1680  -41.0683 H         1 UNK         0.3000 
    175 H175        6.3890  -14.0696  -41.1240 H         1 UNK         0.0600 
    176 H176        7.0216  -13.2322  -43.3926 H         1 UNK         0.0600 
    177 H177        6.3639  -14.8557  -43.5045 H         1 UNK         0.0600 
    178 H178        5.3715  -13.4778  -43.9642 H         1 UNK         0.0600 
    179 H179        5.2843  -11.6887  -42.2914 H         1 UNK         0.3000 
    180 H180        3.8798  -10.2161  -39.4853 H         1 UNK         0.0600 
    181 H181        6.7196   -9.5517  -40.4355 H         1 UNK         0.0600 
    182 H182        6.2410   -9.8493  -38.7689 H         1 UNK         0.0600 
    183 H183        5.6177   -8.4435  -39.6166 H         1 UNK         0.0600 
    184 H184        4.8658   -9.1949  -42.0051 H         1 UNK         0.3000 
    185 H185        1.9396   -8.7713  -43.3487 H         1 UNK         0.0600 
    186 H186        3.6916   -8.3783  -45.0939 H         1 UNK         0.0600 
    187 H187        4.2857   -7.9186  -43.5132 H         1 UNK         0.0600 
    188 H188        4.8069   -9.4398  -44.2471 H         1 UNK         0.0600 
    189 H189        2.6356  -11.5084  -44.0396 H         1 UNK         0.3000 
    190 H190       -3.0255  -20.6526  -48.3762 H         1 UNK         0.3000 
    191 H191       -3.6173  -22.7005  -50.2191 H         1 UNK         0.0600 
    192 H192       -4.9082  -20.5769  -49.9668 H         1 UNK         0.0600 
    193 H193       -5.9617  -21.9836  -49.8985 H         1 UNK         0.0600 
    194 H194       -5.5351  -21.1280  -48.4183 H         1 UNK         0.0600 
    195 H195       -4.2010  -22.5694  -46.6624 H         1 UNK         0.3000 
    196 H196       -5.5035  -25.0740  -46.4353 H         1 UNK         0.0600 
    197 H197       -4.9495  -24.8491  -44.0059 H         1 UNK         0.0600 
    198 H198       -5.6075  -23.3601  -44.6651 H         1 UNK         0.0600 
    199 H199       -3.8760  -23.5037  -44.3695 H         1 UNK         0.0600 
    200 H200       -2.0158  -24.2290  -46.1013 H         1 UNK         0.3000 
    201 H201       -1.0674  -26.8316  -45.5041 H         1 UNK         0.0600 
    202 H202        0.2675  -24.7803  -45.1336 H         1 UNK         0.0600 
    203 H203        0.3394  -24.4734  -46.8673 H         1 UNK         0.0600 
    204 H204        1.1472  -25.8803  -46.1842 H         1 UNK         0.0600 
    205 H205       -1.6840  -25.2313  -48.6183 H         1 UNK         0.3000 
    206 H206       -0.7539  -27.4637  -50.2507 H         1 UNK         0.0600 
    207 H207       -0.5510  -25.1195  -51.0242 H         1 UNK         0.0600 
    208 H208       -1.6251  -26.0043  -52.0966 H         1 UNK         0.0600 
    209 H209       -2.2928  -24.9020  -50.8963 H         1 UNK         0.0600 
    210 H210       -3.4477  -27.2141  -48.3242 H         1 UNK         0.3000 
    211 H211       -5.4394  -28.1364  -48.1457 H         1 UNK         0.0600 
    212 H212       -4.4452  -30.2120  -50.1705 H         1 UNK         0.0600 
    213 H213       -5.7532  -30.4252  -49.0141 H         1 UNK         0.0600 
    214 H214       -4.1050  -30.2370  -48.4405 H         1 UNK         0.0600 
    215 H215       -5.2416  -25.9997  -49.9822 H         1 UNK         0.3000 
    216 H216       -6.2803  -24.7880  -51.4621 H         1 UNK         0.0600 
    217 H217       -8.3106  -25.3646  -50.1164 H         1 UNK         0.0600 
    218 H218       -8.6624  -26.6972  -51.2170 H         1 UNK         0.0600 
    219 H219       -8.7051  -25.0382  -51.7949 H         1 UNK         0.0600 
    220 H220       -4.9063  -27.4868  -52.4174 H         1 UNK         0.3000 
    221 H221       -5.9868  -27.7895  -55.1183 H         1 UNK         0.0600 
    222 H222       -3.4101  -28.8738  -53.8632 H         1 UNK         0.0600 
    223 H223       -4.9678  -29.7007  -53.8481 H         1 UNK         0.0600 
    224 H224       -4.1420  -29.4029  -55.3708 H         1 UNK         0.0600 
    225 H225       -3.8020  -25.6437  -53.5457 H         1 UNK         0.3000 
    226 H226       -3.2251  -24.1686  -55.9303 H         1 UNK         0.0600 
    227 H227       -1.3230  -25.8387  -55.9985 H         1 UNK         0.0600 
    228 H228       -0.7302  -24.2277  -55.6412 H         1 UNK         0.0600 
    229 H229       -0.8857  -25.4089  -54.3474 H         1 UNK         0.0600 
    230 H230       -1.8557  -22.2108  -55.1707 H         1 UNK         0.3000 
    231 H231       -1.5604  -20.3864  -53.9827 H         1 UNK         0.0600 
    232 H232       -0.8872  -20.6127  -51.6145 H         1 UNK         0.0600 
    233 H233       -0.1762  -21.8948  -52.5791 H         1 UNK         0.0600 
    234 H234       -1.5597  -22.2343  -51.5427 H         1 UNK         0.0600 
    235 H235       -4.4952  -21.5563  -54.1046 H         1 UNK         0.3000 
    236 H236       -5.8910  -20.0673  -52.0259 H         1 UNK         0.0600 
    237 H237       -7.9012  -20.9776  -53.1628 H         1 UNK         0.0600 
    238 H238       -6.9072  -21.5920  -54.4796 H         1 UNK         0.0600 
    239 H239       -6.7306  -22.2498  -52.8536 H         1 UNK         0.0600 
    240 H240       -4.4359  -18.1668  -52.9115 H         1 UNK         0.3000 
    241 H241       -5.4767  -16.7381  -55.2041 H         1 UNK         0.0600 
    242 H242       -6.7835  -16.8567  -52.0368 H         1 UNK         0.3800 
    243 H243       -7.6268  -15.3321  -52.1243 H         1 UNK         0.3800 
    244 H244       -3.1179  -16.6306  -54.8022 H         1 UNK         0.0800 
    245 H245       -3.7657  -15.0272  -54.6520 H         1 UNK         0.0800 
    246 H246       -1.4514  -17.6140  -53.0279 H         1 UNK         0.0800 
    247 H247       -0.8979  -16.0847  -53.6783 H         1 UNK         0.0800 
@<TRIPOS>BOND
     1    1    2 1    
     2    1  127 1    
     3    1  128 1    
     4    1  129 1    
     5    2    3 2    
     6    2    4 am   BACKBONE|DICT|INTERRES
     7    4    5 1    
     8    4  130 1    
     9    5    6 1    
    10    5   65 1    
    11    5  131 1    
    12    6    7 1    
    13    6  132 1    
    14    6  133 1    
    15    7    8 1    
    16    8    9 1    
    17    8  134 1    
    18    8  135 1    
    19    9   10 ar   
    20    9   14 ar   
    21   10   11 ar   
    22   10  136 1    
    23   11   12 ar   
    24   11  126 1    
    25   12   13 ar   
    26   12  137 1    
    27   13   14 ar   
    28   13   15 1    
    29   14  138 1    
    30   15   16 1    
    31   15  139 1    
    32   15  140 1    
    33   16   17 1    
    34   17   18 1    
    35   17  141 1    
    36   17  142 1    
    37   18   19 1    
    38   18   67 1    
    39   18  143 1    
    40   19   20 am   BACKBONE|DICT|INTERRES
    41   19  144 1    
    42   20   21 2    
    43   20   22 1    
    44   22   23 1    
    45   22   24 1    
    46   22  145 1    
    47   23  146 1    
    48   23  147 1    
    49   23  148 1    
    50   24   25 am   BACKBONE|DICT|INTERRES
    51   24  149 1    
    52   25   26 2    
    53   25   27 1    
    54   27   28 1    
    55   27   29 1    
    56   27  150 1    
    57   28  151 1    
    58   28  152 1    
    59   28  153 1    
    60   29   30 am   BACKBONE|DICT|INTERRES
    61   29  154 1    
    62   30   31 2    
    63   30   32 1    
    64   32   33 1    
    65   32   34 1    
    66   32  155 1    
    67   33  156 1    
    68   33  157 1    
    69   33  158 1    
    70   34   35 am   BACKBONE|DICT|INTERRES
    71   34  159 1    
    72   35   36 2    
    73   35   37 1    
    74   37   38 1    
    75   37   39 1    
    76   37  160 1    
    77   38  161 1    
    78   38  162 1    
    79   38  163 1    
    80   39   40 am   BACKBONE|DICT|INTERRES
    81   39  164 1    
    82   40   41 2    
    83   40   42 1    
    84   42   43 1    
    85   42   44 1    
    86   42  165 1    
    87   43  166 1    
    88   43  167 1    
    89   43  168 1    
    90   44   45 am   BACKBONE|DICT|INTERRES
    91   44  169 1    
    92   45   46 2    
    93   45   47 1    
    94   47   48 1    
    95   47   49 1    
    96   47  170 1    
    97   48  171 1    
    98   48  172 1    
    99   48  173 1    
   100   49   50 am   BACKBONE|DICT|INTERRES
   101   49  174 1    
   102   50   51 2    
   103   50   52 1    
   104   52   53 1    
   105   52   54 1    
   106   52  175 1    
   107   53  176 1    
   108   53  177 1    
   109   53  178 1    
   110   54   55 am   BACKBONE|DICT|INTERRES
   111   54  179 1    
   112   55   56 2    
   113   55   57 1    
   114   57   58 1    
   115   57   59 1    
   116   57  180 1    
   117   58  181 1    
   118   58  182 1    
   119   58  183 1    
   120   59   60 am   BACKBONE|DICT|INTERRES
   121   59  184 1    
   122   60   61 2    
   123   60   62 1    
   124   62   63 1    
   125   62   64 1    
   126   62  185 1    
   127   63  186 1    
   128   63  187 1    
   129   63  188 1    
   130   64   65 am   BACKBONE|DICT|INTERRES
   131   64  189 1    
   132   65   66 2    
   133   67   68 2    
   134   67   69 am   BACKBONE|DICT|INTERRES
   135   69   70 1    
   136   69  190 1    
   137   70   71 1    
   138   70   72 1    
   139   70  191 1    
   140   71  192 1    
   141   71  193 1    
   142   71  194 1    
   143   72   73 2    
   144   72   74 am   BACKBONE|DICT|INTERRES
   145   74   75 1    
   146   74  195 1    
   147   75   76 1    
   148   75   77 1    
   149   75  196 1    
   150   76  197 1    
   151   76  198 1    
   152   76  199 1    
   153   77   78 2    
   154   77   79 am   BACKBONE|DICT|INTERRES
   155   79   80 1    
   156   79  200 1    
   157   80   81 1    
   158   80   82 1    
   159   80  201 1    
   160   81  202 1    
   161   81  203 1    
   162   81  204 1    
   163   82   83 2    
   164   82   84 am   BACKBONE|DICT|INTERRES
   165   84   85 1    
   166   84  205 1    
   167   85   86 1    
   168   85   87 1    
   169   85  206 1    
   170   86  207 1    
   171   86  208 1    
   172   86  209 1    
   173   87   88 2    
   174   87   89 am   BACKBONE|DICT|INTERRES
   175   89   90 1    
   176   89  210 1    
   177   90   91 1    
   178   90   92 1    
   179   90  211 1    
   180   91  212 1    
   181   91  213 1    
   182   91  214 1    
   183   92   93 2    
   184   92   94 am   BACKBONE|DICT|INTERRES
   185   94   95 1    
   186   94  215 1    
   187   95   96 1    
   188   95   97 1    
   189   95  216 1    
   190   96  217 1    
   191   96  218 1    
   192   96  219 1    
   193   97   98 2    
   194   97   99 am   BACKBONE|DICT|INTERRES
   195   99  100 1    
   196   99  220 1    
   197  100  101 1    
   198  100  102 1    
   199  100  221 1    
   200  101  222 1    
   201  101  223 1    
   202  101  224 1    
   203  102  103 2    
   204  102  104 am   BACKBONE|DICT|INTERRES
   205  104  105 1    
   206  104  225 1    
   207  105  106 1    
   208  105  107 1    
   209  105  226 1    
   210  106  227 1    
   211  106  228 1    
   212  106  229 1    
   213  107  108 2    
   214  107  109 am   BACKBONE|DICT|INTERRES
   215  109  110 1    
   216  109  230 1    
   217  110  111 1    
   218  110  112 1    
   219  110  231 1    
   220  111  232 1    
   221  111  233 1    
   222  111  234 1    
   223  112  113 2    
   224  112  114 am   BACKBONE|DICT|INTERRES
   225  114  115 1    
   226  114  235 1    
   227  115  116 1    
   228  115  117 1    
   229  115  236 1    
   230  116  237 1    
   231  116  238 1    
   232  116  239 1    
   233  117  118 2    
   234  117  119 am   BACKBONE|DICT|INTERRES
   235  119  120 1    
   236  119  240 1    
   237  120  121 1    
   238  120  124 1    
   239  120  241 1    
   240  121  122 am   BACKBONE|DICT|INTERRES
   241  121  123 2    
   242  122  242 1    
   243  122  243 1    
   244  124  125 1    
   245  124  244 1    
   246  124  245 1    
   247  125  126 1    
   248  126  246 1    
   249  126  247 1    
@<TRIPOS>SUBSTRUCTURE
     1 UNK         1 GROUP             0       ****    0 ROOT    
