@<TRIPOS>MOLECULE
3R540
247   249    1
SMALL
USER_CHARGES


@<TRIPOS>ATOM
      1 CA         -0.1513  -13.4836  -54.4647 C.3       0 UNK        -0.1800 
      2 C           0.8424  -13.1976  -53.3491 C.2       0 UNK         0.5000 
      3 O           2.0379  -13.0692  -53.6142 O.2       0 UNK        -0.5000 
      4 N           0.3574  -13.0830  -52.1099 N.am      1 UNK        -0.5000 
      5 CA          1.1363  -12.7319  -50.9250 C.3       1 UNK         0.1400 
      6 C6          2.0482  -13.8887  -50.4248 C.3       23 UNK        -0.0398 
      7 S7          1.1776  -15.2884  -49.6380 S.3       23 UNK        -0.2404 
      8 C8          1.2221  -16.5491  -50.9427 C.3       23 UNK        -0.0205 
      9 C9          0.8404  -17.9111  -50.3859 C.ar      23 UNK        -0.0193 
     10 C10        -0.4964  -18.3148  -50.3534 C.ar      23 UNK        -0.1150 
     11 C11        -0.8522  -19.5745  -49.8678 C.ar      23 UNK        -0.0193 
     12 C12         0.1456  -20.4362  -49.4076 C.ar      23 UNK        -0.1150 
     13 C13         1.4844  -20.0296  -49.3955 C.ar      23 UNK        -0.0193 
     14 C14         1.8269  -18.7715  -49.8975 C.ar      23 UNK        -0.1150 
     15 C15         2.5586  -20.9410  -48.8214 C.3       23 UNK        -0.0205 
     16 S16         2.9850  -20.5179  -47.0953 S.3       23 UNK        -0.2404 
     17 C17         1.3649  -20.6013  -46.2594 C.3       23 UNK        -0.0398 
     18 CA          0.9109  -22.0612  -46.0513 C.3       11 UNK         0.1400 
     19 N           1.6262  -22.7191  -44.9592 N.am      11 UNK        -0.5000 
     20 C           1.7832  -24.0442  -44.8455 C.2       10 UNK         0.5000 
     21 O           1.3769  -24.8574  -45.6749 O.2       10 UNK        -0.5000 
     22 CA          2.4938  -24.5468  -43.5751 C.3       10 UNK         0.1400 
     23 CB          4.0141  -24.5915  -43.7900 C.3       10 UNK        -0.1800 
     24 N           2.1972  -23.7284  -42.3979 N.am      10 UNK        -0.5000 
     25 C           0.9903  -23.6427  -41.8215 C.2       9 UNK         0.5000 
     26 O           0.0028  -24.2686  -42.2056 O.2       9 UNK        -0.5000 
     27 CA          0.8561  -22.6565  -40.6469 C.3       9 UNK         0.1400 
     28 CB          1.2498  -23.3345  -39.3262 C.3       9 UNK        -0.1800 
     29 N           1.6354  -21.4243  -40.8122 N.am      9 UNK        -0.5000 
     30 C           1.4625  -20.5400  -41.8033 C.2       8 UNK         0.5000 
     31 O           0.6891  -20.7155  -42.7477 O.2       8 UNK        -0.5000 
     32 CA          2.3015  -19.2532  -41.7407 C.3       8 UNK         0.1400 
     33 CB          3.4046  -19.2614  -42.8097 C.3       8 UNK        -0.1800 
     34 N           1.4376  -18.0960  -41.9489 N.am      8 UNK        -0.5000 
     35 C           0.6343  -17.5759  -41.0135 C.2       7 UNK         0.5000 
     36 O           0.6392  -17.9381  -39.8349 O.2       7 UNK        -0.5000 
     37 CA         -0.3392  -16.4781  -41.4891 C.3       7 UNK         0.1400 
     38 CB         -1.1546  -15.8421  -40.3435 C.3       7 UNK        -0.1800 
     39 N           0.3149  -15.4477  -42.3013 N.am      7 UNK        -0.5000 
     40 C           1.2816  -14.5955  -41.9287 C.2       6 UNK         0.5000 
     41 O           1.7691  -14.5512  -40.7979 O.2       6 UNK        -0.5000 
     42 CA          1.7570  -13.6139  -43.0218 C.3       6 UNK         0.1400 
     43 CB          3.0873  -12.9083  -42.6839 C.3       6 UNK        -0.1800 
     44 N           1.7980  -14.2327  -44.3511 N.am      6 UNK        -0.5000 
     45 C           2.5959  -15.2300  -44.7579 C.2       5 UNK         0.5000 
     46 O           3.4813  -15.7324  -44.0637 O.2       5 UNK        -0.5000 
     47 CA          2.3145  -15.7684  -46.1767 C.3       5 UNK         0.1400 
     48 CB          3.2522  -16.9238  -46.5752 C.3       5 UNK        -0.1800 
     49 N           0.9138  -16.1651  -46.3699 N.am      5 UNK        -0.5000 
     50 C           0.2078  -17.0358  -45.6359 C.2       4 UNK         0.5000 
     51 O           0.6485  -17.6063  -44.6385 O.2       4 UNK        -0.5000 
     52 CA         -1.2564  -17.2522  -46.0567 C.3       4 UNK         0.1400 
     53 CB         -1.9966  -18.2389  -45.1338 C.3       4 UNK        -0.1800 
     54 N          -1.9639  -15.9732  -46.0395 N.am      4 UNK        -0.5000 
     55 C          -2.1925  -15.2050  -47.1099 C.2       3 UNK         0.5000 
     56 O          -1.9088  -15.5399  -48.2592 O.2       3 UNK        -0.5000 
     57 CA         -2.8541  -13.8321  -46.8763 C.3       3 UNK         0.1400 
     58 CB         -3.3479  -13.5988  -45.4299 C.3       3 UNK        -0.1800 
     59 N          -1.9718  -12.7446  -47.3061 N.am      3 UNK        -0.5000 
     60 C          -0.7441  -12.4747  -46.8434 C.2       2 UNK         0.5000 
     61 O          -0.1887  -13.1153  -45.9487 O.2       2 UNK        -0.5000 
     62 CA          0.0016  -11.3115  -47.5251 C.3       2 UNK         0.1400 
     63 CB          0.9914  -10.6276  -46.5649 C.3       2 UNK        -0.1800 
     64 N           0.7355  -11.7789  -48.6997 N.am      2 UNK        -0.5000 
     65 C           0.1789  -12.1711  -49.8533 C.2       1 UNK         0.5000 
     66 O          -1.0324  -12.0959  -50.0865 O.2       1 UNK        -0.5000 
     67 C          -0.6088  -22.1549  -45.8531 C.2       11 UNK         0.5000 
     68 O          -1.3174  -22.4448  -46.8136 O.2       11 UNK        -0.5000 
     69 N          -1.0877  -21.9810  -44.6142 N.am      12 UNK        -0.5000 
     70 CA         -2.4993  -22.1411  -44.2523 C.3       12 UNK         0.1400 
     71 CB         -2.6888  -21.7358  -42.7834 C.3       12 UNK        -0.1800 
     72 C          -3.0375  -23.5669  -44.5058 C.2       12 UNK         0.5000 
     73 O          -4.2250  -23.7295  -44.7873 O.2       12 UNK        -0.5000 
     74 N          -2.1466  -24.5633  -44.4272 N.am      13 UNK        -0.5000 
     75 CA         -2.4135  -25.9703  -44.7145 C.3       13 UNK         0.1400 
     76 CB         -1.5216  -26.8201  -43.7935 C.3       13 UNK        -0.1800 
     77 C          -2.1878  -26.3607  -46.1924 C.2       13 UNK         0.5000 
     78 O          -2.4123  -27.5253  -46.5284 O.2       13 UNK        -0.5000 
     79 N          -1.7242  -25.4347  -47.0477 N.am      14 UNK        -0.5000 
     80 CA         -1.3972  -25.7099  -48.4505 C.3       14 UNK         0.1400 
     81 CB         -0.6052  -24.5377  -49.0503 C.3       14 UNK        -0.1800 
     82 C          -2.6456  -25.9949  -49.3045 C.2       14 UNK         0.5000 
     83 O          -3.6872  -25.3636  -49.1124 O.2       14 UNK        -0.5000 
     84 N          -2.4978  -26.9194  -50.2614 N.am      15 UNK        -0.5000 
     85 CA         -3.5607  -27.3586  -51.1685 C.3       15 UNK         0.1400 
     86 CB         -3.1563  -28.7064  -51.7865 C.3       15 UNK        -0.1800 
     87 C          -3.8983  -26.3403  -52.2754 C.2       15 UNK         0.5000 
     88 O          -4.9831  -26.4260  -52.8522 O.2       15 UNK        -0.5000 
     89 N          -2.9728  -25.4121  -52.5656 N.am      16 UNK        -0.5000 
     90 CA         -3.1333  -24.3616  -53.5752 C.3       16 UNK         0.1400 
     91 CB         -1.8000  -23.6206  -53.7671 C.3       16 UNK        -0.1800 
     92 C          -4.2537  -23.3681  -53.2237 C.2       16 UNK         0.5000 
     93 O          -5.0610  -23.0314  -54.0913 O.2       16 UNK        -0.5000 
     94 N          -4.2826  -22.9434  -51.9505 N.am      17 UNK        -0.5000 
     95 CA         -5.2612  -22.0410  -51.3392 C.3       17 UNK         0.1400 
     96 CB         -6.5490  -22.8275  -51.0104 C.3       17 UNK        -0.1800 
     97 C          -5.4927  -20.7688  -52.1855 C.2       17 UNK         0.5000 
     98 O          -4.5446  -20.0102  -52.4021 O.2       17 UNK        -0.5000 
     99 N          -6.7228  -20.5940  -52.6878 N.am      18 UNK        -0.5000 
    100 CA        -7.1850  -19.4790  -53.5177 C.3       18 UNK         0.1400 
    101 CB        -8.6774  -19.6818  -53.8221 C.3       18 UNK        -0.1800 
    102 C         -6.3986  -19.2598  -54.8256 C.2       18 UNK         0.5000 
    103 O         -6.4268  -18.1487  -55.3565 O.2       18 UNK        -0.5000 
    104 N         -5.7056  -20.2958  -55.3229 N.am      19 UNK        -0.5000 
    105 CA        -4.8239  -20.2005  -56.4884 C.3       19 UNK         0.1400 
    106 CB        -4.4987  -21.6109  -57.0037 C.3       19 UNK        -0.1800 
    107 C         -3.5249  -19.4227  -56.1966 C.2       19 UNK         0.5000 
    108 O         -2.9161  -18.9067  -57.1349 O.2       19 UNK        -0.5000 
    109 N         -3.1245  -19.3544  -54.9194 N.am      20 UNK        -0.5000 
    110 CA        -1.9514  -18.6226  -54.4532 C.3       20 UNK         0.1400 
    111 CB        -1.1363  -19.5213  -53.5111 C.3       20 UNK        -0.1800 
    112 C         -2.3768  -17.3042  -53.7851 C.2       20 UNK         0.5000 
    113 O         -1.9842  -16.2422  -54.2649 O.2       20 UNK        -0.5000 
    114 N         -3.1948  -17.3958  -52.7279 N.am      21 UNK        -0.5000 
    115 CA        -3.8084  -16.2959  -51.9785 C.3       21 UNK         0.1400 
    116 CB        -2.7979  -15.2268  -51.4900 C.3       21 UNK        -0.1800 
    117 C         -4.6273  -16.9266  -50.8423 C.2       21 UNK         0.5000 
    118 O         -5.7225  -17.4162  -51.1112 O.2       21 UNK        -0.5000 
    119 N         -4.0983  -16.9326  -49.6095 N.am      22 UNK        -0.5000 
    120 CA        -4.6998  -17.5697  -48.4195 C.3       22 UNK         0.1400 
    121 C         -6.0730  -16.9791  -47.9664 C.2       22 UNK         0.5000 
    122 N         -6.4500  -15.7801  -48.3937 N.am      22 UNK        -0.7600 
    123 O         -6.7914  -17.5893  -47.1796 O.2       22 UNK        -0.5000 
    124 C124       -4.6836  -19.1244  -48.5086 C.3       23 UNK        -0.0398 
    125 S125       -3.0193  -19.7991  -48.1810 S.3       23 UNK        -0.2404 
    126 C126       -2.3125  -19.9972  -49.8415 C.3       23 UNK        -0.0205 
    127 H127       -1.1780  -13.5025  -54.0991 H         1 UNK         0.0600 
    128 H128        0.0657  -14.4496  -54.9205 H         1 UNK         0.0600 
    129 H129       -0.0813  -12.7176  -55.2369 H         1 UNK         0.0600 
    130 H130       -0.6373  -13.1456  -51.9305 H         1 UNK         0.3000 
    131 H131        1.7831  -11.8971  -51.2033 H         1 UNK         0.0600 
    132 H132        2.7602  -13.5029  -49.6944 H         1 UNK         0.0800 
    133 H133        2.6669  -14.2589  -51.2425 H         1 UNK         0.0800 
    134 H134        0.5433  -16.2624  -51.7478 H         1 UNK         0.0800 
    135 H135        2.2210  -16.5969  -51.3784 H         1 UNK         0.0800 
    136 H136       -1.2647  -17.6534  -50.7146 H         1 UNK         0.1150 
    137 H137       -0.1279  -21.4084  -49.0236 H         1 UNK         0.1150 
    138 H138        2.8610  -18.4568  -49.8948 H         1 UNK         0.1150 
    139 H139        2.2450  -21.9837  -48.8812 H         1 UNK         0.0800 
    140 H140        3.4604  -20.8670  -49.4308 H         1 UNK         0.0800 
    141 H141        0.6389  -20.0216  -46.8290 H         1 UNK         0.0800 
    142 H142        1.4384  -20.0885  -45.3012 H         1 UNK         0.0800 
    143 H143        1.1220  -22.6131  -46.9680 H         1 UNK         0.0600 
    144 H144        1.9426  -22.1247  -44.2069 H         1 UNK         0.3000 
    145 H145        2.1447  -25.5631  -43.3794 H         1 UNK         0.0600 
    146 H146        4.5230  -25.0140  -42.9234 H         1 UNK         0.0600 
    147 H147        4.2681  -25.2130  -44.6497 H         1 UNK         0.0600 
    148 H148        4.4254  -23.5975  -43.9708 H         1 UNK         0.0600 
    149 H149        2.9534  -23.1786  -42.0177 H         1 UNK         0.3000 
    150 H150       -0.1956  -22.3715  -40.5796 H         1 UNK         0.0600 
    151 H151        2.3051  -23.6100  -39.3128 H         1 UNK         0.0600 
    152 H152        0.6707  -24.2452  -39.1670 H         1 UNK         0.0600 
    153 H153        1.0622  -22.6797  -38.4750 H         1 UNK         0.0600 
    154 H154        2.2927  -21.2098  -40.0761 H         1 UNK         0.3000 
    155 H155        2.7756  -19.1755  -40.7601 H         1 UNK         0.0600 
    156 H156        2.9922  -19.2820  -43.8179 H         1 UNK         0.0600 
    157 H157        4.0544  -20.1302  -42.6995 H         1 UNK         0.0600 
    158 H158        4.0308  -18.3724  -42.7311 H         1 UNK         0.0600 
    159 H159        1.3054  -17.8068  -42.9164 H         1 UNK         0.3000 
    160 H160       -1.0489  -16.9778  -42.1485 H         1 UNK         0.0600 
    161 H161       -0.5134  -15.3576  -39.6067 H         1 UNK         0.0600 
    162 H162       -1.7417  -16.5963  -39.8183 H         1 UNK         0.0600 
    163 H163       -1.8525  -15.0960  -40.7234 H         1 UNK         0.0600 
    164 H164        0.0463  -15.4282  -43.2736 H         1 UNK         0.3000 
    165 H165        0.9894  -12.8408  -43.0808 H         1 UNK         0.0600 
    166 H166        2.9933  -12.3178  -41.7720 H         1 UNK         0.0600 
    167 H167        3.8986  -13.6194  -42.5273 H         1 UNK         0.0600 
    168 H168        3.3854  -12.2273  -43.4811 H         1 UNK         0.0600 
    169 H169        1.0883  -13.8921  -45.0012 H         1 UNK         0.3000 
    170 H170        2.4998  -14.9405  -46.8621 H         1 UNK         0.0600 
    171 H171        4.2957  -16.6087  -46.5494 H         1 UNK         0.0600 
    172 H172        3.1495  -17.7731  -45.8996 H         1 UNK         0.0600 
    173 H173        3.0413  -17.2714  -47.5862 H         1 UNK         0.0600 
    174 H174        0.4472  -15.7311  -47.1567 H         1 UNK         0.3000 
    175 H175       -1.2435  -17.6734  -47.0640 H         1 UNK         0.0600 
    176 H176       -3.0232  -18.3952  -45.4640 H         1 UNK         0.0600 
    177 H177       -1.5054  -19.2119  -45.1337 H         1 UNK         0.0600 
    178 H178       -2.0305  -17.8881  -44.1029 H         1 UNK         0.0600 
    179 H179       -2.2097  -15.6085  -45.1313 H         1 UNK         0.3000 
    180 H180       -3.7259  -13.8018  -47.5313 H         1 UNK         0.0600 
    181 H181       -2.5337  -13.6018  -44.7044 H         1 UNK         0.0600 
    182 H182       -4.0664  -14.3633  -45.1312 H         1 UNK         0.0600 
    183 H183       -3.8551  -12.6376  -45.3461 H         1 UNK         0.0600 
    184 H184       -2.2767  -12.2362  -48.1265 H         1 UNK         0.3000 
    185 H185       -0.7327  -10.5662  -47.8380 H         1 UNK         0.0600 
    186 H186        0.4827  -10.2778  -45.6657 H         1 UNK         0.0600 
    187 H187        1.7864  -11.3045  -46.2486 H         1 UNK         0.0600 
    188 H188        1.4572   -9.7598  -47.0320 H         1 UNK         0.0600 
    189 H189        1.7328  -11.8753  -48.5812 H         1 UNK         0.3000 
    190 H190       -0.4517  -21.6930  -43.8742 H         1 UNK         0.3000 
    191 H191       -3.0786  -21.4555  -44.8745 H         1 UNK         0.0600 
    192 H192       -2.3489  -20.7146  -42.6086 H         1 UNK         0.0600 
    193 H193       -3.7403  -21.7840  -42.4979 H         1 UNK         0.0600 
    194 H194       -2.1355  -22.3935  -42.1129 H         1 UNK         0.0600 
    195 H195       -1.2053  -24.3377  -44.1310 H         1 UNK         0.3000 
    196 H196       -3.4550  -26.1958  -44.4767 H         1 UNK         0.0600 
    197 H197       -1.7152  -27.8852  -43.9260 H         1 UNK         0.0600 
    198 H198       -1.7039  -26.5871  -42.7441 H         1 UNK         0.0600 
    199 H199       -0.4628  -26.6495  -43.9938 H         1 UNK         0.0600 
    200 H200       -1.6119  -24.4763  -46.7375 H         1 UNK         0.3000 
    201 H201       -0.7529  -26.5917  -48.4673 H         1 UNK         0.0600 
    202 H202       -0.2546  -24.7761  -50.0550 H         1 UNK         0.0600 
    203 H203       -1.2156  -23.6373  -49.1260 H         1 UNK         0.0600 
    204 H204        0.2733  -24.3055  -48.4489 H         1 UNK         0.0600 
    205 H205       -1.6075  -27.3863  -50.3590 H         1 UNK         0.3000 
    206 H206       -4.4690  -27.5136  -50.5822 H         1 UNK         0.0600 
    207 H207       -2.9892  -29.4597  -51.0164 H         1 UNK         0.0600 
    208 H208       -3.9392  -29.0861  -52.4445 H         1 UNK         0.0600 
    209 H209       -2.2439  -28.6208  -52.3780 H         1 UNK         0.0600 
    210 H210       -2.1035  -25.4287  -52.0543 H         1 UNK         0.3000 
    211 H211       -3.3972  -24.8396  -54.5210 H         1 UNK         0.0600 
    212 H212       -1.4611  -23.1475  -52.8444 H         1 UNK         0.0600 
    213 H213       -1.8946  -22.8368  -54.5201 H         1 UNK         0.0600 
    214 H214       -1.0164  -24.2996  -54.1035 H         1 UNK         0.0600 
    215 H215       -3.5739  -23.2995  -51.3264 H         1 UNK         0.3000 
    216 H216       -4.8296  -21.7080  -50.3951 H         1 UNK         0.0600 
    217 H217       -7.2798  -22.1993  -50.4992 H         1 UNK         0.0600 
    218 H218       -6.3292  -23.6635  -50.3457 H         1 UNK         0.0600 
    219 H219       -7.0194  -23.2387  -51.9046 H         1 UNK         0.0600 
    220 H220       -7.4127  -21.3018  -52.4841 H         1 UNK         0.3000 
    221 H221       -7.0842  -18.5672  -52.9297 H         1 UNK         0.0600 
    222 H222       -9.0728  -18.8553  -54.4142 H         1 UNK         0.0600 
    223 H223       -8.8509  -20.6006  -54.3838 H         1 UNK         0.0600 
    224 H224       -9.2648  -19.7308  -52.9051 H         1 UNK         0.0600 
    225 H225       -5.7104  -21.1815  -54.8270 H         1 UNK         0.3000 
    226 H226       -5.3589  -19.6688  -57.2781 H         1 UNK         0.0600 
    227 H227       -3.9485  -21.5622  -57.9442 H         1 UNK         0.0600 
    228 H228       -3.8825  -22.1668  -56.2969 H         1 UNK         0.0600 
    229 H229       -5.4060  -22.1869  -57.1867 H         1 UNK         0.0600 
    230 H230       -3.7146  -19.7601  -54.2004 H         1 UNK         0.3000 
    231 H231       -1.3025  -18.3671  -55.2936 H         1 UNK         0.0600 
    232 H232       -1.7330  -19.8832  -52.6751 H         1 UNK         0.0600 
    233 H233       -0.2766  -18.9864  -53.1068 H         1 UNK         0.0600 
    234 H234       -0.7530  -20.3934  -54.0406 H         1 UNK         0.0600 
    235 H235       -3.5372  -18.3173  -52.4668 H         1 UNK         0.3000 
    236 H236       -4.5206  -15.8036  -52.6430 H         1 UNK         0.0600 
    237 H237       -3.2683  -14.5288  -50.7961 H         1 UNK         0.0600 
    238 H238       -1.9332  -15.6505  -50.9853 H         1 UNK         0.0600 
    239 H239       -2.4281  -14.6254  -52.3183 H         1 UNK         0.0600 
    240 H240       -3.2019  -16.4829  -49.4469 H         1 UNK         0.3000 
    241 H241       -4.0490  -17.3015  -47.5897 H         1 UNK         0.0600 
    242 H242       -5.8861  -15.2679  -49.0514 H         1 UNK         0.3800 
    243 H243       -7.3326  -15.4018  -48.0876 H         1 UNK         0.3800 
    244 H244       -5.0607  -19.4725  -49.4691 H         1 UNK         0.0800 
    245 H245       -5.3348  -19.5726  -47.7573 H         1 UNK         0.0800 
    246 H246       -2.4080  -21.0363  -50.1580 H         1 UNK         0.0800 
    247 H247       -2.8786  -19.4000  -50.5531 H         1 UNK         0.0800 
@<TRIPOS>BOND
     1    1    2 1    
     2    1  127 1    
     3    1  128 1    
     4    1  129 1    
     5    2    3 2    
     6    2    4 am   BACKBONE|DICT|INTERRES
     7    4    5 1    
     8    4  130 1    
     9    5    6 1    
    10    5   65 1    
    11    5  131 1    
    12    6    7 1    
    13    6  132 1    
    14    6  133 1    
    15    7    8 1    
    16    8    9 1    
    17    8  134 1    
    18    8  135 1    
    19    9   10 ar   
    20    9   14 ar   
    21   10   11 ar   
    22   10  136 1    
    23   11   12 ar   
    24   11  126 1    
    25   12   13 ar   
    26   12  137 1    
    27   13   14 ar   
    28   13   15 1    
    29   14  138 1    
    30   15   16 1    
    31   15  139 1    
    32   15  140 1    
    33   16   17 1    
    34   17   18 1    
    35   17  141 1    
    36   17  142 1    
    37   18   19 1    
    38   18   67 1    
    39   18  143 1    
    40   19   20 am   BACKBONE|DICT|INTERRES
    41   19  144 1    
    42   20   21 2    
    43   20   22 1    
    44   22   23 1    
    45   22   24 1    
    46   22  145 1    
    47   23  146 1    
    48   23  147 1    
    49   23  148 1    
    50   24   25 am   BACKBONE|DICT|INTERRES
    51   24  149 1    
    52   25   26 2    
    53   25   27 1    
    54   27   28 1    
    55   27   29 1    
    56   27  150 1    
    57   28  151 1    
    58   28  152 1    
    59   28  153 1    
    60   29   30 am   BACKBONE|DICT|INTERRES
    61   29  154 1    
    62   30   31 2    
    63   30   32 1    
    64   32   33 1    
    65   32   34 1    
    66   32  155 1    
    67   33  156 1    
    68   33  157 1    
    69   33  158 1    
    70   34   35 am   BACKBONE|DICT|INTERRES
    71   34  159 1    
    72   35   36 2    
    73   35   37 1    
    74   37   38 1    
    75   37   39 1    
    76   37  160 1    
    77   38  161 1    
    78   38  162 1    
    79   38  163 1    
    80   39   40 am   BACKBONE|DICT|INTERRES
    81   39  164 1    
    82   40   41 2    
    83   40   42 1    
    84   42   43 1    
    85   42   44 1    
    86   42  165 1    
    87   43  166 1    
    88   43  167 1    
    89   43  168 1    
    90   44   45 am   BACKBONE|DICT|INTERRES
    91   44  169 1    
    92   45   46 2    
    93   45   47 1    
    94   47   48 1    
    95   47   49 1    
    96   47  170 1    
    97   48  171 1    
    98   48  172 1    
    99   48  173 1    
   100   49   50 am   BACKBONE|DICT|INTERRES
   101   49  174 1    
   102   50   51 2    
   103   50   52 1    
   104   52   53 1    
   105   52   54 1    
   106   52  175 1    
   107   53  176 1    
   108   53  177 1    
   109   53  178 1    
   110   54   55 am   BACKBONE|DICT|INTERRES
   111   54  179 1    
   112   55   56 2    
   113   55   57 1    
   114   57   58 1    
   115   57   59 1    
   116   57  180 1    
   117   58  181 1    
   118   58  182 1    
   119   58  183 1    
   120   59   60 am   BACKBONE|DICT|INTERRES
   121   59  184 1    
   122   60   61 2    
   123   60   62 1    
   124   62   63 1    
   125   62   64 1    
   126   62  185 1    
   127   63  186 1    
   128   63  187 1    
   129   63  188 1    
   130   64   65 am   BACKBONE|DICT|INTERRES
   131   64  189 1    
   132   65   66 2    
   133   67   68 2    
   134   67   69 am   BACKBONE|DICT|INTERRES
   135   69   70 1    
   136   69  190 1    
   137   70   71 1    
   138   70   72 1    
   139   70  191 1    
   140   71  192 1    
   141   71  193 1    
   142   71  194 1    
   143   72   73 2    
   144   72   74 am   BACKBONE|DICT|INTERRES
   145   74   75 1    
   146   74  195 1    
   147   75   76 1    
   148   75   77 1    
   149   75  196 1    
   150   76  197 1    
   151   76  198 1    
   152   76  199 1    
   153   77   78 2    
   154   77   79 am   BACKBONE|DICT|INTERRES
   155   79   80 1    
   156   79  200 1    
   157   80   81 1    
   158   80   82 1    
   159   80  201 1    
   160   81  202 1    
   161   81  203 1    
   162   81  204 1    
   163   82   83 2    
   164   82   84 am   BACKBONE|DICT|INTERRES
   165   84   85 1    
   166   84  205 1    
   167   85   86 1    
   168   85   87 1    
   169   85  206 1    
   170   86  207 1    
   171   86  208 1    
   172   86  209 1    
   173   87   88 2    
   174   87   89 am   BACKBONE|DICT|INTERRES
   175   89   90 1    
   176   89  210 1    
   177   90   91 1    
   178   90   92 1    
   179   90  211 1    
   180   91  212 1    
   181   91  213 1    
   182   91  214 1    
   183   92   93 2    
   184   92   94 am   BACKBONE|DICT|INTERRES
   185   94   95 1    
   186   94  215 1    
   187   95   96 1    
   188   95   97 1    
   189   95  216 1    
   190   96  217 1    
   191   96  218 1    
   192   96  219 1    
   193   97   98 2    
   194   97   99 am   BACKBONE|DICT|INTERRES
   195   99  100 1    
   196   99  220 1    
   197  100  101 1    
   198  100  102 1    
   199  100  221 1    
   200  101  222 1    
   201  101  223 1    
   202  101  224 1    
   203  102  103 2    
   204  102  104 am   BACKBONE|DICT|INTERRES
   205  104  105 1    
   206  104  225 1    
   207  105  106 1    
   208  105  107 1    
   209  105  226 1    
   210  106  227 1    
   211  106  228 1    
   212  106  229 1    
   213  107  108 2    
   214  107  109 am   BACKBONE|DICT|INTERRES
   215  109  110 1    
   216  109  230 1    
   217  110  111 1    
   218  110  112 1    
   219  110  231 1    
   220  111  232 1    
   221  111  233 1    
   222  111  234 1    
   223  112  113 2    
   224  112  114 am   BACKBONE|DICT|INTERRES
   225  114  115 1    
   226  114  235 1    
   227  115  116 1    
   228  115  117 1    
   229  115  236 1    
   230  116  237 1    
   231  116  238 1    
   232  116  239 1    
   233  117  118 2    
   234  117  119 am   BACKBONE|DICT|INTERRES
   235  119  120 1    
   236  119  240 1    
   237  120  121 1    
   238  120  124 1    
   239  120  241 1    
   240  121  122 am   BACKBONE|DICT|INTERRES
   241  121  123 2    
   242  122  242 1    
   243  122  243 1    
   244  124  125 1    
   245  124  244 1    
   246  124  245 1    
   247  125  126 1    
   248  126  246 1    
   249  126  247 1    
@<TRIPOS>SUBSTRUCTURE
     1 UNK         1 GROUP             0       ****    0 ROOT    
