@<TRIPOS>MOLECULE
3R540
247   249    1
SMALL
USER_CHARGES


@<TRIPOS>ATOM
      1 CA          7.0782  -11.8307  -46.5392 C.3       0 UNK        -0.1800 
      2 C           5.6326  -12.2999  -46.4755 C.2       0 UNK         0.5000 
      3 O           5.0353  -12.2972  -45.3973 O.2       0 UNK        -0.5000 
      4 N           5.0578  -12.6835  -47.6247 N.am      1 UNK        -0.5000 
      5 CA          3.6880  -13.1942  -47.7896 C.3       1 UNK         0.1400 
      6 C6          3.5542  -14.0377  -49.0846 C.3       23 UNK        -0.0398 
      7 S7          2.3449  -15.3881  -48.9006 S.3       23 UNK        -0.2404 
      8 C8          1.0377  -14.8846  -50.0597 C.3       23 UNK        -0.0205 
      9 C9         -0.0192  -15.9702  -50.1823 C.ar      23 UNK        -0.0193 
     10 C10         0.2222  -17.0873  -50.9860 C.ar      23 UNK        -0.1150 
     11 C11        -0.7232  -18.1111  -51.0837 C.ar      23 UNK        -0.0193 
     12 C12        -1.9300  -17.9981  -50.3844 C.ar      23 UNK        -0.1150 
     13 C13        -2.1920  -16.8802  -49.5859 C.ar      23 UNK        -0.0193 
     14 C14        -1.2288  -15.8699  -49.4885 C.ar      23 UNK        -0.1150 
     15 C15        -3.5243  -16.7400  -48.8571 C.3       23 UNK        -0.0205 
     16 S16        -3.3316  -16.7378  -47.0435 S.3       23 UNK        -0.2404 
     17 C17        -3.7808  -18.4380  -46.5456 C.3       23 UNK        -0.0398 
     18 CA         -2.9596  -19.5668  -47.2115 C.3       11 UNK         0.1400 
     19 N          -1.5119  -19.4209  -47.0316 N.am      11 UNK        -0.5000 
     20 C          -0.6002  -20.1383  -47.7031 C.2       10 UNK         0.5000 
     21 O          -0.8899  -20.9695  -48.5626 O.2       10 UNK        -0.5000 
     22 CA          0.8747  -19.9478  -47.3116 C.3       10 UNK         0.1400 
     23 CB          1.4746  -18.7091  -47.9859 C.3       10 UNK        -0.1800 
     24 N           1.0486  -19.8601  -45.8630 N.am      10 UNK        -0.5000 
     25 C           0.8753  -20.8930  -45.0271 C.2       9 UNK         0.5000 
     26 O           0.5911  -22.0315  -45.3999 O.2       9 UNK        -0.5000 
     27 CA          1.0010  -20.5991  -43.5212 C.3       9 UNK         0.1400 
     28 CB          2.4724  -20.6421  -43.0838 C.3       9 UNK        -0.1800 
     29 N           0.4172  -19.3125  -43.1412 N.am      9 UNK        -0.5000 
     30 C          -0.8807  -19.0012  -43.2632 C.2       8 UNK         0.5000 
     31 O          -1.7372  -19.7856  -43.6686 O.2       8 UNK        -0.5000 
     32 CA         -1.2858  -17.5553  -42.9283 C.3       8 UNK         0.1400 
     33 CB         -1.4924  -17.3820  -41.4170 C.3       8 UNK        -0.1800 
     34 N          -0.3307  -16.5572  -43.4139 N.am      8 UNK        -0.5000 
     35 C          -0.0053  -16.3760  -44.7023 C.2       7 UNK         0.5000 
     36 O          -0.4244  -17.0798  -45.6181 O.2       7 UNK        -0.5000 
     37 CA          0.9820  -15.2382  -45.0080 C.3       7 UNK         0.1400 
     38 CB          0.2596  -13.8838  -45.0032 C.3       7 UNK        -0.1800 
     39 N           2.0922  -15.2097  -44.0560 N.am      7 UNK        -0.5000 
     40 C           3.0422  -16.1546  -44.0004 C.2       6 UNK         0.5000 
     41 O           3.1087  -17.1079  -44.7778 O.2       6 UNK        -0.5000 
     42 CA          4.0619  -16.0404  -42.8546 C.3       6 UNK         0.1400 
     43 CB          5.0495  -14.8923  -43.1124 C.3       6 UNK        -0.1800 
     44 N           3.4318  -15.8563  -41.5463 N.am      6 UNK        -0.5000 
     45 C           2.5839  -16.7082  -40.9551 C.2       5 UNK         0.5000 
     46 O           2.2113  -17.7626  -41.4675 O.2       5 UNK        -0.5000 
     47 CA          2.0206  -16.3093  -39.5758 C.3       5 UNK         0.1400 
     48 CB          3.0168  -16.6289  -38.4445 C.3       5 UNK        -0.1800 
     49 N           1.5351  -14.9234  -39.5164 N.am      5 UNK        -0.5000 
     50 C           2.2469  -13.7907  -39.5717 C.2       4 UNK         0.5000 
     51 O           3.4799  -13.7465  -39.5856 O.2       4 UNK        -0.5000 
     52 CA          1.4340  -12.4863  -39.6654 C.3       4 UNK         0.1400 
     53 CB          1.2346  -11.8734  -38.2711 C.3       4 UNK        -0.1800 
     54 N           2.0786  -11.5007  -40.5344 N.am      4 UNK        -0.5000 
     55 C           2.3699  -11.6849  -41.8291 C.2       3 UNK         0.5000 
     56 O           2.0768  -12.7024  -42.4667 O.2       3 UNK        -0.5000 
     57 CA          3.1598  -10.5466  -42.5002 C.3       3 UNK         0.1400 
     58 CB          4.6610  -10.6853  -42.2010 C.3       3 UNK        -0.1800 
     59 N           2.9738  -10.5390  -43.9480 N.am      3 UNK        -0.5000 
     60 C           1.8584  -10.1252  -44.5711 C.2       2 UNK         0.5000 
     61 O           0.8985   -9.6245  -43.9836 O.2       2 UNK        -0.5000 
     62 CA          1.7909  -10.3013  -46.0985 C.3       2 UNK         0.1400 
     63 CB          2.1634   -8.9939  -46.8203 C.3       2 UNK        -0.1800 
     64 N           2.6683  -11.3845  -46.5261 N.am      2 UNK        -0.5000 
     65 C           2.6273  -12.0716  -47.6664 C.2       1 UNK         0.5000 
     66 O           1.8304  -11.8382  -48.5761 O.2       1 UNK        -0.5000 
     67 C          -3.4625  -20.9526  -46.7519 C.2       11 UNK         0.5000 
     68 O          -4.3169  -21.5353  -47.4195 O.2       11 UNK        -0.5000 
     69 N          -2.9040  -21.4812  -45.6531 N.am      12 UNK        -0.5000 
     70 CA         -3.1675  -22.8356  -45.1632 C.3       12 UNK         0.1400 
     71 CB         -2.5309  -23.0245  -43.7786 C.3       12 UNK        -0.1800 
     72 C          -2.6829  -23.9177  -46.1448 C.2       12 UNK         0.5000 
     73 O          -3.4114  -24.8787  -46.3942 O.2       12 UNK        -0.5000 
     74 N          -1.4899  -23.7202  -46.7247 N.am      13 UNK        -0.5000 
     75 CA         -0.9405  -24.5686  -47.7832 C.3       13 UNK         0.1400 
     76 CB          0.5174  -24.1776  -48.0659 C.3       13 UNK        -0.1800 
     77 C          -1.7861  -24.5265  -49.0696 C.2       13 UNK         0.5000 
     78 O          -2.0072  -25.5719  -49.6783 O.2       13 UNK        -0.5000 
     79 N          -2.2845  -23.3367  -49.4347 N.am      14 UNK        -0.5000 
     80 CA         -3.1998  -23.1312  -50.5576 C.3       14 UNK         0.1400 
     81 CB         -3.4233  -21.6326  -50.7861 C.3       14 UNK        -0.1800 
     82 C          -4.5474  -23.8409  -50.3608 C.2       14 UNK         0.5000 
     83 O          -5.0462  -24.4553  -51.3031 O.2       14 UNK        -0.5000 
     84 N          -5.0972  -23.7685  -49.1405 N.am      15 UNK        -0.5000 
     85 CA         -6.3152  -24.4678  -48.7323 C.3       15 UNK         0.1400 
     86 CB         -6.7483  -23.9910  -47.3383 C.3       15 UNK        -0.1800 
     87 C          -6.1486  -25.9972  -48.7721 C.2       15 UNK         0.5000 
     88 O          -7.0157  -26.6843  -49.3132 O.2       15 UNK        -0.5000 
     89 N          -5.0117  -26.4947  -48.2618 N.am      16 UNK        -0.5000 
     90 CA         -4.6154  -27.9060  -48.3133 C.3       16 UNK         0.1400 
     91 CB         -3.3449  -28.1117  -47.4753 C.3       16 UNK        -0.1800 
     92 C          -4.4146  -28.4313  -49.7499 C.2       16 UNK         0.5000 
     93 O          -4.6932  -29.6007  -50.0142 O.2       16 UNK        -0.5000 
     94 N          -3.9956  -27.5447  -50.6621 N.am      17 UNK        -0.5000 
     95 CA         -3.8794  -27.7721  -52.1042 C.3       17 UNK         0.1400 
     96 CB         -2.7859  -26.8446  -52.6626 C.3       17 UNK        -0.1800 
     97 C          -5.2188  -27.6117  -52.8636 C.2       17 UNK         0.5000 
     98 O          -5.2020  -27.4218  -54.0805 O.2       17 UNK        -0.5000 
     99 N          -6.3488  -27.7050  -52.1459 N.am      18 UNK        -0.5000 
    100 CA        -7.7314  -27.6355  -52.6273 C.3       18 UNK         0.1400 
    101 CB        -8.0398  -28.7762  -53.6210 C.3       18 UNK        -0.1800 
    102 C         -8.1101  -26.2378  -53.1542 C.2       18 UNK         0.5000 
    103 O         -8.7386  -26.1205  -54.2078 O.2       18 UNK        -0.5000 
    104 N         -7.7308  -25.2098  -52.3819 N.am      19 UNK        -0.5000 
    105 CA        -7.9684  -23.7816  -52.6108 C.3       19 UNK         0.1400 
    106 CB        -9.4764  -23.4549  -52.5768 C.3       19 UNK        -0.1800 
    107 C         -7.2577  -23.2766  -53.8806 C.2       19 UNK         0.5000 
    108 O         -7.9050  -22.7976  -54.8146 O.2       19 UNK        -0.5000 
    109 N         -5.9254  -23.4134  -53.8861 N.am      20 UNK        -0.5000 
    110 CA        -5.0328  -22.9252  -54.9391 C.3       20 UNK         0.1400 
    111 CB        -3.5990  -23.3822  -54.6321 C.3       20 UNK        -0.1800 
    112 C         -5.0882  -21.3912  -55.0961 C.2       20 UNK         0.5000 
    113 O         -5.2603  -20.6760  -54.1062 O.2       20 UNK        -0.5000 
    114 N         -4.9377  -20.9188  -56.3403 N.am      21 UNK        -0.5000 
    115 CA        -5.0214  -19.5005  -56.7000 C.3       21 UNK         0.1400 
    116 CB        -5.2697  -19.3824  -58.2121 C.3       21 UNK        -0.1800 
    117 C         -3.7785  -18.6847  -56.2957 C.2       21 UNK         0.5000 
    118 O         -3.9053  -17.4859  -56.0433 O.2       21 UNK        -0.5000 
    119 N         -2.6102  -19.3420  -56.2549 N.am      22 UNK        -0.5000 
    120 CA        -1.2995  -18.7715  -55.8798 C.3       22 UNK         0.1400 
    121 C         -0.7340  -17.7108  -56.8763 C.2       22 UNK         0.5000 
    122 N         -1.2323  -17.6242  -58.1038 N.am      22 UNK        -0.7600 
    123 O          0.1948  -16.9761  -56.5509 O.2       22 UNK        -0.5000 
    124 C124       -1.2478  -18.2899  -54.4009 C.3       23 UNK        -0.0398 
    125 S125       -1.6373  -19.6366  -53.2332 S.3       23 UNK        -0.2404 
    126 C126       -0.4170  -19.3536  -51.9104 C.3       23 UNK        -0.0205 
    127 H127        7.1523  -10.7995  -46.1941 H         1 UNK         0.0600 
    128 H128        7.4774  -11.8812  -47.5524 H         1 UNK         0.0600 
    129 H129        7.7010  -12.4522  -45.8959 H         1 UNK         0.0600 
    130 H130        5.5962  -12.6168  -48.4769 H         1 UNK         0.3000 
    131 H131        3.5144  -13.8648  -46.9441 H         1 UNK         0.0600 
    132 H132        3.3309  -13.4231  -49.9583 H         1 UNK         0.0800 
    133 H133        4.5044  -14.5237  -49.3107 H         1 UNK         0.0800 
    134 H134        1.4722  -14.6857  -51.0405 H         1 UNK         0.0800 
    135 H135        0.5885  -13.9501  -49.7209 H         1 UNK         0.0800 
    136 H136        1.1621  -17.1687  -51.5136 H         1 UNK         0.1150 
    137 H137       -2.6660  -18.7837  -50.4680 H         1 UNK         0.1150 
    138 H138       -1.4216  -15.0076  -48.8658 H         1 UNK         0.1150 
    139 H139       -3.9797  -15.7945  -49.1544 H         1 UNK         0.0800 
    140 H140       -4.2264  -17.5182  -49.1595 H         1 UNK         0.0800 
    141 H141       -4.8435  -18.5719  -46.7556 H         1 UNK         0.0800 
    142 H142       -3.6787  -18.4941  -45.4604 H         1 UNK         0.0800 
    143 H143       -3.1516  -19.5215  -48.2832 H         1 UNK         0.0600 
    144 H144       -1.1961  -18.6992  -46.3890 H         1 UNK         0.3000 
    145 H145        1.4302  -20.8195  -47.6636 H         1 UNK         0.0600 
    146 H146        2.5042  -18.5404  -47.6699 H         1 UNK         0.0600 
    147 H147        1.4818  -18.8271  -49.0693 H         1 UNK         0.0600 
    148 H148        0.9029  -17.8089  -47.7607 H         1 UNK         0.0600 
    149 H149        1.2403  -18.9439  -45.4801 H         1 UNK         0.3000 
    150 H150        0.4623  -21.3823  -42.9842 H         1 UNK         0.0600 
    151 H151        2.9362  -21.5901  -43.3592 H         1 UNK         0.0600 
    152 H152        2.5644  -20.5370  -42.0026 H         1 UNK         0.0600 
    153 H153        3.0524  -19.8427  -43.5472 H         1 UNK         0.0600 
    154 H154        1.0547  -18.6234  -42.7512 H         1 UNK         0.3000 
    155 H155       -2.2385  -17.3592  -43.4249 H         1 UNK         0.0600 
    156 H156       -0.5788  -17.5887  -40.8612 H         1 UNK         0.0600 
    157 H157       -2.2583  -18.0664  -41.0500 H         1 UNK         0.0600 
    158 H158       -1.8173  -16.3704  -41.1732 H         1 UNK         0.0600 
    159 H159        0.0910  -15.9535  -42.7255 H         1 UNK         0.3000 
    160 H160        1.3893  -15.4043  -46.0071 H         1 UNK         0.0600 
    161 H161       -0.5324  -13.8617  -45.7529 H         1 UNK         0.0600 
    162 H162        0.9475  -13.0726  -45.2301 H         1 UNK         0.0600 
    163 H163       -0.1940  -13.6691  -44.0348 H         1 UNK         0.0600 
    164 H164        2.1176  -14.4345  -43.3983 H         1 UNK         0.3000 
    165 H165        4.6266  -16.9743  -42.8194 H         1 UNK         0.0600 
    166 H166        5.8284  -14.8613  -42.3505 H         1 UNK         0.0600 
    167 H167        5.5420  -15.0077  -44.0789 H         1 UNK         0.0600 
    168 H168        4.5470  -13.9248  -43.1165 H         1 UNK         0.0600 
    169 H169        3.6600  -15.0053  -41.0409 H         1 UNK         0.3000 
    170 H170        1.1421  -16.9321  -39.4042 H         1 UNK         0.0600 
    171 H171        3.2488  -17.6944  -38.4259 H         1 UNK         0.0600 
    172 H172        3.9610  -16.0969  -38.5618 H         1 UNK         0.0600 
    173 H173        2.6034  -16.3693  -37.4700 H         1 UNK         0.0600 
    174 H174        0.5283  -14.8363  -39.5104 H         1 UNK         0.3000 
    175 H175        0.4546  -12.7111  -40.0927 H         1 UNK         0.0600 
    176 H176        0.7313  -12.5744  -37.6038 H         1 UNK         0.0600 
    177 H177        0.6204  -10.9740  -38.3184 H         1 UNK         0.0600 
    178 H178        2.1865  -11.6073  -37.8093 H         1 UNK         0.0600 
    179 H179        2.3897  -10.6524  -40.0848 H         1 UNK         0.3000 
    180 H180        2.8101   -9.5933  -42.0980 H         1 UNK         0.0600 
    181 H181        5.0667  -11.6168  -42.5971 H         1 UNK         0.0600 
    182 H182        4.8516  -10.6765  -41.1271 H         1 UNK         0.0600 
    183 H183        5.2276   -9.8627  -42.6376 H         1 UNK         0.0600 
    184 H184        3.7286  -10.9567  -44.4752 H         1 UNK         0.3000 
    185 H185        0.7627  -10.5679  -46.3517 H         1 UNK         0.0600 
    186 H186        1.5294   -8.1704  -46.4892 H         1 UNK         0.0600 
    187 H187        3.1990   -8.7118  -46.6267 H         1 UNK         0.0600 
    188 H188        2.0370   -9.0849  -47.8991 H         1 UNK         0.0600 
    189 H189        3.3837  -11.6758  -45.8668 H         1 UNK         0.3000 
    190 H190       -2.2611  -20.9150  -45.1056 H         1 UNK         0.3000 
    191 H191       -4.2483  -22.9466  -45.0553 H         1 UNK         0.0600 
    192 H192       -2.7371  -24.0215  -43.3874 H         1 UNK         0.0600 
    193 H193       -1.4485  -22.9018  -43.8109 H         1 UNK         0.0600 
    194 H194       -2.9273  -22.3052  -43.0617 H         1 UNK         0.0600 
    195 H195       -0.9238  -22.9308  -46.4315 H         1 UNK         0.3000 
    196 H196       -0.9463  -25.5974  -47.4179 H         1 UNK         0.0600 
    197 H197        0.9548  -24.8292  -48.8232 H         1 UNK         0.0600 
    198 H198        1.1296  -24.2647  -47.1682 H         1 UNK         0.0600 
    199 H199        0.6005  -23.1534  -48.4282 H         1 UNK         0.0600 
    200 H200       -1.9903  -22.5084  -48.9246 H         1 UNK         0.3000 
    201 H201       -2.7223  -23.5467  -51.4464 H         1 UNK         0.0600 
    202 H202       -2.4739  -21.1090  -50.8517 H         1 UNK         0.0600 
    203 H203       -3.9992  -21.1734  -49.9839 H         1 UNK         0.0600 
    204 H204       -3.9627  -21.4553  -51.7172 H         1 UNK         0.0600 
    205 H205       -4.6503  -23.1828  -48.4410 H         1 UNK         0.3000 
    206 H206       -7.1045  -24.2007  -49.4373 H         1 UNK         0.0600 
    207 H207       -6.9225  -22.9149  -47.3276 H         1 UNK         0.0600 
    208 H208       -7.6767  -24.4747  -47.0320 H         1 UNK         0.0600 
    209 H209       -5.9971  -24.2139  -46.5809 H         1 UNK         0.0600 
    210 H210       -4.3685  -25.8600  -47.7967 H         1 UNK         0.3000 
    211 H211       -5.4188  -28.4902  -47.8602 H         1 UNK         0.0600 
    212 H212       -2.5037  -27.5449  -47.8740 H         1 UNK         0.0600 
    213 H213       -3.0540  -29.1627  -47.4584 H         1 UNK         0.0600 
    214 H214       -3.4987  -27.7995  -46.4422 H         1 UNK         0.0600 
    215 H215       -3.7350  -26.6197  -50.3397 H         1 UNK         0.3000 
    216 H216       -3.5521  -28.8007  -52.2669 H         1 UNK         0.0600 
    217 H217       -2.6138  -27.0245  -53.7243 H         1 UNK         0.0600 
    218 H218       -1.8364  -27.0048  -52.1516 H         1 UNK         0.0600 
    219 H219       -3.0533  -25.7952  -52.5446 H         1 UNK         0.0600 
    220 H220       -6.2540  -27.8091  -51.1440 H         1 UNK         0.3000 
    221 H221       -8.3577  -27.7996  -51.7492 H         1 UNK         0.0600 
    222 H222       -9.1041  -28.8087  -53.8566 H         1 UNK         0.0600 
    223 H223       -7.7714  -29.7465  -53.2030 H         1 UNK         0.0600 
    224 H224       -7.5031  -28.6553  -54.5621 H         1 UNK         0.0600 
    225 H225       -7.1393  -25.4242  -51.5895 H         1 UNK         0.3000 
    226 H226       -7.5094  -23.2542  -51.7734 H         1 UNK         0.0600 
    227 H227       -9.6406  -22.3790  -52.6450 H         1 UNK         0.0600 
    228 H228      -10.0163  -23.9183  -53.4028 H         1 UNK         0.0600 
    229 H229       -9.9315  -23.7943  -51.6464 H         1 UNK         0.0600 
    230 H230       -5.4887  -23.8263  -53.0673 H         1 UNK         0.3000 
    231 H231       -5.3506  -23.3850  -55.8770 H         1 UNK         0.0600 
    232 H232       -3.5414  -24.4672  -54.5460 H         1 UNK         0.0600 
    233 H233       -3.2297  -22.9472  -53.7034 H         1 UNK         0.0600 
    234 H234       -2.9142  -23.0832  -55.4264 H         1 UNK         0.0600 
    235 H235       -4.8006  -21.5689  -57.1010 H         1 UNK         0.3000 
    236 H236       -5.8799  -19.0657  -56.1832 H         1 UNK         0.0600 
    237 H237       -6.1954  -19.8814  -58.4996 H         1 UNK         0.0600 
    238 H238       -5.3592  -18.3377  -58.5131 H         1 UNK         0.0600 
    239 H239       -4.4566  -19.8225  -58.7907 H         1 UNK         0.0600 
    240 H240       -2.6114  -20.3252  -56.4811 H         1 UNK         0.3000 
    241 H241       -0.5974  -19.6019  -55.9622 H         1 UNK         0.0600 
    242 H242       -0.8544  -16.9451  -58.7460 H         1 UNK         0.3800 
    243 H243       -1.9853  -18.2260  -58.3955 H         1 UNK         0.3800 
    244 H244       -1.9410  -17.4655  -54.2308 H         1 UNK         0.0800 
    245 H245       -0.2562  -17.9031  -54.1615 H         1 UNK         0.0800 
    246 H246        0.5802  -19.2983  -52.3495 H         1 UNK         0.0800 
    247 H247       -0.4008  -20.2178  -51.2459 H         1 UNK         0.0800 
@<TRIPOS>BOND
     1    1    2 1    
     2    1  127 1    
     3    1  128 1    
     4    1  129 1    
     5    2    3 2    
     6    2    4 am   BACKBONE|DICT|INTERRES
     7    4    5 1    
     8    4  130 1    
     9    5    6 1    
    10    5   65 1    
    11    5  131 1    
    12    6    7 1    
    13    6  132 1    
    14    6  133 1    
    15    7    8 1    
    16    8    9 1    
    17    8  134 1    
    18    8  135 1    
    19    9   10 ar   
    20    9   14 ar   
    21   10   11 ar   
    22   10  136 1    
    23   11   12 ar   
    24   11  126 1    
    25   12   13 ar   
    26   12  137 1    
    27   13   14 ar   
    28   13   15 1    
    29   14  138 1    
    30   15   16 1    
    31   15  139 1    
    32   15  140 1    
    33   16   17 1    
    34   17   18 1    
    35   17  141 1    
    36   17  142 1    
    37   18   19 1    
    38   18   67 1    
    39   18  143 1    
    40   19   20 am   BACKBONE|DICT|INTERRES
    41   19  144 1    
    42   20   21 2    
    43   20   22 1    
    44   22   23 1    
    45   22   24 1    
    46   22  145 1    
    47   23  146 1    
    48   23  147 1    
    49   23  148 1    
    50   24   25 am   BACKBONE|DICT|INTERRES
    51   24  149 1    
    52   25   26 2    
    53   25   27 1    
    54   27   28 1    
    55   27   29 1    
    56   27  150 1    
    57   28  151 1    
    58   28  152 1    
    59   28  153 1    
    60   29   30 am   BACKBONE|DICT|INTERRES
    61   29  154 1    
    62   30   31 2    
    63   30   32 1    
    64   32   33 1    
    65   32   34 1    
    66   32  155 1    
    67   33  156 1    
    68   33  157 1    
    69   33  158 1    
    70   34   35 am   BACKBONE|DICT|INTERRES
    71   34  159 1    
    72   35   36 2    
    73   35   37 1    
    74   37   38 1    
    75   37   39 1    
    76   37  160 1    
    77   38  161 1    
    78   38  162 1    
    79   38  163 1    
    80   39   40 am   BACKBONE|DICT|INTERRES
    81   39  164 1    
    82   40   41 2    
    83   40   42 1    
    84   42   43 1    
    85   42   44 1    
    86   42  165 1    
    87   43  166 1    
    88   43  167 1    
    89   43  168 1    
    90   44   45 am   BACKBONE|DICT|INTERRES
    91   44  169 1    
    92   45   46 2    
    93   45   47 1    
    94   47   48 1    
    95   47   49 1    
    96   47  170 1    
    97   48  171 1    
    98   48  172 1    
    99   48  173 1    
   100   49   50 am   BACKBONE|DICT|INTERRES
   101   49  174 1    
   102   50   51 2    
   103   50   52 1    
   104   52   53 1    
   105   52   54 1    
   106   52  175 1    
   107   53  176 1    
   108   53  177 1    
   109   53  178 1    
   110   54   55 am   BACKBONE|DICT|INTERRES
   111   54  179 1    
   112   55   56 2    
   113   55   57 1    
   114   57   58 1    
   115   57   59 1    
   116   57  180 1    
   117   58  181 1    
   118   58  182 1    
   119   58  183 1    
   120   59   60 am   BACKBONE|DICT|INTERRES
   121   59  184 1    
   122   60   61 2    
   123   60   62 1    
   124   62   63 1    
   125   62   64 1    
   126   62  185 1    
   127   63  186 1    
   128   63  187 1    
   129   63  188 1    
   130   64   65 am   BACKBONE|DICT|INTERRES
   131   64  189 1    
   132   65   66 2    
   133   67   68 2    
   134   67   69 am   BACKBONE|DICT|INTERRES
   135   69   70 1    
   136   69  190 1    
   137   70   71 1    
   138   70   72 1    
   139   70  191 1    
   140   71  192 1    
   141   71  193 1    
   142   71  194 1    
   143   72   73 2    
   144   72   74 am   BACKBONE|DICT|INTERRES
   145   74   75 1    
   146   74  195 1    
   147   75   76 1    
   148   75   77 1    
   149   75  196 1    
   150   76  197 1    
   151   76  198 1    
   152   76  199 1    
   153   77   78 2    
   154   77   79 am   BACKBONE|DICT|INTERRES
   155   79   80 1    
   156   79  200 1    
   157   80   81 1    
   158   80   82 1    
   159   80  201 1    
   160   81  202 1    
   161   81  203 1    
   162   81  204 1    
   163   82   83 2    
   164   82   84 am   BACKBONE|DICT|INTERRES
   165   84   85 1    
   166   84  205 1    
   167   85   86 1    
   168   85   87 1    
   169   85  206 1    
   170   86  207 1    
   171   86  208 1    
   172   86  209 1    
   173   87   88 2    
   174   87   89 am   BACKBONE|DICT|INTERRES
   175   89   90 1    
   176   89  210 1    
   177   90   91 1    
   178   90   92 1    
   179   90  211 1    
   180   91  212 1    
   181   91  213 1    
   182   91  214 1    
   183   92   93 2    
   184   92   94 am   BACKBONE|DICT|INTERRES
   185   94   95 1    
   186   94  215 1    
   187   95   96 1    
   188   95   97 1    
   189   95  216 1    
   190   96  217 1    
   191   96  218 1    
   192   96  219 1    
   193   97   98 2    
   194   97   99 am   BACKBONE|DICT|INTERRES
   195   99  100 1    
   196   99  220 1    
   197  100  101 1    
   198  100  102 1    
   199  100  221 1    
   200  101  222 1    
   201  101  223 1    
   202  101  224 1    
   203  102  103 2    
   204  102  104 am   BACKBONE|DICT|INTERRES
   205  104  105 1    
   206  104  225 1    
   207  105  106 1    
   208  105  107 1    
   209  105  226 1    
   210  106  227 1    
   211  106  228 1    
   212  106  229 1    
   213  107  108 2    
   214  107  109 am   BACKBONE|DICT|INTERRES
   215  109  110 1    
   216  109  230 1    
   217  110  111 1    
   218  110  112 1    
   219  110  231 1    
   220  111  232 1    
   221  111  233 1    
   222  111  234 1    
   223  112  113 2    
   224  112  114 am   BACKBONE|DICT|INTERRES
   225  114  115 1    
   226  114  235 1    
   227  115  116 1    
   228  115  117 1    
   229  115  236 1    
   230  116  237 1    
   231  116  238 1    
   232  116  239 1    
   233  117  118 2    
   234  117  119 am   BACKBONE|DICT|INTERRES
   235  119  120 1    
   236  119  240 1    
   237  120  121 1    
   238  120  124 1    
   239  120  241 1    
   240  121  122 am   BACKBONE|DICT|INTERRES
   241  121  123 2    
   242  122  242 1    
   243  122  243 1    
   244  124  125 1    
   245  124  244 1    
   246  124  245 1    
   247  125  126 1    
   248  126  246 1    
   249  126  247 1    
@<TRIPOS>SUBSTRUCTURE
     1 UNK         1 GROUP             0       ****    0 ROOT    
