@<TRIPOS>MOLECULE
3R540
247   249    1
SMALL
USER_CHARGES


@<TRIPOS>ATOM
      1 CA          3.5871  -11.9946  -52.9736 C.3       0 UNK        -0.1800 
      2 C           3.1054  -12.1042  -51.5349 C.2       0 UNK         0.5000 
      3 O           2.0602  -11.5506  -51.1930 O.2       0 UNK        -0.5000 
      4 N           3.8449  -12.8341  -50.6887 N.am      1 UNK        -0.5000 
      5 CA          3.5285  -13.0278  -49.2673 C.3       1 UNK         0.1400 
      6 C6          4.7447  -13.5764  -48.4753 C.3       23 UNK        -0.0398 
      7 S7          5.1322  -15.3417  -48.7582 S.3       23 UNK        -0.2404 
      8 C8          4.6750  -16.0577  -47.1451 C.3       23 UNK        -0.0205 
      9 C9          4.1056  -17.4566  -47.2984 C.ar      23 UNK        -0.0193 
     10 C10         2.7973  -17.6143  -47.7612 C.ar      23 UNK        -0.1150 
     11 C11         2.2391  -18.8869  -47.8872 C.ar      23 UNK        -0.0193 
     12 C12         3.0032  -20.0070  -47.5630 C.ar      23 UNK        -0.1150 
     13 C13         4.2948  -19.8633  -47.0530 C.ar      23 UNK        -0.0193 
     14 C14         4.8511  -18.5845  -46.9377 C.ar      23 UNK        -0.1150 
     15 C15         5.0730  -21.0955  -46.6198 C.3       23 UNK        -0.0205 
     16 S16         4.8908  -21.4610  -44.8383 S.3       23 UNK        -0.2404 
     17 C17         3.0977  -21.7464  -44.6011 C.3       23 UNK        -0.0398 
     18 CA          2.6628  -23.2258  -44.7715 C.3       11 UNK         0.1400 
     19 N           1.4731  -23.5357  -43.9735 N.am      11 UNK        -0.5000 
     20 C           1.0771  -24.7768  -43.6493 C.2       10 UNK         0.5000 
     21 O           1.7313  -25.7878  -43.9056 O.2       10 UNK        -0.5000 
     22 CA         -0.2820  -24.9262  -42.9328 C.3       10 UNK         0.1400 
     23 CB         -0.0812  -25.0047  -41.4119 C.3       10 UNK        -0.1800 
     24 N          -1.2221  -23.8447  -43.2307 N.am      10 UNK        -0.5000 
     25 C          -1.7389  -23.5852  -44.4391 C.2       9 UNK         0.5000 
     26 O          -1.5544  -24.2996  -45.4242 O.2       9 UNK        -0.5000 
     27 CA         -2.5573  -22.2874  -44.5934 C.3       9 UNK         0.1400 
     28 CB         -4.0601  -22.5979  -44.5858 C.3       9 UNK        -0.1800 
     29 N          -2.2859  -21.2500  -43.5925 N.am      9 UNK        -0.5000 
     30 C          -1.0965  -20.6903  -43.3351 C.2       8 UNK         0.5000 
     31 O          -0.0364  -21.0573  -43.8489 O.2       8 UNK        -0.5000 
     32 CA         -1.0946  -19.5902  -42.2604 C.3       8 UNK         0.1400 
     33 CB         -1.0456  -20.2203  -40.8594 C.3       8 UNK        -0.1800 
     34 N           0.0508  -18.6979  -42.4099 N.am      8 UNK        -0.5000 
     35 C           0.1582  -17.7349  -43.3314 C.2       7 UNK         0.5000 
     36 O          -0.7374  -17.4249  -44.1241 O.2       7 UNK        -0.5000 
     37 CA          1.5085  -17.0083  -43.3653 C.3       7 UNK         0.1400 
     38 CB          2.5500  -17.8473  -44.1205 C.3       7 UNK        -0.1800 
     39 N           1.3517  -15.7153  -44.0255 N.am      7 UNK        -0.5000 
     40 C           1.7907  -14.5474  -43.5427 C.2       6 UNK         0.5000 
     41 O           2.4483  -14.4442  -42.5059 O.2       6 UNK        -0.5000 
     42 CA          1.4554  -13.2700  -44.3379 C.3       6 UNK         0.1400 
     43 CB          2.7198  -12.6918  -44.9884 C.3       6 UNK        -0.1800 
     44 N           0.4414  -13.4550  -45.3770 N.am      6 UNK        -0.5000 
     45 C          -0.8770  -13.5286  -45.1508 C.2       5 UNK         0.5000 
     46 O          -1.3718  -13.5535  -44.0223 O.2       5 UNK        -0.5000 
     47 CA         -1.7792  -13.5338  -46.4039 C.3       5 UNK         0.1400 
     48 CB         -3.2709  -13.3200  -46.0751 C.3       5 UNK        -0.1800 
     49 N          -1.3276  -12.5707  -47.4155 N.am      5 UNK        -0.5000 
     50 C          -1.2053  -11.2388  -47.2879 C.2       4 UNK         0.5000 
     51 O          -1.5246  -10.6126  -46.2767 O.2       4 UNK        -0.5000 
     52 CA         -0.6056  -10.4647  -48.4823 C.3       4 UNK         0.1400 
     53 CB          0.8232  -10.0042  -48.1530 C.3       4 UNK        -0.1800 
     54 N          -0.5721  -11.2403  -49.7230 N.am      4 UNK        -0.5000 
     55 C          -1.6409  -11.5340  -50.4763 C.2       3 UNK         0.5000 
     56 O          -2.7717  -11.0957  -50.2648 O.2       3 UNK        -0.5000 
     57 CA         -1.4092  -12.5275  -51.6300 C.3       3 UNK         0.1400 
     58 CB         -0.9945  -11.7954  -52.9153 C.3       3 UNK        -0.1800 
     59 N          -0.4010  -13.5352  -51.2885 N.am      3 UNK        -0.5000 
     60 C          -0.5964  -14.5189  -50.3987 C.2       2 UNK         0.5000 
     61 O          -1.6598  -14.7027  -49.8114 O.2       2 UNK        -0.5000 
     62 CA          0.6041  -15.4199  -50.0715 C.3       2 UNK         0.1400 
     63 CB          0.7213  -16.5604  -51.0937 C.3       2 UNK        -0.1800 
     64 N           1.8632  -14.6789  -50.0247 N.am      2 UNK        -0.5000 
     65 C           2.2239  -13.8339  -49.0468 C.2       1 UNK         0.5000 
     66 O           1.5557  -13.6489  -48.0289 O.2       1 UNK        -0.5000 
     67 C           2.4273  -23.5877  -46.2534 C.2       11 UNK         0.5000 
     68 O           3.3196  -24.1431  -46.8947 O.2       11 UNK        -0.5000 
     69 N           1.2226  -23.2836  -46.7612 N.am      12 UNK        -0.5000 
     70 CA          0.7845  -23.6070  -48.1186 C.3       12 UNK         0.1400 
     71 CB         -0.5241  -22.8663  -48.4433 C.3       12 UNK        -0.1800 
     72 C           0.6063  -25.1156  -48.3386 C.2       12 UNK         0.5000 
     73 O           1.1668  -25.6606  -49.2901 O.2       12 UNK        -0.5000 
     74 N          -0.2057  -25.7424  -47.4756 N.am      13 UNK        -0.5000 
     75 CA         -0.6522  -27.1419  -47.4717 C.3       13 UNK         0.1400 
     76 CB          0.5349  -28.1083  -47.3038 C.3       13 UNK        -0.1800 
     77 C          -1.5390  -27.5419  -48.6722 C.2       13 UNK         0.5000 
     78 O          -2.5329  -28.2428  -48.4770 O.2       13 UNK        -0.5000 
     79 N          -1.1812  -27.0933  -49.8817 N.am      14 UNK        -0.5000 
     80 CA         -1.9379  -27.2563  -51.1200 C.3       14 UNK         0.1400 
     81 CB         -1.0766  -26.7796  -52.2993 C.3       14 UNK        -0.1800 
     82 C          -3.2587  -26.4709  -51.0709 C.2       14 UNK         0.5000 
     83 O          -3.2468  -25.2826  -50.7401 O.2       14 UNK        -0.5000 
     84 N          -4.3621  -27.1419  -51.4256 N.am      15 UNK        -0.5000 
     85 CA         -5.7361  -26.6409  -51.3234 C.3       15 UNK         0.1400 
     86 CB         -6.7069  -27.7465  -51.7651 C.3       15 UNK        -0.1800 
     87 C          -6.0127  -25.3435  -52.1051 C.2       15 UNK         0.5000 
     88 O          -6.8190  -24.5320  -51.6541 O.2       15 UNK        -0.5000 
     89 N          -5.3358  -25.1649  -53.2477 N.am      16 UNK        -0.5000 
     90 CA         -5.4502  -23.9777  -54.0964 C.3       16 UNK         0.1400 
     91 CB         -4.7983  -24.2645  -55.4576 C.3       16 UNK        -0.1800 
     92 C          -4.8340  -22.7202  -53.4553 C.2       16 UNK         0.5000 
     93 O          -5.3855  -21.6300  -53.6052 O.2       16 UNK        -0.5000 
     94 N          -3.7114  -22.8945  -52.7458 N.am      17 UNK        -0.5000 
     95 CA         -3.0157  -21.8244  -52.0311 C.3       17 UNK         0.1400 
     96 CB         -1.5263  -22.1788  -51.9137 C.3       17 UNK        -0.1800 
     97 C          -3.6426  -21.5618  -50.6518 C.2       17 UNK         0.5000 
     98 O          -3.7313  -20.4085  -50.2345 O.2       17 UNK        -0.5000 
     99 N          -4.1051  -22.6298  -49.9897 N.am      18 UNK        -0.5000 
    100 CA        -4.7992  -22.6092  -48.6996 C.3       18 UNK         0.1400 
    101 CB        -4.7793  -24.0354  -48.1250 C.3       18 UNK        -0.1800 
    102 C         -6.2415  -22.0534  -48.7516 C.2       18 UNK         0.5000 
    103 O         -6.8895  -21.9800  -47.7064 O.2       18 UNK        -0.5000 
    104 N         -6.7311  -21.7000  -49.9482 N.am      19 UNK        -0.5000 
    105 CA        -8.0260  -21.0670  -50.1887 C.3       19 UNK         0.1400 
    106 CB        -8.5117  -21.4511  -51.6015 C.3       19 UNK        -0.1800 
    107 C         -7.9475  -19.5423  -49.9457 C.2       19 UNK         0.5000 
    108 O         -7.5217  -19.1104  -48.8734 O.2       19 UNK        -0.5000 
    109 N         -8.3650  -18.7356  -50.9300 N.am      20 UNK        -0.5000 
    110 CA        -8.4262  -17.2721  -50.8747 C.3       20 UNK         0.1400 
    111 CB        -9.4655  -16.7889  -51.9033 C.3       20 UNK        -0.1800 
    112 C         -7.0452  -16.6033  -51.0624 C.2       20 UNK         0.5000 
    113 O         -6.8887  -15.7369  -51.9252 O.2       20 UNK        -0.5000 
    114 N         -6.0659  -17.0188  -50.2545 N.am      21 UNK        -0.5000 
    115 CA        -4.7062  -16.4951  -50.2319 C.3       21 UNK         0.1400 
    116 CB        -3.8796  -17.0618  -51.4066 C.3       21 UNK        -0.1800 
    117 C         -4.0960  -16.7681  -48.8507 C.2       21 UNK         0.5000 
    118 O         -4.2160  -15.9239  -47.9631 O.2       21 UNK        -0.5000 
    119 N         -3.4593  -17.9331  -48.6916 N.am      22 UNK        -0.5000 
    120 CA        -2.7551  -18.3490  -47.4719 C.3       22 UNK         0.1400 
    121 C         -3.7051  -18.5921  -46.2656 C.2       22 UNK         0.5000 
    122 N         -3.2925  -18.2510  -45.0528 N.am      22 UNK        -0.7600 
    123 O         -4.8018  -19.1238  -46.4137 O.2       22 UNK        -0.5000 
    124 C124       -1.8724  -19.5893  -47.7619 C.3       23 UNK        -0.0398 
    125 S125       -0.2610  -19.5077  -46.9252 S.3       23 UNK        -0.2404 
    126 C126        0.8015  -19.0617  -48.3320 C.3       23 UNK        -0.0205 
    127 H127        2.8264  -12.3781  -53.6535 H         1 UNK         0.0600 
    128 H128        4.5065  -12.5572  -53.1372 H         1 UNK         0.0600 
    129 H129        3.7760  -10.9512  -53.2256 H         1 UNK         0.0600 
    130 H130        4.6883  -13.2829  -51.0180 H         1 UNK         0.3000 
    131 H131        3.3312  -12.0320  -48.8653 H         1 UNK         0.0600 
    132 H132        5.6336  -12.9986  -48.7321 H         1 UNK         0.0800 
    133 H133        4.6045  -13.3968  -47.4107 H         1 UNK         0.0800 
    134 H134        5.5477  -16.0602  -46.4904 H         1 UNK         0.0800 
    135 H135        3.9222  -15.4420  -46.6520 H         1 UNK         0.0800 
    136 H136        2.2121  -16.7404  -48.0013 H         1 UNK         0.1150 
    137 H137        2.5679  -20.9901  -47.6618 H         1 UNK         0.1150 
    138 H138        5.8534  -18.4681  -46.5502 H         1 UNK         0.1150 
    139 H139        4.7708  -21.9611  -47.2090 H         1 UNK         0.0800 
    140 H140        6.1320  -20.9476  -46.8356 H         1 UNK         0.0800 
    141 H141        2.4969  -21.0692  -45.2069 H         1 UNK         0.0800 
    142 H142        2.8962  -21.4372  -43.5745 H         1 UNK         0.0800 
    143 H143        3.4717  -23.8601  -44.4020 H         1 UNK         0.0600 
    144 H144        0.8703  -22.7478  -43.7512 H         1 UNK         0.3000 
    145 H145       -0.7299  -25.8632  -43.2704 H         1 UNK         0.0600 
    146 H146       -1.0246  -25.1898  -40.8979 H         1 UNK         0.0600 
    147 H147        0.5959  -25.8184  -41.1486 H         1 UNK         0.0600 
    148 H148        0.3437  -24.0820  -41.0143 H         1 UNK         0.0600 
    149 H149       -1.4264  -23.2026  -42.4799 H         1 UNK         0.3000 
    150 H150       -2.3002  -21.8709  -45.5677 H         1 UNK         0.0600 
    151 H151       -4.4048  -22.8933  -43.5942 H         1 UNK         0.0600 
    152 H152       -4.2946  -23.4154  -45.2659 H         1 UNK         0.0600 
    153 H153       -4.6433  -21.7332  -44.9043 H         1 UNK         0.0600 
    154 H154       -3.0939  -20.9063  -43.0945 H         1 UNK         0.3000 
    155 H155       -2.0114  -19.0041  -42.3525 H         1 UNK         0.0600 
    156 H156       -0.1497  -20.8273  -40.7211 H         1 UNK         0.0600 
    157 H157       -1.9084  -20.8648  -40.6863 H         1 UNK         0.0600 
    158 H158       -1.0551  -19.4552  -40.0828 H         1 UNK         0.0600 
    159 H159        0.8521  -18.9100  -41.8344 H         1 UNK         0.3000 
    160 H160        1.8432  -16.8715  -42.3350 H         1 UNK         0.0600 
    161 H161        2.1855  -18.1355  -45.1055 H         1 UNK         0.0600 
    162 H162        2.7796  -18.7669  -43.5816 H         1 UNK         0.0600 
    163 H163        3.4857  -17.3036  -44.2503 H         1 UNK         0.0600 
    164 H164        0.7483  -15.7140  -44.8360 H         1 UNK         0.3000 
    165 H165        1.0812  -12.5341  -43.6229 H         1 UNK         0.0600 
    166 H166        2.5030  -11.7725  -45.5330 H         1 UNK         0.0600 
    167 H167        3.4769  -12.4575  -44.2391 H         1 UNK         0.0600 
    168 H168        3.1570  -13.4026  -45.6862 H         1 UNK         0.0600 
    169 H169        0.7755  -13.4584  -46.3387 H         1 UNK         0.3000 
    170 H170       -1.6790  -14.5227  -46.8544 H         1 UNK         0.0600 
    171 H171       -3.6480  -14.1260  -45.4445 H         1 UNK         0.0600 
    172 H172       -3.4431  -12.3815  -45.5477 H         1 UNK         0.0600 
    173 H173       -3.8749  -13.3110  -46.9824 H         1 UNK         0.0600 
    174 H174       -1.0324  -12.9799  -48.2909 H         1 UNK         0.3000 
    175 H175       -1.2224   -9.5787  -48.6463 H         1 UNK         0.0600 
    176 H176        1.2662   -9.4566  -48.9851 H         1 UNK         0.0600 
    177 H177        0.8297   -9.3418  -47.2865 H         1 UNK         0.0600 
    178 H178        1.4722  -10.8485  -47.9217 H         1 UNK         0.0600 
    179 H179        0.3343  -11.5812  -50.0243 H         1 UNK         0.3000 
    180 H180       -2.3542  -13.0403  -51.8226 H         1 UNK         0.0600 
    181 H181       -0.0587  -11.2505  -52.7896 H         1 UNK         0.0600 
    182 H182       -1.7553  -11.0727  -53.2126 H         1 UNK         0.0600 
    183 H183       -0.8683  -12.4930  -53.7434 H         1 UNK         0.0600 
    184 H184        0.5163  -13.4120  -51.6914 H         1 UNK         0.3000 
    185 H185        0.4196  -15.8507  -49.0864 H         1 UNK         0.0600 
    186 H186       -0.1911  -17.1580  -51.1184 H         1 UNK         0.0600 
    187 H187        0.8938  -16.1829  -52.1023 H         1 UNK         0.0600 
    188 H188        1.5434  -17.2315  -50.8437 H         1 UNK         0.0600 
    189 H189        2.4823  -14.7790  -50.8157 H         1 UNK         0.3000 
    190 H190        0.5405  -22.8513  -46.1556 H         1 UNK         0.3000 
    191 H191        1.5492  -23.2641  -48.8190 H         1 UNK         0.0600 
    192 H192       -0.3246  -21.8386  -48.7335 H         1 UNK         0.0600 
    193 H193       -1.0532  -23.3342  -49.2726 H         1 UNK         0.0600 
    194 H194       -1.2139  -22.8520  -47.6011 H         1 UNK         0.0600 
    195 H195       -0.6397  -25.1701  -46.7527 H         1 UNK         0.3000 
    196 H196       -1.2767  -27.2381  -46.5819 H         1 UNK         0.0600 
    197 H197        0.1857  -29.1347  -47.1859 H         1 UNK         0.0600 
    198 H198        1.1209  -27.8596  -46.4187 H         1 UNK         0.0600 
    199 H199        1.2030  -28.0895  -48.1651 H         1 UNK         0.0600 
    200 H200       -0.3384  -26.5277  -49.9305 H         1 UNK         0.3000 
    201 H201       -2.1520  -28.3190  -51.2504 H         1 UNK         0.0600 
    202 H202       -1.6061  -26.8994  -53.2453 H         1 UNK         0.0600 
    203 H203       -0.8090  -25.7264  -52.2024 H         1 UNK         0.0600 
    204 H204       -0.1524  -27.3535  -52.3691 H         1 UNK         0.0600 
    205 H205       -4.2677  -28.1090  -51.7003 H         1 UNK         0.3000 
    206 H206       -5.9266  -26.4313  -50.2697 H         1 UNK         0.0600 
    207 H207       -6.6004  -28.6370  -51.1454 H         1 UNK         0.0600 
    208 H208       -7.7428  -27.4153  -51.6784 H         1 UNK         0.0600 
    209 H209       -6.5410  -28.0367  -52.8034 H         1 UNK         0.0600 
    210 H210       -4.6961  -25.8860  -53.5467 H         1 UNK         0.3000 
    211 H211       -6.5111  -23.7783  -54.2628 H         1 UNK         0.0600 
    212 H212       -3.7373  -24.4963  -55.3566 H         1 UNK         0.0600 
    213 H213       -4.8845  -23.4025  -56.1206 H         1 UNK         0.0600 
    214 H214       -5.2803  -25.1056  -55.9561 H         1 UNK         0.0600 
    215 H215       -3.3562  -23.8321  -52.6196 H         1 UNK         0.3000 
    216 H216       -3.0916  -20.8975  -52.6041 H         1 UNK         0.0600 
    217 H217       -0.9972  -21.4662  -51.2794 H         1 UNK         0.0600 
    218 H218       -1.0455  -22.1612  -52.8918 H         1 UNK         0.0600 
    219 H219       -1.3809  -23.1749  -51.4963 H         1 UNK         0.0600 
    220 H220       -3.9430  -23.5514  -50.3876 H         1 UNK         0.3000 
    221 H221       -4.2406  -21.9627  -48.0204 H         1 UNK         0.0600 
    222 H222       -5.2502  -24.7423  -48.8066 H         1 UNK         0.0600 
    223 H223       -3.7586  -24.3736  -47.9425 H         1 UNK         0.0600 
    224 H224       -5.3188  -24.0958  -47.1804 H         1 UNK         0.0600 
    225 H225       -6.1311  -21.8123  -50.7517 H         1 UNK         0.3000 
    226 H226       -8.7511  -21.4620  -49.4745 H         1 UNK         0.0600 
    227 H227       -9.5026  -21.0447  -51.8079 H         1 UNK         0.0600 
    228 H228       -7.8311  -21.0985  -52.3775 H         1 UNK         0.0600 
    229 H229       -8.5924  -22.5331  -51.7031 H         1 UNK         0.0600 
    230 H230       -8.6665  -19.1580  -51.7960 H         1 UNK         0.3000 
    231 H231       -8.7856  -16.9778  -49.8863 H         1 UNK         0.0600 
    232 H232       -9.1728  -17.0454  -52.9222 H         1 UNK         0.0600 
    233 H233       -9.5889  -15.7061  -51.8581 H         1 UNK         0.0600 
    234 H234      -10.4436  -17.2314  -51.7135 H         1 UNK         0.0600 
    235 H235       -6.2894  -17.7263  -49.5588 H         1 UNK         0.3000 
    236 H236       -4.7424  -15.4089  -50.3418 H         1 UNK         0.0600 
    237 H237       -4.2193  -16.6486  -52.3561 H         1 UNK         0.0600 
    238 H238       -2.8243  -16.8062  -51.3057 H         1 UNK         0.0600 
    239 H239       -3.9565  -18.1456  -51.4777 H         1 UNK         0.0600 
    240 H240       -3.5093  -18.6288  -49.4297 H         1 UNK         0.3000 
    241 H241       -2.1052  -17.5104  -47.2110 H         1 UNK         0.0600 
    242 H242       -3.9204  -18.3861  -44.2788 H         1 UNK         0.3800 
    243 H243       -2.3650  -17.8651  -44.8824 H         1 UNK         0.3800 
    244 H244       -1.6767  -19.6807  -48.8304 H         1 UNK         0.0800 
    245 H245       -2.3744  -20.5179  -47.4903 H         1 UNK         0.0800 
    246 H246        0.7532  -19.8288  -49.1051 H         1 UNK         0.0800 
    247 H247        0.4206  -18.1455  -48.7785 H         1 UNK         0.0800 
@<TRIPOS>BOND
     1    1    2 1    
     2    1  127 1    
     3    1  128 1    
     4    1  129 1    
     5    2    3 2    
     6    2    4 am   BACKBONE|DICT|INTERRES
     7    4    5 1    
     8    4  130 1    
     9    5    6 1    
    10    5   65 1    
    11    5  131 1    
    12    6    7 1    
    13    6  132 1    
    14    6  133 1    
    15    7    8 1    
    16    8    9 1    
    17    8  134 1    
    18    8  135 1    
    19    9   10 ar   
    20    9   14 ar   
    21   10   11 ar   
    22   10  136 1    
    23   11   12 ar   
    24   11  126 1    
    25   12   13 ar   
    26   12  137 1    
    27   13   14 ar   
    28   13   15 1    
    29   14  138 1    
    30   15   16 1    
    31   15  139 1    
    32   15  140 1    
    33   16   17 1    
    34   17   18 1    
    35   17  141 1    
    36   17  142 1    
    37   18   19 1    
    38   18   67 1    
    39   18  143 1    
    40   19   20 am   BACKBONE|DICT|INTERRES
    41   19  144 1    
    42   20   21 2    
    43   20   22 1    
    44   22   23 1    
    45   22   24 1    
    46   22  145 1    
    47   23  146 1    
    48   23  147 1    
    49   23  148 1    
    50   24   25 am   BACKBONE|DICT|INTERRES
    51   24  149 1    
    52   25   26 2    
    53   25   27 1    
    54   27   28 1    
    55   27   29 1    
    56   27  150 1    
    57   28  151 1    
    58   28  152 1    
    59   28  153 1    
    60   29   30 am   BACKBONE|DICT|INTERRES
    61   29  154 1    
    62   30   31 2    
    63   30   32 1    
    64   32   33 1    
    65   32   34 1    
    66   32  155 1    
    67   33  156 1    
    68   33  157 1    
    69   33  158 1    
    70   34   35 am   BACKBONE|DICT|INTERRES
    71   34  159 1    
    72   35   36 2    
    73   35   37 1    
    74   37   38 1    
    75   37   39 1    
    76   37  160 1    
    77   38  161 1    
    78   38  162 1    
    79   38  163 1    
    80   39   40 am   BACKBONE|DICT|INTERRES
    81   39  164 1    
    82   40   41 2    
    83   40   42 1    
    84   42   43 1    
    85   42   44 1    
    86   42  165 1    
    87   43  166 1    
    88   43  167 1    
    89   43  168 1    
    90   44   45 am   BACKBONE|DICT|INTERRES
    91   44  169 1    
    92   45   46 2    
    93   45   47 1    
    94   47   48 1    
    95   47   49 1    
    96   47  170 1    
    97   48  171 1    
    98   48  172 1    
    99   48  173 1    
   100   49   50 am   BACKBONE|DICT|INTERRES
   101   49  174 1    
   102   50   51 2    
   103   50   52 1    
   104   52   53 1    
   105   52   54 1    
   106   52  175 1    
   107   53  176 1    
   108   53  177 1    
   109   53  178 1    
   110   54   55 am   BACKBONE|DICT|INTERRES
   111   54  179 1    
   112   55   56 2    
   113   55   57 1    
   114   57   58 1    
   115   57   59 1    
   116   57  180 1    
   117   58  181 1    
   118   58  182 1    
   119   58  183 1    
   120   59   60 am   BACKBONE|DICT|INTERRES
   121   59  184 1    
   122   60   61 2    
   123   60   62 1    
   124   62   63 1    
   125   62   64 1    
   126   62  185 1    
   127   63  186 1    
   128   63  187 1    
   129   63  188 1    
   130   64   65 am   BACKBONE|DICT|INTERRES
   131   64  189 1    
   132   65   66 2    
   133   67   68 2    
   134   67   69 am   BACKBONE|DICT|INTERRES
   135   69   70 1    
   136   69  190 1    
   137   70   71 1    
   138   70   72 1    
   139   70  191 1    
   140   71  192 1    
   141   71  193 1    
   142   71  194 1    
   143   72   73 2    
   144   72   74 am   BACKBONE|DICT|INTERRES
   145   74   75 1    
   146   74  195 1    
   147   75   76 1    
   148   75   77 1    
   149   75  196 1    
   150   76  197 1    
   151   76  198 1    
   152   76  199 1    
   153   77   78 2    
   154   77   79 am   BACKBONE|DICT|INTERRES
   155   79   80 1    
   156   79  200 1    
   157   80   81 1    
   158   80   82 1    
   159   80  201 1    
   160   81  202 1    
   161   81  203 1    
   162   81  204 1    
   163   82   83 2    
   164   82   84 am   BACKBONE|DICT|INTERRES
   165   84   85 1    
   166   84  205 1    
   167   85   86 1    
   168   85   87 1    
   169   85  206 1    
   170   86  207 1    
   171   86  208 1    
   172   86  209 1    
   173   87   88 2    
   174   87   89 am   BACKBONE|DICT|INTERRES
   175   89   90 1    
   176   89  210 1    
   177   90   91 1    
   178   90   92 1    
   179   90  211 1    
   180   91  212 1    
   181   91  213 1    
   182   91  214 1    
   183   92   93 2    
   184   92   94 am   BACKBONE|DICT|INTERRES
   185   94   95 1    
   186   94  215 1    
   187   95   96 1    
   188   95   97 1    
   189   95  216 1    
   190   96  217 1    
   191   96  218 1    
   192   96  219 1    
   193   97   98 2    
   194   97   99 am   BACKBONE|DICT|INTERRES
   195   99  100 1    
   196   99  220 1    
   197  100  101 1    
   198  100  102 1    
   199  100  221 1    
   200  101  222 1    
   201  101  223 1    
   202  101  224 1    
   203  102  103 2    
   204  102  104 am   BACKBONE|DICT|INTERRES
   205  104  105 1    
   206  104  225 1    
   207  105  106 1    
   208  105  107 1    
   209  105  226 1    
   210  106  227 1    
   211  106  228 1    
   212  106  229 1    
   213  107  108 2    
   214  107  109 am   BACKBONE|DICT|INTERRES
   215  109  110 1    
   216  109  230 1    
   217  110  111 1    
   218  110  112 1    
   219  110  231 1    
   220  111  232 1    
   221  111  233 1    
   222  111  234 1    
   223  112  113 2    
   224  112  114 am   BACKBONE|DICT|INTERRES
   225  114  115 1    
   226  114  235 1    
   227  115  116 1    
   228  115  117 1    
   229  115  236 1    
   230  116  237 1    
   231  116  238 1    
   232  116  239 1    
   233  117  118 2    
   234  117  119 am   BACKBONE|DICT|INTERRES
   235  119  120 1    
   236  119  240 1    
   237  120  121 1    
   238  120  124 1    
   239  120  241 1    
   240  121  122 am   BACKBONE|DICT|INTERRES
   241  121  123 2    
   242  122  242 1    
   243  122  243 1    
   244  124  125 1    
   245  124  244 1    
   246  124  245 1    
   247  125  126 1    
   248  126  246 1    
   249  126  247 1    
@<TRIPOS>SUBSTRUCTURE
     1 UNK         1 GROUP             0       ****    0 ROOT    
