@<TRIPOS>MOLECULE
3R540
247   249    1
SMALL
USER_CHARGES


@<TRIPOS>ATOM
      1 CA         -4.1365  -13.4953  -39.2088 C.3       0 UNK        -0.1800 
      2 C          -3.6555  -12.6784  -40.4001 C.2       0 UNK         0.5000 
      3 O          -3.3081  -11.5078  -40.2399 O.2       0 UNK        -0.5000 
      4 N          -3.6424  -13.2872  -41.5923 N.am      1 UNK        -0.5000 
      5 CA         -3.1430  -12.6873  -42.8337 C.3       1 UNK         0.1400 
      6 C6         -3.6731  -13.4496  -44.0716 C.3       23 UNK        -0.0398 
      7 S7         -3.7883  -12.3891  -45.5523 S.3       23 UNK        -0.2404 
      8 C8         -5.0817  -13.2517  -46.5016 C.3       23 UNK        -0.0205 
      9 C9         -4.6048  -14.6187  -46.9651 C.ar      23 UNK        -0.0193 
     10 C10        -3.7870  -14.7255  -48.0930 C.ar      23 UNK        -0.1150 
     11 C11        -3.2928  -15.9686  -48.4968 C.ar      23 UNK        -0.0193 
     12 C12        -3.6381  -17.1108  -47.7709 C.ar      23 UNK        -0.1150 
     13 C13        -4.4483  -17.0164  -46.6369 C.ar      23 UNK        -0.0193 
     14 C14        -4.9423  -15.7693  -46.2459 C.ar      23 UNK        -0.1150 
     15 C15        -4.7279  -18.2544  -45.8029 C.3       23 UNK        -0.0205 
     16 S16        -3.5376  -18.3341  -44.4262 S.3       23 UNK        -0.2404 
     17 C17        -3.4541  -20.0952  -43.9402 C.3       23 UNK        -0.0398 
     18 CA         -3.2862  -21.1125  -45.0953 C.3       11 UNK         0.1400 
     19 N          -2.2012  -20.7849  -46.0308 N.am      11 UNK        -0.5000 
     20 C          -2.1262  -21.3141  -47.2604 C.2       10 UNK         0.5000 
     21 O          -2.9630  -22.1035  -47.6961 O.2       10 UNK        -0.5000 
     22 CA         -0.9209  -20.9535  -48.1436 C.3       10 UNK         0.1400 
     23 CB         -1.1371  -19.6351  -48.8941 C.3       10 UNK        -0.1800 
     24 N           0.3529  -20.8988  -47.4347 N.am      10 UNK        -0.5000 
     25 C           0.9599  -21.9543  -46.8789 C.2       9 UNK         0.5000 
     26 O           0.4415  -23.0654  -46.7845 O.2       9 UNK        -0.5000 
     27 CA          2.3833  -21.7303  -46.3476 C.3       9 UNK         0.1400 
     28 CB          3.3848  -21.6637  -47.5119 C.3       9 UNK        -0.1800 
     29 N           2.4559  -20.4919  -45.5769 N.am      9 UNK        -0.5000 
     30 C           2.3913  -20.4252  -44.2404 C.2       8 UNK         0.5000 
     31 O           2.3737  -21.4122  -43.5042 O.2       8 UNK        -0.5000 
     32 CA          2.3085  -19.0172  -43.6130 C.3       8 UNK         0.1400 
     33 CB          3.7100  -18.5049  -43.2468 C.3       8 UNK        -0.1800 
     34 N           1.6497  -18.0223  -44.4626 N.am      8 UNK        -0.5000 
     35 C           0.3911  -18.1064  -44.9164 C.2       7 UNK         0.5000 
     36 O          -0.3613  -19.0472  -44.6690 O.2       7 UNK        -0.5000 
     37 CA         -0.0781  -16.9869  -45.8642 C.3       7 UNK         0.1400 
     38 CB         -0.6683  -15.8185  -45.0640 C.3       7 UNK        -0.1800 
     39 N           0.9692  -16.4760  -46.7556 N.am      7 UNK        -0.5000 
     40 C           1.7326  -17.2020  -47.5893 C.2       6 UNK         0.5000 
     41 O           1.6852  -18.4312  -47.6553 O.2       6 UNK        -0.5000 
     42 CA          2.7500  -16.4356  -48.4575 C.3       6 UNK         0.1400 
     43 CB          2.9852  -17.1038  -49.8284 C.3       6 UNK        -0.1800 
     44 N           2.4365  -15.0072  -48.5807 N.am      6 UNK        -0.5000 
     45 C           1.4318  -14.4372  -49.2659 C.2       5 UNK         0.5000 
     46 O           0.6646  -15.0650  -49.9923 O.2       5 UNK        -0.5000 
     47 CA          1.2122  -12.9191  -49.0825 C.3       5 UNK         0.1400 
     48 CB         -0.2296  -12.6289  -48.6279 C.3       5 UNK        -0.1800 
     49 N           2.1366  -12.3270  -48.1119 N.am      5 UNK        -0.5000 
     50 C           3.3774  -11.9027  -48.3962 C.2       4 UNK         0.5000 
     51 O           3.8454  -11.8861  -49.5347 O.2       4 UNK        -0.5000 
     52 CA          4.2626  -11.4562  -47.2125 C.3       4 UNK         0.1400 
     53 CB          4.2422   -9.9260  -47.0768 C.3       4 UNK        -0.1800 
     54 N           3.8787  -12.0482  -45.9285 N.am      4 UNK        -0.5000 
     55 C           3.8778  -13.3572  -45.6366 C.2       3 UNK         0.5000 
     56 O           4.2808  -14.2267  -46.4081 O.2       3 UNK        -0.5000 
     57 CA          3.2611  -13.7737  -44.2859 C.3       3 UNK         0.1400 
     58 CB          4.3604  -14.0659  -43.2546 C.3       3 UNK        -0.1800 
     59 N           2.3266  -12.7869  -43.7329 N.am      3 UNK        -0.5000 
     60 C           1.1756  -12.4141  -44.3091 C.2       2 UNK         0.5000 
     61 O           0.7827  -12.8506  -45.3933 O.2       2 UNK        -0.5000 
     62 CA          0.3785  -11.3114  -43.5915 C.3       2 UNK         0.1400 
     63 CB          0.5817   -9.9659  -44.3055 C.3       2 UNK        -0.1800 
     64 N          -1.0526  -11.6022  -43.5240 N.am      2 UNK        -0.5000 
     65 C          -1.5992  -12.6021  -42.8213 C.2       1 UNK         0.5000 
     66 O          -0.9413  -13.4223  -42.1746 O.2       1 UNK        -0.5000 
     67 C          -3.1540  -22.5510  -44.5568 C.2       11 UNK         0.5000 
     68 O          -4.1736  -23.2122  -44.3551 O.2       11 UNK        -0.5000 
     69 N          -1.9099  -23.0259  -44.3875 N.am      12 UNK        -0.5000 
     70 CA         -1.5955  -24.4100  -44.0279 C.3       12 UNK         0.1400 
     71 CB         -0.1152  -24.5217  -43.6324 C.3       12 UNK        -0.1800 
     72 C          -1.9493  -25.3952  -45.1583 C.2       12 UNK         0.5000 
     73 O          -2.4666  -26.4780  -44.8819 O.2       12 UNK        -0.5000 
     74 N          -1.7375  -24.9772  -46.4137 N.am      13 UNK        -0.5000 
     75 CA         -2.1328  -25.6719  -47.6413 C.3       13 UNK         0.1400 
     76 CB         -1.2723  -25.1490  -48.8049 C.3       13 UNK        -0.1800 
     77 C          -3.6459  -25.5524  -47.9365 C.2       13 UNK         0.5000 
     78 O          -4.0288  -25.2198  -49.0594 O.2       13 UNK        -0.5000 
     79 N          -4.4742  -25.8260  -46.9178 N.am      14 UNK        -0.5000 
     80 CA         -5.9394  -25.8953  -46.9299 C.3       14 UNK         0.1400 
     81 CB         -6.3925  -27.2154  -47.5848 C.3       14 UNK        -0.1800 
     82 C          -6.6274  -24.6518  -47.5344 C.2       14 UNK         0.5000 
     83 O          -7.5718  -24.7887  -48.3137 O.2       14 UNK        -0.5000 
     84 N          -6.1325  -23.4644  -47.1548 N.am      15 UNK        -0.5000 
     85 CA         -6.5572  -22.1440  -47.6314 C.3       15 UNK         0.1400 
     86 CB         -8.0077  -21.8336  -47.2050 C.3       15 UNK        -0.1800 
     87 C          -6.3064  -21.9625  -49.1426 C.2       15 UNK         0.5000 
     88 O          -7.2413  -21.7334  -49.9125 O.2       15 UNK        -0.5000 
     89 N          -5.0237  -22.0558  -49.5157 N.am      16 UNK        -0.5000 
     90 CA         -4.4496  -21.8194  -50.8409 C.3       16 UNK         0.1400 
     91 CB         -4.6568  -20.3463  -51.2547 C.3       16 UNK        -0.1800 
     92 C          -4.9245  -22.8297  -51.9051 C.2       16 UNK         0.5000 
     93 O          -5.1367  -22.4574  -53.0617 O.2       16 UNK        -0.5000 
     94 N          -5.0757  -24.1001  -51.5066 N.am      17 UNK        -0.5000 
     95 CA         -5.5708  -25.1959  -52.3397 C.3       17 UNK         0.1400 
     96 CB         -6.1515  -26.2929  -51.4320 C.3       17 UNK        -0.1800 
     97 C          -4.4847  -25.7369  -53.2911 C.2       17 UNK         0.5000 
     98 O          -4.0182  -26.8658  -53.1262 O.2       17 UNK        -0.5000 
     99 N          -4.0964  -24.9074  -54.2683 N.am      18 UNK        -0.5000 
    100 CA        -3.1917  -25.1576  -55.4005 C.3       18 UNK         0.1400 
    101 CB        -3.7158  -26.3017  -56.2891 C.3       18 UNK        -0.1800 
    102 C         -1.7091  -25.3823  -55.0383 C.2       18 UNK         0.5000 
    103 O         -0.8397  -24.8708  -55.7442 O.2       18 UNK        -0.5000 
    104 N         -1.4387  -26.1299  -53.9605 N.am      19 UNK        -0.5000 
    105 CA        -0.1009  -26.5111  -53.4937 C.3       19 UNK         0.1400 
    106 CB        -0.2422  -27.5375  -52.3595 C.3       19 UNK        -0.1800 
    107 C          0.7676  -25.3201  -53.0434 C.2       19 UNK         0.5000 
    108 O          1.9914  -25.3741  -53.1717 O.2       19 UNK        -0.5000 
    109 N          0.1146  -24.2630  -52.5533 N.am      20 UNK        -0.5000 
    110 CA         0.7067  -22.9761  -52.2179 C.3       20 UNK         0.1400 
    111 CB         1.2590  -22.9900  -50.7793 C.3       20 UNK        -0.1800 
    112 C         -0.3822  -21.9236  -52.4459 C.2       20 UNK         0.5000 
    113 O         -0.9714  -21.4210  -51.4911 O.2       20 UNK        -0.5000 
    114 N         -0.6821  -21.6507  -53.7210 N.am      21 UNK        -0.5000 
    115 CA        -1.7495  -20.7552  -54.1796 C.3       21 UNK         0.1400 
    116 CB        -2.0733  -21.0981  -55.6445 C.3       21 UNK        -0.1800 
    117 C         -1.4289  -19.2533  -53.9822 C.2       21 UNK         0.5000 
    118 O         -1.5387  -18.4743  -54.9309 O.2       21 UNK        -0.5000 
    119 N         -1.0155  -18.8773  -52.7643 N.am      22 UNK        -0.5000 
    120 CA        -0.5754  -17.5248  -52.3690 C.3       22 UNK         0.1400 
    121 C          0.6871  -17.0212  -53.1404 C.2       22 UNK         0.5000 
    122 N          1.5881  -17.9057  -53.5528 N.am      22 UNK        -0.7600 
    123 O          0.8675  -15.8278  -53.3674 O.2       22 UNK        -0.5000 
    124 C124       -1.7356  -16.4883  -52.3509 C.3       23 UNK        -0.0398 
    125 S125       -3.0316  -16.8818  -51.1240 S.3       23 UNK        -0.2404 
    126 C126       -2.3236  -16.0595  -49.6638 C.3       23 UNK        -0.0205 
    127 H127       -4.4220  -14.5068  -39.4989 H         1 UNK         0.0600 
    128 H128       -5.0016  -13.0165  -38.7499 H         1 UNK         0.0600 
    129 H129       -3.3476  -13.5665  -38.4601 H         1 UNK         0.0600 
    130 H130       -3.9029  -14.2611  -41.6489 H         1 UNK         0.3000 
    131 H131       -3.5346  -11.6677  -42.8669 H         1 UNK         0.0600 
    132 H132       -3.0709  -14.3308  -44.2957 H         1 UNK         0.0800 
    133 H133       -4.6778  -13.8214  -43.8654 H         1 UNK         0.0800 
    134 H134       -5.9874  -13.3402  -45.8996 H         1 UNK         0.0800 
    135 H135       -5.3495  -12.6452  -47.3680 H         1 UNK         0.0800 
    136 H136       -3.5085  -13.8323  -48.6346 H         1 UNK         0.1150 
    137 H137       -3.2561  -18.0730  -48.0715 H         1 UNK         0.1150 
    138 H138       -5.5564  -15.6921  -45.3598 H         1 UNK         0.1150 
    139 H139       -5.7452  -18.2314  -45.4099 H         1 UNK         0.0800 
    140 H140       -4.6579  -19.1315  -46.4431 H         1 UNK         0.0800 
    141 H141       -4.3548  -20.3244  -43.3680 H         1 UNK         0.0800 
    142 H142       -2.6216  -20.1877  -43.2403 H         1 UNK         0.0800 
    143 H143       -4.2194  -21.1086  -45.6556 H         1 UNK         0.0600 
    144 H144       -1.4825  -20.1496  -45.6906 H         1 UNK         0.3000 
    145 H145       -0.8396  -21.7430  -48.8905 H         1 UNK         0.0600 
    146 H146       -0.3420  -19.4671  -49.6203 H         1 UNK         0.0600 
    147 H147       -2.0794  -19.6418  -49.4425 H         1 UNK         0.0600 
    148 H148       -1.1422  -18.7867  -48.2152 H         1 UNK         0.0600 
    149 H149        0.8520  -20.0134  -47.4829 H         1 UNK         0.3000 
    150 H150        2.6486  -22.5866  -45.7239 H         1 UNK         0.0600 
    151 H151        3.3443  -22.5727  -48.1136 H         1 UNK         0.0600 
    152 H152        4.4061  -21.5610  -47.1451 H         1 UNK         0.0600 
    153 H153        3.1822  -20.8217  -48.1755 H         1 UNK         0.0600 
    154 H154        2.4147  -19.6305  -46.1083 H         1 UNK         0.3000 
    155 H155        1.7236  -19.1040  -42.6950 H         1 UNK         0.0600 
    156 H156        4.2235  -19.2080  -42.5896 H         1 UNK         0.0600 
    157 H157        3.6580  -17.5506  -42.7219 H         1 UNK         0.0600 
    158 H158        4.3323  -18.3685  -44.1321 H         1 UNK         0.0600 
    159 H159        2.2044  -17.2283  -44.7426 H         1 UNK         0.3000 
    160 H160       -0.8740  -17.3955  -46.4864 H         1 UNK         0.0600 
    161 H161        0.0824  -15.3403  -44.4345 H         1 UNK         0.0600 
    162 H162       -1.4697  -16.1597  -44.4087 H         1 UNK         0.0600 
    163 H163       -1.0902  -15.0595  -45.7238 H         1 UNK         0.0600 
    164 H164        1.0825  -15.4732  -46.7727 H         1 UNK         0.3000 
    165 H165        3.6939  -16.4825  -47.9134 H         1 UNK         0.0600 
    166 H166        2.0572  -17.2291  -50.3848 H         1 UNK         0.0600 
    167 H167        3.6707  -16.5200  -50.4425 H         1 UNK         0.0600 
    168 H168        3.4219  -18.0957  -49.7072 H         1 UNK         0.0600 
    169 H169        3.0201  -14.4064  -48.0092 H         1 UNK         0.3000 
    170 H170        1.3603  -12.4471  -50.0558 H         1 UNK         0.0600 
    171 H171       -0.9465  -12.9184  -49.3965 H         1 UNK         0.0600 
    172 H172       -0.4874  -13.1757  -47.7201 H         1 UNK         0.0600 
    173 H173       -0.3790  -11.5668  -48.4329 H         1 UNK         0.0600 
    174 H174        1.8213  -12.3252  -47.1478 H         1 UNK         0.3000 
    175 H175        5.2852  -11.7700  -47.4316 H         1 UNK         0.0600 
    176 H176        3.2452   -9.5575  -46.8316 H         1 UNK         0.0600 
    177 H177        4.9267   -9.5890  -46.2981 H         1 UNK         0.0600 
    178 H178        4.5499   -9.4466  -48.0071 H         1 UNK         0.0600 
    179 H179        3.5322  -11.4105  -45.2278 H         1 UNK         0.3000 
    180 H180        2.7031  -14.6962  -44.4583 H         1 UNK         0.0600 
    181 H181        4.9399  -13.1723  -43.0196 H         1 UNK         0.0600 
    182 H182        5.0554  -14.8201  -43.6267 H         1 UNK         0.0600 
    183 H183        3.9380  -14.4479  -42.3250 H         1 UNK         0.0600 
    184 H184        2.5868  -12.3733  -42.8489 H         1 UNK         0.3000 
    185 H185        0.7474  -11.2169  -42.5680 H         1 UNK         0.0600 
    186 H186        1.6386   -9.6993  -44.3477 H         1 UNK         0.0600 
    187 H187        0.2097   -9.9943  -45.3308 H         1 UNK         0.0600 
    188 H188        0.0660   -9.1596  -43.7835 H         1 UNK         0.0600 
    189 H189       -1.6554  -11.0080  -44.0746 H         1 UNK         0.3000 
    190 H190       -1.1296  -22.4271  -44.6160 H         1 UNK         0.3000 
    191 H191       -2.1972  -24.6763  -43.1563 H         1 UNK         0.0600 
    192 H192        0.5491  -24.2743  -44.4600 H         1 UNK         0.0600 
    193 H193        0.1233  -23.8553  -42.8033 H         1 UNK         0.0600 
    194 H194        0.1256  -25.5365  -43.3135 H         1 UNK         0.0600 
    195 H195       -1.2595  -24.0917  -46.5454 H         1 UNK         0.3000 
    196 H196       -1.9156  -26.7349  -47.5205 H         1 UNK         0.0600 
    197 H197       -0.2086  -25.2607  -48.5939 H         1 UNK         0.0600 
    198 H198       -1.4693  -24.0948  -48.9987 H         1 UNK         0.0600 
    199 H199       -1.4805  -25.6943  -49.7253 H         1 UNK         0.0600 
    200 H200       -4.0332  -26.0754  -46.0383 H         1 UNK         0.3000 
    201 H201       -6.2498  -25.9268  -45.8845 H         1 UNK         0.0600 
    202 H202       -7.4750  -27.3344  -47.5269 H         1 UNK         0.0600 
    203 H203       -5.9469  -28.0753  -47.0848 H         1 UNK         0.0600 
    204 H204       -6.1121  -27.2597  -48.6361 H         1 UNK         0.0600 
    205 H205       -5.3400  -23.4724  -46.5262 H         1 UNK         0.3000 
    206 H206       -5.9200  -21.4152  -47.1319 H         1 UNK         0.0600 
    207 H207       -8.1311  -21.9347  -46.1268 H         1 UNK         0.0600 
    208 H208       -8.7291  -22.4924  -47.6886 H         1 UNK         0.0600 
    209 H209       -8.2770  -20.8100  -47.4680 H         1 UNK         0.0600 
    210 H210       -4.3329  -22.2605  -48.7938 H         1 UNK         0.3000 
    211 H211       -3.3785  -21.9837  -50.7273 H         1 UNK         0.0600 
    212 H212       -4.3278  -19.6672  -50.4684 H         1 UNK         0.0600 
    213 H213       -4.0897  -20.0960  -52.1488 H         1 UNK         0.0600 
    214 H214       -5.7038  -20.1282  -51.4658 H         1 UNK         0.0600 
    215 H215       -4.8151  -24.3511  -50.5548 H         1 UNK         0.3000 
    216 H216       -6.3889  -24.8205  -52.9579 H         1 UNK         0.0600 
    217 H217       -6.6003  -27.0920  -52.0230 H         1 UNK         0.0600 
    218 H218       -5.3814  -26.7427  -50.8054 H         1 UNK         0.0600 
    219 H219       -6.9281  -25.8956  -50.7785 H         1 UNK         0.0600 
    220 H220       -4.4939  -23.9731  -54.2351 H         1 UNK         0.3000 
    221 H221       -3.2287  -24.2506  -56.0038 H         1 UNK         0.0600 
    222 H222       -3.7023  -27.2612  -55.7714 H         1 UNK         0.0600 
    223 H223       -4.7381  -26.1108  -56.6158 H         1 UNK         0.0600 
    224 H224       -3.1037  -26.4089  -57.1855 H         1 UNK         0.0600 
    225 H225       -2.2340  -26.5272  -53.4658 H         1 UNK         0.3000 
    226 H226        0.4154  -26.9925  -54.3267 H         1 UNK         0.0600 
    227 H227       -0.7622  -28.4325  -52.7016 H         1 UNK         0.0600 
    228 H228        0.7349  -27.8510  -51.9895 H         1 UNK         0.0600 
    229 H229       -0.7991  -27.1301  -51.5158 H         1 UNK         0.0600 
    230 H230       -0.8935  -24.3069  -52.5054 H         1 UNK         0.3000 
    231 H231        1.5279  -22.7541  -52.9028 H         1 UNK         0.0600 
    232 H232        1.6298  -22.0055  -50.4911 H         1 UNK         0.0600 
    233 H233        2.0873  -23.6916  -50.6823 H         1 UNK         0.0600 
    234 H234        0.4971  -23.2774  -50.0575 H         1 UNK         0.0600 
    235 H235       -0.1548  -22.1144  -54.4474 H         1 UNK         0.3000 
    236 H236       -2.6424  -20.9743  -53.5948 H         1 UNK         0.0600 
    237 H237       -2.3338  -22.1489  -55.7541 H         1 UNK         0.0600 
    238 H238       -2.9228  -20.5171  -56.0059 H         1 UNK         0.0600 
    239 H239       -1.2278  -20.8933  -56.3023 H         1 UNK         0.0600 
    240 H240       -0.9645  -19.5976  -52.0498 H         1 UNK         0.3000 
    241 H241       -0.2275  -17.6204  -51.3404 H         1 UNK         0.0600 
    242 H242        2.4027  -17.5834  -54.0510 H         1 UNK         0.3800 
    243 H243        1.4583  -18.8899  -53.3875 H         1 UNK         0.3800 
    244 H244       -1.3580  -15.4883  -52.1322 H         1 UNK         0.0800 
    245 H245       -2.1996  -16.4164  -53.3349 H         1 UNK         0.0800 
    246 H246       -1.9954  -15.0587  -49.9447 H         1 UNK         0.0800 
    247 H247       -1.4300  -16.5971  -49.3452 H         1 UNK         0.0800 
@<TRIPOS>BOND
     1    1    2 1    
     2    1  127 1    
     3    1  128 1    
     4    1  129 1    
     5    2    3 2    
     6    2    4 am   BACKBONE|DICT|INTERRES
     7    4    5 1    
     8    4  130 1    
     9    5    6 1    
    10    5   65 1    
    11    5  131 1    
    12    6    7 1    
    13    6  132 1    
    14    6  133 1    
    15    7    8 1    
    16    8    9 1    
    17    8  134 1    
    18    8  135 1    
    19    9   10 ar   
    20    9   14 ar   
    21   10   11 ar   
    22   10  136 1    
    23   11   12 ar   
    24   11  126 1    
    25   12   13 ar   
    26   12  137 1    
    27   13   14 ar   
    28   13   15 1    
    29   14  138 1    
    30   15   16 1    
    31   15  139 1    
    32   15  140 1    
    33   16   17 1    
    34   17   18 1    
    35   17  141 1    
    36   17  142 1    
    37   18   19 1    
    38   18   67 1    
    39   18  143 1    
    40   19   20 am   BACKBONE|DICT|INTERRES
    41   19  144 1    
    42   20   21 2    
    43   20   22 1    
    44   22   23 1    
    45   22   24 1    
    46   22  145 1    
    47   23  146 1    
    48   23  147 1    
    49   23  148 1    
    50   24   25 am   BACKBONE|DICT|INTERRES
    51   24  149 1    
    52   25   26 2    
    53   25   27 1    
    54   27   28 1    
    55   27   29 1    
    56   27  150 1    
    57   28  151 1    
    58   28  152 1    
    59   28  153 1    
    60   29   30 am   BACKBONE|DICT|INTERRES
    61   29  154 1    
    62   30   31 2    
    63   30   32 1    
    64   32   33 1    
    65   32   34 1    
    66   32  155 1    
    67   33  156 1    
    68   33  157 1    
    69   33  158 1    
    70   34   35 am   BACKBONE|DICT|INTERRES
    71   34  159 1    
    72   35   36 2    
    73   35   37 1    
    74   37   38 1    
    75   37   39 1    
    76   37  160 1    
    77   38  161 1    
    78   38  162 1    
    79   38  163 1    
    80   39   40 am   BACKBONE|DICT|INTERRES
    81   39  164 1    
    82   40   41 2    
    83   40   42 1    
    84   42   43 1    
    85   42   44 1    
    86   42  165 1    
    87   43  166 1    
    88   43  167 1    
    89   43  168 1    
    90   44   45 am   BACKBONE|DICT|INTERRES
    91   44  169 1    
    92   45   46 2    
    93   45   47 1    
    94   47   48 1    
    95   47   49 1    
    96   47  170 1    
    97   48  171 1    
    98   48  172 1    
    99   48  173 1    
   100   49   50 am   BACKBONE|DICT|INTERRES
   101   49  174 1    
   102   50   51 2    
   103   50   52 1    
   104   52   53 1    
   105   52   54 1    
   106   52  175 1    
   107   53  176 1    
   108   53  177 1    
   109   53  178 1    
   110   54   55 am   BACKBONE|DICT|INTERRES
   111   54  179 1    
   112   55   56 2    
   113   55   57 1    
   114   57   58 1    
   115   57   59 1    
   116   57  180 1    
   117   58  181 1    
   118   58  182 1    
   119   58  183 1    
   120   59   60 am   BACKBONE|DICT|INTERRES
   121   59  184 1    
   122   60   61 2    
   123   60   62 1    
   124   62   63 1    
   125   62   64 1    
   126   62  185 1    
   127   63  186 1    
   128   63  187 1    
   129   63  188 1    
   130   64   65 am   BACKBONE|DICT|INTERRES
   131   64  189 1    
   132   65   66 2    
   133   67   68 2    
   134   67   69 am   BACKBONE|DICT|INTERRES
   135   69   70 1    
   136   69  190 1    
   137   70   71 1    
   138   70   72 1    
   139   70  191 1    
   140   71  192 1    
   141   71  193 1    
   142   71  194 1    
   143   72   73 2    
   144   72   74 am   BACKBONE|DICT|INTERRES
   145   74   75 1    
   146   74  195 1    
   147   75   76 1    
   148   75   77 1    
   149   75  196 1    
   150   76  197 1    
   151   76  198 1    
   152   76  199 1    
   153   77   78 2    
   154   77   79 am   BACKBONE|DICT|INTERRES
   155   79   80 1    
   156   79  200 1    
   157   80   81 1    
   158   80   82 1    
   159   80  201 1    
   160   81  202 1    
   161   81  203 1    
   162   81  204 1    
   163   82   83 2    
   164   82   84 am   BACKBONE|DICT|INTERRES
   165   84   85 1    
   166   84  205 1    
   167   85   86 1    
   168   85   87 1    
   169   85  206 1    
   170   86  207 1    
   171   86  208 1    
   172   86  209 1    
   173   87   88 2    
   174   87   89 am   BACKBONE|DICT|INTERRES
   175   89   90 1    
   176   89  210 1    
   177   90   91 1    
   178   90   92 1    
   179   90  211 1    
   180   91  212 1    
   181   91  213 1    
   182   91  214 1    
   183   92   93 2    
   184   92   94 am   BACKBONE|DICT|INTERRES
   185   94   95 1    
   186   94  215 1    
   187   95   96 1    
   188   95   97 1    
   189   95  216 1    
   190   96  217 1    
   191   96  218 1    
   192   96  219 1    
   193   97   98 2    
   194   97   99 am   BACKBONE|DICT|INTERRES
   195   99  100 1    
   196   99  220 1    
   197  100  101 1    
   198  100  102 1    
   199  100  221 1    
   200  101  222 1    
   201  101  223 1    
   202  101  224 1    
   203  102  103 2    
   204  102  104 am   BACKBONE|DICT|INTERRES
   205  104  105 1    
   206  104  225 1    
   207  105  106 1    
   208  105  107 1    
   209  105  226 1    
   210  106  227 1    
   211  106  228 1    
   212  106  229 1    
   213  107  108 2    
   214  107  109 am   BACKBONE|DICT|INTERRES
   215  109  110 1    
   216  109  230 1    
   217  110  111 1    
   218  110  112 1    
   219  110  231 1    
   220  111  232 1    
   221  111  233 1    
   222  111  234 1    
   223  112  113 2    
   224  112  114 am   BACKBONE|DICT|INTERRES
   225  114  115 1    
   226  114  235 1    
   227  115  116 1    
   228  115  117 1    
   229  115  236 1    
   230  116  237 1    
   231  116  238 1    
   232  116  239 1    
   233  117  118 2    
   234  117  119 am   BACKBONE|DICT|INTERRES
   235  119  120 1    
   236  119  240 1    
   237  120  121 1    
   238  120  124 1    
   239  120  241 1    
   240  121  122 am   BACKBONE|DICT|INTERRES
   241  121  123 2    
   242  122  242 1    
   243  122  243 1    
   244  124  125 1    
   245  124  244 1    
   246  124  245 1    
   247  125  126 1    
   248  126  246 1    
   249  126  247 1    
@<TRIPOS>SUBSTRUCTURE
     1 UNK         1 GROUP             0       ****    0 ROOT    
