@<TRIPOS>MOLECULE
3R540
247   249    1
SMALL
USER_CHARGES


@<TRIPOS>ATOM
      1 CA          3.4409  -10.0111  -46.0739 C.3       0 UNK        -0.1800 
      2 C           2.7541  -11.3692  -46.0466 C.2       0 UNK         0.5000 
      3 O           2.0984  -11.7021  -45.0598 O.2       0 UNK        -0.5000 
      4 N           2.9087  -12.1533  -47.1221 N.am      1 UNK        -0.5000 
      5 CA          2.2983  -13.4769  -47.2861 C.3       1 UNK         0.1400 
      6 C6          2.9452  -14.2536  -48.4597 C.3       23 UNK        -0.0398 
      7 S7          2.4615  -16.0120  -48.5067 S.3       23 UNK        -0.2404 
      8 C8          1.8948  -16.1893  -50.2288 C.3       23 UNK        -0.0205 
      9 C9          1.3195  -17.5742  -50.4878 C.ar      23 UNK        -0.0193 
     10 C10         0.0023  -17.7264  -50.9339 C.ar      23 UNK        -0.1150 
     11 C11        -0.5321  -19.0019  -51.1484 C.ar      23 UNK        -0.0193 
     12 C12         0.2609  -20.1265  -50.9069 C.ar      23 UNK        -0.1150 
     13 C13         1.5798  -19.9883  -50.4662 C.ar      23 UNK        -0.0193 
     14 C14         2.1082  -18.7095  -50.2787 C.ar      23 UNK        -0.1150 
     15 C15         2.4208  -21.2218  -50.1605 C.3       23 UNK        -0.0205 
     16 S16         2.9039  -21.3167  -48.4024 S.3       23 UNK        -0.2404 
     17 C17         1.2882  -21.2152  -47.5605 C.3       23 UNK        -0.0398 
     18 CA          0.9570  -22.4724  -46.7277 C.3       11 UNK         0.1400 
     19 N           1.8947  -22.6906  -45.6249 N.am      11 UNK        -0.5000 
     20 C           2.0931  -23.8683  -45.0177 C.2       10 UNK         0.5000 
     21 O           1.5554  -24.9179  -45.3711 O.2       10 UNK        -0.5000 
     22 CA          3.0295  -23.8710  -43.7931 C.3       10 UNK         0.1400 
     23 CB          4.4868  -24.0818  -44.2304 C.3       10 UNK        -0.1800 
     24 N           2.9378  -22.6416  -43.0028 N.am      10 UNK        -0.5000 
     25 C           1.8620  -22.2717  -42.2933 C.2       9 UNK         0.5000 
     26 O           0.8541  -22.9683  -42.1717 O.2       9 UNK        -0.5000 
     27 CA          1.9021  -20.8724  -41.6426 C.3       9 UNK         0.1400 
     28 CB          2.4209  -20.9677  -40.2004 C.3       9 UNK        -0.1800 
     29 N           2.6942  -19.8756  -42.3735 N.am      9 UNK        -0.5000 
     30 C           2.5097  -19.5179  -43.6526 C.2       8 UNK         0.5000 
     31 O           1.6696  -20.0401  -44.3869 O.2       8 UNK        -0.5000 
     32 CA          3.4129  -18.3903  -44.1773 C.3       8 UNK         0.1400 
     33 CB          3.1059  -18.0093  -45.6354 C.3       8 UNK        -0.1800 
     34 N           3.2263  -17.2183  -43.3315 N.am      8 UNK        -0.5000 
     35 C           4.1904  -16.5191  -42.7200 C.2       7 UNK         0.5000 
     36 O           5.3908  -16.7699  -42.8327 O.2       7 UNK        -0.5000 
     37 CA          3.7472  -15.3437  -41.8199 C.3       7 UNK         0.1400 
     38 CB          3.8945  -14.0125  -42.5743 C.3       7 UNK        -0.1800 
     39 N           2.3682  -15.4587  -41.3395 N.am      7 UNK        -0.5000 
     40 C           1.9087  -16.4123  -40.5166 C.2       6 UNK         0.5000 
     41 O           2.6356  -17.2324  -39.9554 O.2       6 UNK        -0.5000 
     42 CA          0.3782  -16.4955  -40.3178 C.3       6 UNK         0.1400 
     43 CB         -0.0171  -15.9046  -38.9560 C.3       6 UNK        -0.1800 
     44 N          -0.4290  -15.8528  -41.3664 N.am      6 UNK        -0.5000 
     45 C          -0.3874  -16.1428  -42.6749 C.2       5 UNK         0.5000 
     46 O           0.3969  -16.9633  -43.1550 O.2       5 UNK        -0.5000 
     47 CA         -1.3401  -15.3421  -43.5891 C.3       5 UNK         0.1400 
     48 CB         -0.9854  -13.8448  -43.5723 C.3       5 UNK        -0.1800 
     49 N          -1.2915  -15.8032  -44.9754 N.am      5 UNK        -0.5000 
     50 C          -1.7169  -16.9920  -45.4162 C.2       4 UNK         0.5000 
     51 O          -2.3635  -17.7870  -44.7311 O.2       4 UNK        -0.5000 
     52 CA         -1.3621  -17.3136  -46.8811 C.3       4 UNK         0.1400 
     53 CB         -1.6375  -18.7807  -47.2592 C.3       4 UNK        -0.1800 
     54 N          -2.0011  -16.3942  -47.8271 N.am      4 UNK        -0.5000 
     55 C          -3.3097  -16.1330  -47.9668 C.2       3 UNK         0.5000 
     56 O          -4.1979  -16.6620  -47.2966 O.2       3 UNK        -0.5000 
     57 CA         -3.6741  -15.0726  -49.0275 C.3       3 UNK         0.1400 
     58 CB         -5.1874  -14.8003  -49.1092 C.3       3 UNK        -0.1800 
     59 N          -2.9840  -13.8159  -48.7378 N.am      3 UNK        -0.5000 
     60 C          -1.7684  -13.4869  -49.1890 C.2       2 UNK         0.5000 
     61 O          -1.1444  -14.1710  -50.0021 O.2       2 UNK        -0.5000 
     62 CA         -1.1125  -12.2094  -48.6133 C.3       2 UNK         0.1400 
     63 CB         -1.8698  -11.5948  -47.4138 C.3       2 UNK        -0.1800 
     64 N           0.2933  -12.4359  -48.2567 N.am      2 UNK        -0.5000 
     65 C           0.7650  -13.3859  -47.4322 C.2       1 UNK         0.5000 
     66 O           0.0531  -14.1633  -46.7963 O.2       1 UNK        -0.5000 
     67 C          -0.4831  -22.3686  -46.1997 C.2       11 UNK         0.5000 
     68 O          -1.3959  -22.8809  -46.8453 O.2       11 UNK        -0.5000 
     69 N          -0.6620  -21.7229  -45.0370 N.am      12 UNK        -0.5000 
     70 CA         -1.9529  -21.4581  -44.3903 C.3       12 UNK         0.1400 
     71 CB         -1.7150  -20.6356  -43.1153 C.3       12 UNK        -0.1800 
     72 C          -2.7712  -22.7229  -44.0628 C.2       12 UNK         0.5000 
     73 O          -3.9974  -22.6486  -43.9858 O.2       12 UNK        -0.5000 
     74 N          -2.0839  -23.8620  -43.9031 N.am      13 UNK        -0.5000 
     75 CA         -2.6783  -25.1877  -43.7363 C.3       13 UNK         0.1400 
     76 CB         -1.5715  -26.1750  -43.3359 C.3       13 UNK        -0.1800 
     77 C          -3.4230  -25.6915  -44.9916 C.2       13 UNK         0.5000 
     78 O          -4.3596  -26.4796  -44.8551 O.2       13 UNK        -0.5000 
     79 N          -3.0006  -25.2365  -46.1792 N.am      14 UNK        -0.5000 
     80 CA         -3.6184  -25.5513  -47.4670 C.3       14 UNK         0.1400 
     81 CB         -2.5160  -25.8592  -48.4934 C.3       14 UNK        -0.1800 
     82 C          -4.4976  -24.3885  -47.9532 C.2       14 UNK         0.5000 
     83 O          -5.6178  -24.6254  -48.4081 O.2       14 UNK        -0.5000 
     84 N          -3.9733  -23.1579  -47.8464 N.am      15 UNK        -0.5000 
     85 CA         -4.5775  -21.8888  -48.2557 C.3       15 UNK         0.1400 
     86 CB         -5.6662  -21.4690  -47.2453 C.3       15 UNK        -0.1800 
     87 C          -5.0555  -21.9346  -49.7209 C.2       15 UNK         0.5000 
     88 O          -4.2233  -22.0520  -50.6194 O.2       15 UNK        -0.5000 
     89 N          -6.3761  -21.8857  -49.9429 N.am      16 UNK        -0.5000 
     90 CA         -7.0287  -21.9376  -51.2548 C.3       16 UNK         0.1400 
     91 CB         -8.5406  -21.7493  -51.0606 C.3       16 UNK        -0.1800 
     92 C          -6.7416  -23.2135  -52.0752 C.2       16 UNK         0.5000 
     93 O          -6.9098  -23.1878  -53.2947 O.2       16 UNK        -0.5000 
     94 N          -6.3048  -24.2959  -51.4142 N.am      17 UNK        -0.5000 
     95 CA         -5.8648  -25.5325  -52.0630 C.3       17 UNK         0.1400 
     96 CB         -5.9276  -26.6843  -51.0472 C.3       17 UNK        -0.1800 
     97 C          -4.4549  -25.4317  -52.6853 C.2       17 UNK         0.5000 
     98 O          -4.0919  -26.3105  -53.4691 O.2       17 UNK        -0.5000 
     99 N          -3.6828  -24.3951  -52.3266 N.am      18 UNK        -0.5000 
    100 CA        -2.3490  -24.1178  -52.8557 C.3       18 UNK         0.1400 
    101 CB        -1.4483  -23.6195  -51.7073 C.3       18 UNK        -0.1800 
    102 C         -2.4310  -23.1598  -54.0660 C.2       18 UNK         0.5000 
    103 O         -3.2227  -23.4015  -54.9798 O.2       18 UNK        -0.5000 
    104 N         -1.5791  -22.1253  -54.0879 N.am      19 UNK        -0.5000 
    105 CA        -1.4346  -21.1633  -55.1823 C.3       19 UNK         0.1400 
    106 CB        -0.1950  -20.2942  -54.9133 C.3       19 UNK        -0.1800 
    107 C         -2.6761  -20.2756  -55.4008 C.2       19 UNK         0.5000 
    108 O         -3.4406  -20.0240  -54.4664 O.2       19 UNK        -0.5000 
    109 N         -2.8123  -19.7661  -56.6335 N.am      20 UNK        -0.5000 
    110 CA        -3.9230  -18.9278  -57.1013 C.3       20 UNK         0.1400 
    111 CB        -3.7537  -18.6710  -58.6065 C.3       20 UNK        -0.1800 
    112 C         -4.0915  -17.5942  -56.3458 C.2       20 UNK         0.5000 
    113 O         -5.2004  -17.0588  -56.3107 O.2       20 UNK        -0.5000 
    114 N         -3.0135  -17.1068  -55.7127 N.am      21 UNK        -0.5000 
    115 CA        -2.9940  -15.9311  -54.8339 C.3       21 UNK         0.1400 
    116 CB        -1.5506  -15.6905  -54.3630 C.3       21 UNK        -0.1800 
    117 C         -3.9382  -16.0403  -53.6170 C.2       21 UNK         0.5000 
    118 O         -4.3562  -15.0146  -53.0791 O.2       21 UNK        -0.5000 
    119 N         -4.2647  -17.2762  -53.2242 N.am      22 UNK        -0.5000 
    120 CA        -5.2199  -17.6117  -52.1633 C.3       22 UNK         0.1400 
    121 C         -6.6804  -17.7865  -52.6762 C.2       22 UNK         0.5000 
    122 N         -6.9749  -17.6109  -53.9599 N.am      22 UNK        -0.7600 
    123 O         -7.5754  -18.0762  -51.8875 O.2       22 UNK        -0.5000 
    124 C124       -4.7475  -18.8565  -51.3752 C.3       23 UNK        -0.0398 
    125 S125       -3.1899  -18.5756  -50.4733 S.3       23 UNK        -0.2404 
    126 C126       -1.9538  -19.1669  -51.6648 C.3       23 UNK        -0.0205 
    127 H127        4.1417   -9.9288  -45.2431 H         1 UNK         0.0600 
    128 H128        2.7018   -9.2157  -45.9779 H         1 UNK         0.0600 
    129 H129        3.9924   -9.8530  -47.0010 H         1 UNK         0.0600 
    130 H130        3.4689  -11.8225  -47.8948 H         1 UNK         0.3000 
    131 H131        2.5005  -14.0369  -46.3697 H         1 UNK         0.0600 
    132 H132        2.7173  -13.7751  -49.4137 H         1 UNK         0.0800 
    133 H133        4.0314  -14.2259  -48.3633 H         1 UNK         0.0800 
    134 H134        1.1527  -15.4197  -50.4438 H         1 UNK         0.0800 
    135 H135        2.7322  -16.0172  -50.9060 H         1 UNK         0.0800 
    136 H136       -0.6133  -16.8545  -51.1081 H         1 UNK         0.1150 
    137 H137       -0.1497  -21.1130  -51.0531 H         1 UNK         0.1150 
    138 H138        3.1256  -18.5985  -49.9306 H         1 UNK         0.1150 
    139 H139        1.8852  -22.1340  -50.4282 H         1 UNK         0.0800 
    140 H140        3.3212  -21.2013  -50.7756 H         1 UNK         0.0800 
    141 H141        1.2887  -20.3190  -46.9395 H         1 UNK         0.0800 
    142 H142        0.5034  -21.0564  -48.3000 H         1 UNK         0.0800 
    143 H143        0.9971  -23.3361  -47.3955 H         1 UNK         0.0600 
    144 H144        2.3185  -21.8582  -45.2360 H         1 UNK         0.3000 
    145 H145        2.7392  -24.7083  -43.1547 H         1 UNK         0.0600 
    146 H146        5.1506  -24.1573  -43.3689 H         1 UNK         0.0600 
    147 H147        4.5925  -25.0045  -44.8026 H         1 UNK         0.0600 
    148 H148        4.8418  -23.2638  -44.8587 H         1 UNK         0.0600 
    149 H149        3.7255  -22.0121  -43.0423 H         1 UNK         0.3000 
    150 H150        0.8777  -20.4995  -41.6067 H         1 UNK         0.0600 
    151 H151        1.8390  -21.6863  -39.6216 H         1 UNK         0.0600 
    152 H152        2.3469  -20.0074  -39.6898 H         1 UNK         0.0600 
    153 H153        3.4634  -21.2864  -40.1683 H         1 UNK         0.0600 
    154 H154        3.3852  -19.3736  -41.8342 H         1 UNK         0.3000 
    155 H155        4.4419  -18.7505  -44.1230 H         1 UNK         0.0600 
    156 H156        3.7629  -17.2094  -45.9763 H         1 UNK         0.0600 
    157 H157        2.0758  -17.6694  -45.7540 H         1 UNK         0.0600 
    158 H158        3.2542  -18.8573  -46.3047 H         1 UNK         0.0600 
    159 H159        2.2517  -16.9756  -43.1613 H         1 UNK         0.3000 
    160 H160        4.4084  -15.3252  -40.9512 H         1 UNK         0.0600 
    161 H161        3.2396  -13.9692  -43.4460 H         1 UNK         0.0600 
    162 H162        4.9175  -13.8726  -42.9261 H         1 UNK         0.0600 
    163 H163        3.6546  -13.1647  -41.9323 H         1 UNK         0.0600 
    164 H164        1.6958  -14.8289  -41.7507 H         1 UNK         0.3000 
    165 H165        0.1192  -17.5563  -40.3173 H         1 UNK         0.0600 
    166 H166        0.1858  -14.8339  -38.9091 H         1 UNK         0.0600 
    167 H167       -1.0771  -16.0562  -38.7514 H         1 UNK         0.0600 
    168 H168        0.5384  -16.3796  -38.1461 H         1 UNK         0.0600 
    169 H169       -1.0857  -15.1547  -41.0484 H         1 UNK         0.3000 
    170 H170       -2.3584  -15.4727  -43.2182 H         1 UNK         0.0600 
    171 H171       -1.0762  -13.4207  -42.5720 H         1 UNK         0.0600 
    172 H172        0.0365  -13.6704  -43.9133 H         1 UNK         0.0600 
    173 H173       -1.6513  -13.2765  -44.2220 H         1 UNK         0.0600 
    174 H174       -0.7789  -15.2085  -45.6260 H         1 UNK         0.3000 
    175 H175       -0.2868  -17.1545  -46.9796 H         1 UNK         0.0600 
    176 H176       -1.2561  -19.0085  -48.2538 H         1 UNK         0.0600 
    177 H177       -1.1355  -19.4506  -46.5639 H         1 UNK         0.0600 
    178 H178       -2.7016  -19.0168  -47.2385 H         1 UNK         0.0600 
    179 H179       -1.3625  -15.8620  -48.4043 H         1 UNK         0.3000 
    180 H180       -3.3572  -15.4598  -49.9987 H         1 UNK         0.0600 
    181 H181       -5.4160  -14.0986  -49.9116 H         1 UNK         0.0600 
    182 H182       -5.7406  -15.7174  -49.3147 H         1 UNK         0.0600 
    183 H183       -5.5742  -14.3853  -48.1778 H         1 UNK         0.0600 
    184 H184       -3.4122  -13.2244  -48.0407 H         1 UNK         0.3000 
    185 H185       -1.1140  -11.4760  -49.4207 H         1 UNK         0.0600 
    186 H186       -1.3533  -10.7101  -47.0411 H         1 UNK         0.0600 
    187 H187       -2.8745  -11.2787  -47.6967 H         1 UNK         0.0600 
    188 H188       -1.9584  -12.2958  -46.5829 H         1 UNK         0.0600 
    189 H189        0.9623  -11.8515  -48.7363 H         1 UNK         0.3000 
    190 H190        0.1493  -21.2865  -44.6098 H         1 UNK         0.3000 
    191 H191       -2.5444  -20.8552  -45.0820 H         1 UNK         0.0600 
    192 H192       -2.6585  -20.2643  -42.7140 H         1 UNK         0.0600 
    193 H193       -1.0820  -19.7688  -43.3095 H         1 UNK         0.0600 
    194 H194       -1.2424  -21.2326  -42.3360 H         1 UNK         0.0600 
    195 H195       -1.0753  -23.8164  -43.9452 H         1 UNK         0.3000 
    196 H196       -3.4025  -25.1333  -42.9209 H         1 UNK         0.0600 
    197 H197       -1.9785  -27.1734  -43.1705 H         1 UNK         0.0600 
    198 H198       -1.0824  -25.8660  -42.4117 H         1 UNK         0.0600 
    199 H199       -0.8060  -26.2551  -44.1091 H         1 UNK         0.0600 
    200 H200       -2.2579  -24.5464  -46.1986 H         1 UNK         0.3000 
    201 H201       -4.2529  -26.4360  -47.3812 H         1 UNK         0.0600 
    202 H202       -1.9491  -26.7442  -48.2044 H         1 UNK         0.0600 
    203 H203       -1.8125  -25.0319  -48.5909 H         1 UNK         0.0600 
    204 H204       -2.9371  -26.0503  -49.4811 H         1 UNK         0.0600 
    205 H205       -3.0197  -23.0794  -47.4970 H         1 UNK         0.3000 
    206 H206       -3.7837  -21.1411  -48.2192 H         1 UNK         0.0600 
    207 H207       -5.2423  -21.3603  -46.2468 H         1 UNK         0.0600 
    208 H208       -6.1023  -20.5054  -47.5122 H         1 UNK         0.0600 
    209 H209       -6.4731  -22.1997  -47.1792 H         1 UNK         0.0600 
    210 H210       -6.9889  -21.8341  -49.1423 H         1 UNK         0.3000 
    211 H211       -6.6573  -21.0959  -51.8413 H         1 UNK         0.0600 
    212 H212       -8.9690  -22.5433  -50.4477 H         1 UNK         0.0600 
    213 H213       -9.0624  -21.7548  -52.0185 H         1 UNK         0.0600 
    214 H214       -8.7601  -20.7950  -50.5809 H         1 UNK         0.0600 
    215 H215       -6.1895  -24.2456  -50.4073 H         1 UNK         0.3000 
    216 H216       -6.5606  -25.7647  -52.8720 H         1 UNK         0.0600 
    217 H217       -5.7004  -27.6380  -51.5251 H         1 UNK         0.0600 
    218 H218       -6.9211  -26.7707  -50.6068 H         1 UNK         0.0600 
    219 H219       -5.2118  -26.5484  -50.2373 H         1 UNK         0.0600 
    220 H220       -4.0651  -23.6820  -51.7125 H         1 UNK         0.3000 
    221 H221       -1.9047  -25.0430  -53.2278 H         1 UNK         0.0600 
    222 H222       -1.8071  -22.6804  -51.2881 H         1 UNK         0.0600 
    223 H223       -1.4174  -24.3474  -50.8976 H         1 UNK         0.0600 
    224 H224       -0.4190  -23.4755  -52.0376 H         1 UNK         0.0600 
    225 H225       -0.9722  -21.9910  -53.2947 H         1 UNK         0.3000 
    226 H226       -1.2625  -21.7340  -56.0972 H         1 UNK         0.0600 
    227 H227        0.7011  -20.9062  -54.8080 H         1 UNK         0.0600 
    228 H228       -0.0140  -19.5997  -55.7345 H         1 UNK         0.0600 
    229 H229       -0.3025  -19.7024  -54.0049 H         1 UNK         0.0600 
    230 H230       -2.1223  -20.0057  -57.3310 H         1 UNK         0.3000 
    231 H231       -4.8436  -19.4961  -56.9536 H         1 UNK         0.0600 
    232 H232       -4.5790  -18.0741  -58.9973 H         1 UNK         0.0600 
    233 H233       -3.7380  -19.6054  -59.1678 H         1 UNK         0.0600 
    234 H234       -2.8294  -18.1330  -58.8210 H         1 UNK         0.0600 
    235 H235       -2.1466  -17.6150  -55.8025 H         1 UNK         0.3000 
    236 H236       -3.3164  -15.0697  -55.4221 H         1 UNK         0.0600 
    237 H237       -1.1633  -16.5407  -53.8000 H         1 UNK         0.0600 
    238 H238       -0.8835  -15.5138  -55.2068 H         1 UNK         0.0600 
    239 H239       -1.4907  -14.8154  -53.7141 H         1 UNK         0.0600 
    240 H240       -3.8966  -18.0671  -53.7402 H         1 UNK         0.3000 
    241 H241       -5.2624  -16.7794  -51.4595 H         1 UNK         0.0600 
    242 H242       -7.9294  -17.7224  -54.2623 H         1 UNK         0.3800 
    243 H243       -6.2655  -17.3573  -54.6385 H         1 UNK         0.3800 
    244 H244       -4.6398  -19.7180  -52.0359 H         1 UNK         0.0800 
    245 H245       -5.4914  -19.1324  -50.6268 H         1 UNK         0.0800 
    246 H246       -2.1667  -20.2105  -51.9005 H         1 UNK         0.0800 
    247 H247       -2.0455  -18.6117  -52.5963 H         1 UNK         0.0800 
@<TRIPOS>BOND
     1    1    2 1    
     2    1  127 1    
     3    1  128 1    
     4    1  129 1    
     5    2    3 2    
     6    2    4 am   BACKBONE|DICT|INTERRES
     7    4    5 1    
     8    4  130 1    
     9    5    6 1    
    10    5   65 1    
    11    5  131 1    
    12    6    7 1    
    13    6  132 1    
    14    6  133 1    
    15    7    8 1    
    16    8    9 1    
    17    8  134 1    
    18    8  135 1    
    19    9   10 ar   
    20    9   14 ar   
    21   10   11 ar   
    22   10  136 1    
    23   11   12 ar   
    24   11  126 1    
    25   12   13 ar   
    26   12  137 1    
    27   13   14 ar   
    28   13   15 1    
    29   14  138 1    
    30   15   16 1    
    31   15  139 1    
    32   15  140 1    
    33   16   17 1    
    34   17   18 1    
    35   17  141 1    
    36   17  142 1    
    37   18   19 1    
    38   18   67 1    
    39   18  143 1    
    40   19   20 am   BACKBONE|DICT|INTERRES
    41   19  144 1    
    42   20   21 2    
    43   20   22 1    
    44   22   23 1    
    45   22   24 1    
    46   22  145 1    
    47   23  146 1    
    48   23  147 1    
    49   23  148 1    
    50   24   25 am   BACKBONE|DICT|INTERRES
    51   24  149 1    
    52   25   26 2    
    53   25   27 1    
    54   27   28 1    
    55   27   29 1    
    56   27  150 1    
    57   28  151 1    
    58   28  152 1    
    59   28  153 1    
    60   29   30 am   BACKBONE|DICT|INTERRES
    61   29  154 1    
    62   30   31 2    
    63   30   32 1    
    64   32   33 1    
    65   32   34 1    
    66   32  155 1    
    67   33  156 1    
    68   33  157 1    
    69   33  158 1    
    70   34   35 am   BACKBONE|DICT|INTERRES
    71   34  159 1    
    72   35   36 2    
    73   35   37 1    
    74   37   38 1    
    75   37   39 1    
    76   37  160 1    
    77   38  161 1    
    78   38  162 1    
    79   38  163 1    
    80   39   40 am   BACKBONE|DICT|INTERRES
    81   39  164 1    
    82   40   41 2    
    83   40   42 1    
    84   42   43 1    
    85   42   44 1    
    86   42  165 1    
    87   43  166 1    
    88   43  167 1    
    89   43  168 1    
    90   44   45 am   BACKBONE|DICT|INTERRES
    91   44  169 1    
    92   45   46 2    
    93   45   47 1    
    94   47   48 1    
    95   47   49 1    
    96   47  170 1    
    97   48  171 1    
    98   48  172 1    
    99   48  173 1    
   100   49   50 am   BACKBONE|DICT|INTERRES
   101   49  174 1    
   102   50   51 2    
   103   50   52 1    
   104   52   53 1    
   105   52   54 1    
   106   52  175 1    
   107   53  176 1    
   108   53  177 1    
   109   53  178 1    
   110   54   55 am   BACKBONE|DICT|INTERRES
   111   54  179 1    
   112   55   56 2    
   113   55   57 1    
   114   57   58 1    
   115   57   59 1    
   116   57  180 1    
   117   58  181 1    
   118   58  182 1    
   119   58  183 1    
   120   59   60 am   BACKBONE|DICT|INTERRES
   121   59  184 1    
   122   60   61 2    
   123   60   62 1    
   124   62   63 1    
   125   62   64 1    
   126   62  185 1    
   127   63  186 1    
   128   63  187 1    
   129   63  188 1    
   130   64   65 am   BACKBONE|DICT|INTERRES
   131   64  189 1    
   132   65   66 2    
   133   67   68 2    
   134   67   69 am   BACKBONE|DICT|INTERRES
   135   69   70 1    
   136   69  190 1    
   137   70   71 1    
   138   70   72 1    
   139   70  191 1    
   140   71  192 1    
   141   71  193 1    
   142   71  194 1    
   143   72   73 2    
   144   72   74 am   BACKBONE|DICT|INTERRES
   145   74   75 1    
   146   74  195 1    
   147   75   76 1    
   148   75   77 1    
   149   75  196 1    
   150   76  197 1    
   151   76  198 1    
   152   76  199 1    
   153   77   78 2    
   154   77   79 am   BACKBONE|DICT|INTERRES
   155   79   80 1    
   156   79  200 1    
   157   80   81 1    
   158   80   82 1    
   159   80  201 1    
   160   81  202 1    
   161   81  203 1    
   162   81  204 1    
   163   82   83 2    
   164   82   84 am   BACKBONE|DICT|INTERRES
   165   84   85 1    
   166   84  205 1    
   167   85   86 1    
   168   85   87 1    
   169   85  206 1    
   170   86  207 1    
   171   86  208 1    
   172   86  209 1    
   173   87   88 2    
   174   87   89 am   BACKBONE|DICT|INTERRES
   175   89   90 1    
   176   89  210 1    
   177   90   91 1    
   178   90   92 1    
   179   90  211 1    
   180   91  212 1    
   181   91  213 1    
   182   91  214 1    
   183   92   93 2    
   184   92   94 am   BACKBONE|DICT|INTERRES
   185   94   95 1    
   186   94  215 1    
   187   95   96 1    
   188   95   97 1    
   189   95  216 1    
   190   96  217 1    
   191   96  218 1    
   192   96  219 1    
   193   97   98 2    
   194   97   99 am   BACKBONE|DICT|INTERRES
   195   99  100 1    
   196   99  220 1    
   197  100  101 1    
   198  100  102 1    
   199  100  221 1    
   200  101  222 1    
   201  101  223 1    
   202  101  224 1    
   203  102  103 2    
   204  102  104 am   BACKBONE|DICT|INTERRES
   205  104  105 1    
   206  104  225 1    
   207  105  106 1    
   208  105  107 1    
   209  105  226 1    
   210  106  227 1    
   211  106  228 1    
   212  106  229 1    
   213  107  108 2    
   214  107  109 am   BACKBONE|DICT|INTERRES
   215  109  110 1    
   216  109  230 1    
   217  110  111 1    
   218  110  112 1    
   219  110  231 1    
   220  111  232 1    
   221  111  233 1    
   222  111  234 1    
   223  112  113 2    
   224  112  114 am   BACKBONE|DICT|INTERRES
   225  114  115 1    
   226  114  235 1    
   227  115  116 1    
   228  115  117 1    
   229  115  236 1    
   230  116  237 1    
   231  116  238 1    
   232  116  239 1    
   233  117  118 2    
   234  117  119 am   BACKBONE|DICT|INTERRES
   235  119  120 1    
   236  119  240 1    
   237  120  121 1    
   238  120  124 1    
   239  120  241 1    
   240  121  122 am   BACKBONE|DICT|INTERRES
   241  121  123 2    
   242  122  242 1    
   243  122  243 1    
   244  124  125 1    
   245  124  244 1    
   246  124  245 1    
   247  125  126 1    
   248  126  246 1    
   249  126  247 1    
@<TRIPOS>SUBSTRUCTURE
     1 UNK         1 GROUP             0       ****    0 ROOT    
