@<TRIPOS>MOLECULE
3R540
247   249    1
SMALL
USER_CHARGES


@<TRIPOS>ATOM
      1 CA          2.1377  -11.3846  -44.2641 C.3       0 UNK        -0.1800 
      2 C           1.8432  -12.1868  -45.5240 C.2       0 UNK         0.5000 
      3 O           2.5027  -11.9871  -46.5439 O.2       0 UNK        -0.5000 
      4 N           0.8539  -13.0877  -45.4560 N.am      1 UNK        -0.5000 
      5 CA          0.4918  -14.0457  -46.5048 C.3       1 UNK         0.1400 
      6 C6         -0.8427  -14.7503  -46.1564 C.3       23 UNK        -0.0398 
      7 S7         -1.4377  -15.8939  -47.4470 S.3       23 UNK        -0.2404 
      8 C8         -2.7722  -14.9347  -48.2146 C.3       23 UNK        -0.0205 
      9 C9         -3.4330  -15.7239  -49.3340 C.ar      23 UNK        -0.0193 
     10 C10        -2.9198  -15.6683  -50.6331 C.ar      23 UNK        -0.1150 
     11 C11        -3.5446  -16.3572  -51.6781 C.ar      23 UNK        -0.0193 
     12 C12        -4.6870  -17.1180  -51.4062 C.ar      23 UNK        -0.1150 
     13 C13        -5.2009  -17.1964  -50.1079 C.ar      23 UNK        -0.0193 
     14 C14        -4.5714  -16.4925  -49.0770 C.ar      23 UNK        -0.1150 
     15 C15        -6.4591  -18.0079  -49.8320 C.3       23 UNK        -0.0205 
     16 S16        -6.0876  -19.7329  -49.3809 S.3       23 UNK        -0.2404 
     17 C17        -5.5368  -19.5754  -47.6488 C.3       23 UNK        -0.0398 
     18 CA         -4.0124  -19.7911  -47.4667 C.3       11 UNK         0.1400 
     19 N          -3.5251  -19.0781  -46.2788 N.am      11 UNK        -0.5000 
     20 C          -2.2742  -19.0764  -45.7976 C.2       10 UNK         0.5000 
     21 O          -1.3533  -19.7375  -46.2777 O.2       10 UNK        -0.5000 
     22 CA         -1.9959  -18.2277  -44.5453 C.3       10 UNK         0.1400 
     23 CB         -3.1613  -17.3079  -44.1202 C.3       10 UNK        -0.1800 
     24 N          -1.5583  -19.0624  -43.4282 N.am      10 UNK        -0.5000 
     25 C          -2.2045  -20.0931  -42.8630 C.2       9 UNK         0.5000 
     26 O          -3.3147  -20.4906  -43.2193 O.2       9 UNK        -0.5000 
     27 CA         -1.4854  -20.7920  -41.6949 C.3       9 UNK         0.1400 
     28 CB         -0.5261  -21.8697  -42.2219 C.3       9 UNK        -0.1800 
     29 N          -0.7182  -19.8313  -40.9018 N.am      9 UNK        -0.5000 
     30 C          -1.1239  -19.2769  -39.7517 C.2       8 UNK         0.5000 
     31 O          -2.1596  -19.5927  -39.1651 O.2       8 UNK        -0.5000 
     32 CA         -0.2281  -18.1654  -39.1635 C.3       8 UNK         0.1400 
     33 CB          0.8276  -18.7643  -38.2222 C.3       8 UNK        -0.1800 
     34 N           0.4462  -17.3755  -40.1956 N.am      8 UNK        -0.5000 
     35 C          -0.1795  -16.5696  -41.0659 C.2       7 UNK         0.5000 
     36 O          -1.3774  -16.2964  -40.9936 O.2       7 UNK        -0.5000 
     37 CA          0.6494  -15.9893  -42.2311 C.3       7 UNK         0.1400 
     38 CB          0.9306  -14.4980  -41.9950 C.3       7 UNK        -0.1800 
     39 N           1.9178  -16.6725  -42.4983 N.am      7 UNK        -0.5000 
     40 C           2.0813  -17.9672  -42.8034 C.2       6 UNK         0.5000 
     41 O           1.1549  -18.7737  -42.8725 O.2       6 UNK        -0.5000 
     42 CA          3.5234  -18.4641  -42.9991 C.3       6 UNK         0.1400 
     43 CB          3.9197  -18.4189  -44.4811 C.3       6 UNK        -0.1800 
     44 N           4.4962  -17.7126  -42.2022 N.am      6 UNK        -0.5000 
     45 C           4.6019  -17.7816  -40.8667 C.2       5 UNK         0.5000 
     46 O           3.8832  -18.4896  -40.1607 O.2       5 UNK        -0.5000 
     47 CA          5.6821  -16.9005  -40.2121 C.3       5 UNK         0.1400 
     48 CB          7.0497  -17.5990  -40.2593 C.3       5 UNK        -0.1800 
     49 N           5.7876  -15.5893  -40.8532 N.am      5 UNK        -0.5000 
     50 C           4.9204  -14.5848  -40.6632 C.2       4 UNK         0.5000 
     51 O           3.9848  -14.6309  -39.8647 O.2       4 UNK        -0.5000 
     52 CA          5.1144  -13.3269  -41.5355 C.3       4 UNK         0.1400 
     53 CB          6.0383  -12.3194  -40.8353 C.3       4 UNK        -0.1800 
     54 N           5.6391  -13.6159  -42.8759 N.am      4 UNK        -0.5000 
     55 C           4.9968  -14.3571  -43.7867 C.2       3 UNK         0.5000 
     56 O           3.9023  -14.8822  -43.5788 O.2       3 UNK        -0.5000 
     57 CA          5.7097  -14.5961  -45.1231 C.3       3 UNK         0.1400 
     58 CB          6.8193  -15.6535  -44.9655 C.3       3 UNK        -0.1800 
     59 N           4.7178  -15.0448  -46.0931 N.am      3 UNK        -0.5000 
     60 C           4.8528  -15.0714  -47.4208 C.2       2 UNK         0.5000 
     61 O           5.8838  -14.7366  -48.0058 O.2       2 UNK        -0.5000 
     62 CA          3.6298  -15.5182  -48.2476 C.3       2 UNK         0.1400 
     63 CB          3.5149  -17.0536  -48.3104 C.3       2 UNK        -0.1800 
     64 N           2.3703  -14.8747  -47.8460 N.am      2 UNK        -0.5000 
     65 C           1.6595  -15.0348  -46.7202 C.2       1 UNK         0.5000 
     66 O           1.9225  -15.8594  -45.8445 O.2       1 UNK        -0.5000 
     67 C          -3.6616  -21.2973  -47.4718 C.2       11 UNK         0.5000 
     68 O          -3.3722  -21.8534  -48.5328 O.2       11 UNK        -0.5000 
     69 N          -3.6453  -21.9221  -46.2850 N.am      12 UNK        -0.5000 
     70 CA         -3.2752  -23.3239  -46.0822 C.3       12 UNK         0.1400 
     71 CB         -3.6023  -23.7294  -44.6383 C.3       12 UNK        -0.1800 
     72 C          -1.8043  -23.6409  -46.4215 C.2       12 UNK         0.5000 
     73 O          -1.5108  -24.7817  -46.7784 O.2       12 UNK        -0.5000 
     74 N          -0.9192  -22.6401  -46.3238 N.am      13 UNK        -0.5000 
     75 CA          0.5024  -22.7539  -46.6457 C.3       13 UNK         0.1400 
     76 CB          1.3313  -22.1267  -45.5126 C.3       13 UNK        -0.1800 
     77 C           0.8271  -22.0770  -47.9859 C.2       13 UNK         0.5000 
     78 O           1.5183  -22.6707  -48.8132 O.2       13 UNK        -0.5000 
     79 N           0.3317  -20.8470  -48.1732 N.am      14 UNK        -0.5000 
     80 CA          0.6461  -19.9796  -49.3075 C.3       14 UNK         0.1400 
     81 CB          0.1593  -18.5581  -48.9952 C.3       14 UNK        -0.1800 
     82 C           0.0388  -20.4631  -50.6325 C.2       14 UNK         0.5000 
     83 O           0.7128  -20.4142  -51.6619 O.2       14 UNK        -0.5000 
     84 N          -1.2195  -20.9138  -50.5770 N.am      15 UNK        -0.5000 
     85 CA         -1.9954  -21.3492  -51.7379 C.3       15 UNK         0.1400 
     86 CB         -3.3398  -20.6099  -51.7165 C.3       15 UNK        -0.1800 
     87 C          -2.2228  -22.8701  -51.7420 C.2       15 UNK         0.5000 
     88 O          -2.8505  -23.3716  -52.6718 O.2       15 UNK        -0.5000 
     89 N          -1.7386  -23.5688  -50.7028 N.am      16 UNK        -0.5000 
     90 CA         -1.9488  -24.9929  -50.4211 C.3       16 UNK         0.1400 
     91 CB         -1.2650  -25.8753  -51.4870 C.3       16 UNK        -0.1800 
     92 C          -3.4420  -25.3284  -50.2133 C.2       16 UNK         0.5000 
     93 O          -3.9378  -26.3149  -50.7600 O.2       16 UNK        -0.5000 
     94 N          -4.1215  -24.4782  -49.4273 N.am      17 UNK        -0.5000 
     95 CA         -5.5566  -24.4842  -49.1260 C.3       17 UNK         0.1400 
     96 CB         -5.9974  -25.7943  -48.4399 C.3       17 UNK        -0.1800 
     97 C          -6.3763  -24.1265  -50.3773 C.2       17 UNK         0.5000 
     98 O          -7.2062  -24.9133  -50.8376 O.2       17 UNK        -0.5000 
     99 N          -6.0815  -22.9356  -50.9153 N.am      18 UNK        -0.5000 
    100 CA        -6.6175  -22.3014  -52.1251 C.3       18 UNK         0.1400 
    101 CB        -8.1447  -22.1162  -52.0540 C.3       18 UNK        -0.1800 
    102 C         -6.1894  -22.9890  -53.4334 C.2       18 UNK         0.5000 
    103 O         -5.7058  -22.3013  -54.3329 O.2       18 UNK        -0.5000 
    104 N         -6.3703  -24.3149  -53.5143 N.am      19 UNK        -0.5000 
    105 CA        -6.0472  -25.1950  -54.6408 C.3       19 UNK         0.1400 
    106 CB        -4.5223  -25.4322  -54.7009 C.3       19 UNK        -0.1800 
    107 C         -6.6606  -24.6810  -55.9621 C.2       19 UNK         0.5000 
    108 O         -7.8706  -24.4490  -56.0154 O.2       19 UNK        -0.5000 
    109 N         -5.8283  -24.4635  -56.9876 N.am      20 UNK        -0.5000 
    110 CA        -6.1930  -23.8575  -58.2685 C.3       20 UNK         0.1400 
    111 CB        -5.2071  -24.3515  -59.3429 C.3       20 UNK        -0.1800 
    112 C         -6.2475  -22.3162  -58.1717 C.2       20 UNK         0.5000 
    113 O         -5.5567  -21.6256  -58.9235 O.2       20 UNK        -0.5000 
    114 N         -7.0491  -21.8080  -57.2241 N.am      21 UNK        -0.5000 
    115 CA        -7.3207  -20.3934  -56.9351 C.3       21 UNK         0.1400 
    116 CB        -8.2504  -19.8093  -58.0184 C.3       21 UNK        -0.1800 
    117 C         -6.0460  -19.5456  -56.7201 C.2       21 UNK         0.5000 
    118 O         -5.9328  -18.4455  -57.2643 O.2       21 UNK        -0.5000 
    119 N         -5.0992  -20.0908  -55.9457 N.am      22 UNK        -0.5000 
    120 CA        -3.7619  -19.5334  -55.6783 C.3       22 UNK         0.1400 
    121 C         -2.7825  -19.5715  -56.8961 C.2       22 UNK         0.5000 
    122 N         -3.1158  -20.2106  -58.0121 N.am      22 UNK        -0.7600 
    123 O         -1.6782  -19.0401  -56.8267 O.2       22 UNK        -0.5000 
    124 C124       -3.8344  -18.1376  -54.9906 C.3       23 UNK        -0.0398 
    125 S125       -2.4733  -17.8130  -53.8172 S.3       23 UNK        -0.2404 
    126 C126       -3.0110  -16.2252  -53.1009 C.3       23 UNK        -0.0205 
    127 H127        1.4090  -11.5805  -43.4773 H         1 UNK         0.0600 
    128 H128        2.1194  -10.3173  -44.4844 H         1 UNK         0.0600 
    129 H129        3.1267  -11.6389  -43.8828 H         1 UNK         0.0600 
    130 H130        0.3617  -13.1980  -44.5824 H         1 UNK         0.3000 
    131 H131        0.3358  -13.4812  -47.4267 H         1 UNK         0.0600 
    132 H132       -1.6149  -14.0041  -45.9650 H         1 UNK         0.0800 
    133 H133       -0.7408  -15.3119  -45.2284 H         1 UNK         0.0800 
    134 H134       -3.5109  -14.6666  -47.4577 H         1 UNK         0.0800 
    135 H135       -2.3705  -13.9979  -48.6037 H         1 UNK         0.0800 
    136 H136       -2.0413  -15.0702  -50.8310 H         1 UNK         0.1150 
    137 H137       -5.1819  -17.6486  -52.2060 H         1 UNK         0.1150 
    138 H138       -4.9717  -16.5318  -48.0744 H         1 UNK         0.1150 
    139 H139       -7.0547  -17.5364  -49.0490 H         1 UNK         0.0800 
    140 H140       -7.0904  -18.0143  -50.7217 H         1 UNK         0.0800 
    141 H141       -6.1110  -20.2720  -47.0348 H         1 UNK         0.0800 
    142 H142       -5.8249  -18.5863  -47.2929 H         1 UNK         0.0800 
    143 H143       -3.4939  -19.3396  -48.3155 H         1 UNK         0.0600 
    144 H144       -4.2104  -18.5294  -45.7812 H         1 UNK         0.3000 
    145 H145       -1.1444  -17.5964  -44.7991 H         1 UNK         0.0600 
    146 H146       -3.4517  -16.6378  -44.9306 H         1 UNK         0.0600 
    147 H147       -4.0434  -17.8713  -43.8145 H         1 UNK         0.0600 
    148 H148       -2.8692  -16.6787  -43.2798 H         1 UNK         0.0600 
    149 H149       -0.5979  -18.9005  -43.1328 H         1 UNK         0.3000 
    150 H150       -2.2425  -21.2796  -41.0773 H         1 UNK         0.0600 
    151 H151       -1.0410  -22.5850  -42.8627 H         1 UNK         0.0600 
    152 H152       -0.0793  -22.4312  -41.4014 H         1 UNK         0.0600 
    153 H153        0.2843  -21.4304  -42.8034 H         1 UNK         0.0600 
    154 H154        0.1289  -19.4795  -41.3346 H         1 UNK         0.3000 
    155 H155       -0.8651  -17.4949  -38.5830 H         1 UNK         0.0600 
    156 H156        1.5057  -19.4341  -38.7527 H         1 UNK         0.0600 
    157 H157        0.3576  -19.3377  -37.4222 H         1 UNK         0.0600 
    158 H158        1.4274  -17.9836  -37.7540 H         1 UNK         0.0600 
    159 H159        1.4368  -17.5363  -40.3171 H         1 UNK         0.3000 
    160 H160        0.0421  -16.0847  -43.1316 H         1 UNK         0.0600 
    161 H161        1.4705  -14.0612  -42.8334 H         1 UNK         0.0600 
    162 H162        1.5295  -14.3424  -41.0973 H         1 UNK         0.0600 
    163 H163        0.0036  -13.9363  -41.8740 H         1 UNK         0.0600 
    164 H164        2.7341  -16.0725  -42.5686 H         1 UNK         0.3000 
    165 H165        3.5541  -19.5068  -42.6758 H         1 UNK         0.0600 
    166 H166        4.9075  -18.8507  -44.6415 H         1 UNK         0.0600 
    167 H167        3.2134  -18.9832  -45.0918 H         1 UNK         0.0600 
    168 H168        3.9328  -17.3981  -44.8592 H         1 UNK         0.0600 
    169 H169        5.0901  -17.0701  -42.7023 H         1 UNK         0.3000 
    170 H170        5.4100  -16.7597  -39.1637 H         1 UNK         0.0600 
    171 H171        7.0058  -18.5749  -39.7739 H         1 UNK         0.0600 
    172 H172        7.3893  -17.7568  -41.2838 H         1 UNK         0.0600 
    173 H173        7.8089  -17.0133  -39.7405 H         1 UNK         0.0600 
    174 H174        6.5403  -15.4578  -41.5122 H         1 UNK         0.3000 
    175 H175        4.1335  -12.8620  -41.6565 H         1 UNK         0.0600 
    176 H176        7.0470  -12.7154  -40.7123 H         1 UNK         0.0600 
    177 H177        6.1080  -11.3895  -41.4001 H         1 UNK         0.0600 
    178 H178        5.6610  -12.0677  -39.8432 H         1 UNK         0.0600 
    179 H179        6.5399  -13.2203  -43.1043 H         1 UNK         0.3000 
    180 H180        6.1384  -13.6509  -45.4618 H         1 UNK         0.0600 
    181 H181        6.4164  -16.6165  -44.6509 H         1 UNK         0.0600 
    182 H182        7.5564  -15.3459  -44.2231 H         1 UNK         0.0600 
    183 H183        7.3562  -15.8092  -45.9012 H         1 UNK         0.0600 
    184 H184        3.8213  -15.3097  -45.6879 H         1 UNK         0.3000 
    185 H185        3.8136  -15.1745  -49.2668 H         1 UNK         0.0600 
    186 H186        4.4563  -17.4998  -48.6329 H         1 UNK         0.0600 
    187 H187        3.2640  -17.4936  -47.3459 H         1 UNK         0.0600 
    188 H188        2.7550  -17.3567  -49.0286 H         1 UNK         0.0600 
    189 H189        2.0861  -14.1215  -48.4568 H         1 UNK         0.3000 
    190 H190       -3.8494  -21.3855  -45.4515 H         1 UNK         0.3000 
    191 H191       -3.8960  -23.9328  -46.7391 H         1 UNK         0.0600 
    192 H192       -3.0480  -23.1315  -43.9164 H         1 UNK         0.0600 
    193 H193       -3.3537  -24.7762  -44.4587 H         1 UNK         0.0600 
    194 H194       -4.6647  -23.6077  -44.4265 H         1 UNK         0.0600 
    195 H195       -1.2519  -21.7120  -46.0848 H         1 UNK         0.3000 
    196 H196        0.7958  -23.8026  -46.7278 H         1 UNK         0.0600 
    197 H197        2.3938  -22.1202  -45.7592 H         1 UNK         0.0600 
    198 H198        1.2193  -22.6972  -44.5912 H         1 UNK         0.0600 
    199 H199        1.0341  -21.0965  -45.3101 H         1 UNK         0.0600 
    200 H200       -0.2401  -20.4299  -47.4400 H         1 UNK         0.3000 
    201 H201        1.7318  -19.9518  -49.4226 H         1 UNK         0.0600 
    202 H202        0.6085  -18.1787  -48.0768 H         1 UNK         0.0600 
    203 H203       -0.9241  -18.5240  -48.8733 H         1 UNK         0.0600 
    204 H204        0.4181  -17.8661  -49.7975 H         1 UNK         0.0600 
    205 H205       -1.6991  -20.9400  -49.6863 H         1 UNK         0.3000 
    206 H206       -1.4825  -21.0902  -52.6664 H         1 UNK         0.0600 
    207 H207       -3.2016  -19.5394  -51.5743 H         1 UNK         0.0600 
    208 H208       -3.8790  -20.7510  -52.6529 H         1 UNK         0.0600 
    209 H209       -3.9768  -20.9664  -50.9110 H         1 UNK         0.0600 
    210 H210       -1.2273  -23.0529  -50.0021 H         1 UNK         0.3000 
    211 H211       -1.4552  -25.1933  -49.4696 H         1 UNK         0.0600 
    212 H212       -1.7415  -25.7803  -52.4631 H         1 UNK         0.0600 
    213 H213       -1.3078  -26.9280  -51.2056 H         1 UNK         0.0600 
    214 H214       -0.2132  -25.6125  -51.5999 H         1 UNK         0.0600 
    215 H215       -3.6255  -23.6555  -49.0958 H         1 UNK         0.3000 
    216 H216       -5.7238  -23.6773  -48.4109 H         1 UNK         0.0600 
    217 H217       -7.0345  -25.7256  -48.1099 H         1 UNK         0.0600 
    218 H218       -5.3890  -26.0024  -47.5599 H         1 UNK         0.0600 
    219 H219       -5.9284  -26.6538  -49.1067 H         1 UNK         0.0600 
    220 H220       -5.3601  -22.3993  -50.4545 H         1 UNK         0.3000 
    221 H221       -6.1839  -21.3010  -52.1456 H         1 UNK         0.0600 
    222 H222       -8.6761  -23.0680  -52.0512 H         1 UNK         0.0600 
    223 H223       -8.4318  -21.5674  -51.1569 H         1 UNK         0.0600 
    224 H224       -8.5046  -21.5474  -52.9122 H         1 UNK         0.0600 
    225 H225       -6.7817  -24.7649  -52.7014 H         1 UNK         0.3000 
    226 H226       -6.5254  -26.1528  -54.4325 H         1 UNK         0.0600 
    227 H227       -4.1526  -25.8129  -53.7482 H         1 UNK         0.0600 
    228 H228       -4.2630  -26.1696  -55.4613 H         1 UNK         0.0600 
    229 H229       -3.9739  -24.5145  -54.9174 H         1 UNK         0.0600 
    230 H230       -4.8438  -24.6332  -56.8413 H         1 UNK         0.3000 
    231 H231       -7.1905  -24.1975  -58.5545 H         1 UNK         0.0600 
    232 H232       -5.2199  -25.4389  -59.4192 H         1 UNK         0.0600 
    233 H233       -4.1841  -24.0425  -59.1244 H         1 UNK         0.0600 
    234 H234       -5.4681  -23.9562  -60.3255 H         1 UNK         0.0600 
    235 H235       -7.5266  -22.4768  -56.6298 H         1 UNK         0.3000 
    236 H236       -7.8609  -20.3721  -55.9875 H         1 UNK         0.0600 
    237 H237       -7.7628  -19.7792  -58.9935 H         1 UNK         0.0600 
    238 H238       -9.1606  -20.4008  -58.1172 H         1 UNK         0.0600 
    239 H239       -8.5527  -18.7912  -57.7700 H         1 UNK         0.0600 
    240 H240       -5.2915  -20.9918  -55.5089 H         1 UNK         0.3000 
    241 H241       -3.3301  -20.2322  -54.9616 H         1 UNK         0.0600 
    242 H242       -4.0263  -20.6433  -58.1280 H         1 UNK         0.3800 
    243 H243       -2.4616  -20.2294  -58.7778 H         1 UNK         0.3800 
    244 H244       -4.7644  -18.0538  -54.4283 H         1 UNK         0.0800 
    245 H245       -3.8667  -17.3400  -55.7348 H         1 UNK         0.0800 
    246 H246       -3.7761  -15.7648  -53.7274 H         1 UNK         0.0800 
    247 H247       -2.1592  -15.5440  -53.1235 H         1 UNK         0.0800 
@<TRIPOS>BOND
     1    1    2 1    
     2    1  127 1    
     3    1  128 1    
     4    1  129 1    
     5    2    3 2    
     6    2    4 am   BACKBONE|DICT|INTERRES
     7    4    5 1    
     8    4  130 1    
     9    5    6 1    
    10    5   65 1    
    11    5  131 1    
    12    6    7 1    
    13    6  132 1    
    14    6  133 1    
    15    7    8 1    
    16    8    9 1    
    17    8  134 1    
    18    8  135 1    
    19    9   10 ar   
    20    9   14 ar   
    21   10   11 ar   
    22   10  136 1    
    23   11   12 ar   
    24   11  126 1    
    25   12   13 ar   
    26   12  137 1    
    27   13   14 ar   
    28   13   15 1    
    29   14  138 1    
    30   15   16 1    
    31   15  139 1    
    32   15  140 1    
    33   16   17 1    
    34   17   18 1    
    35   17  141 1    
    36   17  142 1    
    37   18   19 1    
    38   18   67 1    
    39   18  143 1    
    40   19   20 am   BACKBONE|DICT|INTERRES
    41   19  144 1    
    42   20   21 2    
    43   20   22 1    
    44   22   23 1    
    45   22   24 1    
    46   22  145 1    
    47   23  146 1    
    48   23  147 1    
    49   23  148 1    
    50   24   25 am   BACKBONE|DICT|INTERRES
    51   24  149 1    
    52   25   26 2    
    53   25   27 1    
    54   27   28 1    
    55   27   29 1    
    56   27  150 1    
    57   28  151 1    
    58   28  152 1    
    59   28  153 1    
    60   29   30 am   BACKBONE|DICT|INTERRES
    61   29  154 1    
    62   30   31 2    
    63   30   32 1    
    64   32   33 1    
    65   32   34 1    
    66   32  155 1    
    67   33  156 1    
    68   33  157 1    
    69   33  158 1    
    70   34   35 am   BACKBONE|DICT|INTERRES
    71   34  159 1    
    72   35   36 2    
    73   35   37 1    
    74   37   38 1    
    75   37   39 1    
    76   37  160 1    
    77   38  161 1    
    78   38  162 1    
    79   38  163 1    
    80   39   40 am   BACKBONE|DICT|INTERRES
    81   39  164 1    
    82   40   41 2    
    83   40   42 1    
    84   42   43 1    
    85   42   44 1    
    86   42  165 1    
    87   43  166 1    
    88   43  167 1    
    89   43  168 1    
    90   44   45 am   BACKBONE|DICT|INTERRES
    91   44  169 1    
    92   45   46 2    
    93   45   47 1    
    94   47   48 1    
    95   47   49 1    
    96   47  170 1    
    97   48  171 1    
    98   48  172 1    
    99   48  173 1    
   100   49   50 am   BACKBONE|DICT|INTERRES
   101   49  174 1    
   102   50   51 2    
   103   50   52 1    
   104   52   53 1    
   105   52   54 1    
   106   52  175 1    
   107   53  176 1    
   108   53  177 1    
   109   53  178 1    
   110   54   55 am   BACKBONE|DICT|INTERRES
   111   54  179 1    
   112   55   56 2    
   113   55   57 1    
   114   57   58 1    
   115   57   59 1    
   116   57  180 1    
   117   58  181 1    
   118   58  182 1    
   119   58  183 1    
   120   59   60 am   BACKBONE|DICT|INTERRES
   121   59  184 1    
   122   60   61 2    
   123   60   62 1    
   124   62   63 1    
   125   62   64 1    
   126   62  185 1    
   127   63  186 1    
   128   63  187 1    
   129   63  188 1    
   130   64   65 am   BACKBONE|DICT|INTERRES
   131   64  189 1    
   132   65   66 2    
   133   67   68 2    
   134   67   69 am   BACKBONE|DICT|INTERRES
   135   69   70 1    
   136   69  190 1    
   137   70   71 1    
   138   70   72 1    
   139   70  191 1    
   140   71  192 1    
   141   71  193 1    
   142   71  194 1    
   143   72   73 2    
   144   72   74 am   BACKBONE|DICT|INTERRES
   145   74   75 1    
   146   74  195 1    
   147   75   76 1    
   148   75   77 1    
   149   75  196 1    
   150   76  197 1    
   151   76  198 1    
   152   76  199 1    
   153   77   78 2    
   154   77   79 am   BACKBONE|DICT|INTERRES
   155   79   80 1    
   156   79  200 1    
   157   80   81 1    
   158   80   82 1    
   159   80  201 1    
   160   81  202 1    
   161   81  203 1    
   162   81  204 1    
   163   82   83 2    
   164   82   84 am   BACKBONE|DICT|INTERRES
   165   84   85 1    
   166   84  205 1    
   167   85   86 1    
   168   85   87 1    
   169   85  206 1    
   170   86  207 1    
   171   86  208 1    
   172   86  209 1    
   173   87   88 2    
   174   87   89 am   BACKBONE|DICT|INTERRES
   175   89   90 1    
   176   89  210 1    
   177   90   91 1    
   178   90   92 1    
   179   90  211 1    
   180   91  212 1    
   181   91  213 1    
   182   91  214 1    
   183   92   93 2    
   184   92   94 am   BACKBONE|DICT|INTERRES
   185   94   95 1    
   186   94  215 1    
   187   95   96 1    
   188   95   97 1    
   189   95  216 1    
   190   96  217 1    
   191   96  218 1    
   192   96  219 1    
   193   97   98 2    
   194   97   99 am   BACKBONE|DICT|INTERRES
   195   99  100 1    
   196   99  220 1    
   197  100  101 1    
   198  100  102 1    
   199  100  221 1    
   200  101  222 1    
   201  101  223 1    
   202  101  224 1    
   203  102  103 2    
   204  102  104 am   BACKBONE|DICT|INTERRES
   205  104  105 1    
   206  104  225 1    
   207  105  106 1    
   208  105  107 1    
   209  105  226 1    
   210  106  227 1    
   211  106  228 1    
   212  106  229 1    
   213  107  108 2    
   214  107  109 am   BACKBONE|DICT|INTERRES
   215  109  110 1    
   216  109  230 1    
   217  110  111 1    
   218  110  112 1    
   219  110  231 1    
   220  111  232 1    
   221  111  233 1    
   222  111  234 1    
   223  112  113 2    
   224  112  114 am   BACKBONE|DICT|INTERRES
   225  114  115 1    
   226  114  235 1    
   227  115  116 1    
   228  115  117 1    
   229  115  236 1    
   230  116  237 1    
   231  116  238 1    
   232  116  239 1    
   233  117  118 2    
   234  117  119 am   BACKBONE|DICT|INTERRES
   235  119  120 1    
   236  119  240 1    
   237  120  121 1    
   238  120  124 1    
   239  120  241 1    
   240  121  122 am   BACKBONE|DICT|INTERRES
   241  121  123 2    
   242  122  242 1    
   243  122  243 1    
   244  124  125 1    
   245  124  244 1    
   246  124  245 1    
   247  125  126 1    
   248  126  246 1    
   249  126  247 1    
@<TRIPOS>SUBSTRUCTURE
     1 UNK         1 GROUP             0       ****    0 ROOT    
