@<TRIPOS>MOLECULE
3R540
247   249    1
SMALL
USER_CHARGES


@<TRIPOS>ATOM
      1 CA         -1.3810  -12.7386  -43.0851 C.3       0 UNK        -0.1800 
      2 C          -1.4443  -13.1909  -44.5355 C.2       0 UNK         0.5000 
      3 O          -0.4885  -13.7770  -45.0436 O.2       0 UNK        -0.5000 
      4 N          -2.5851  -12.9302  -45.1848 N.am      1 UNK        -0.5000 
      5 CA         -3.0141  -13.3987  -46.5130 C.3       1 UNK         0.1400 
      6 C6         -3.0622  -14.9418  -46.6531 C.3       23 UNK        -0.0398 
      7 S7         -4.0797  -15.7325  -45.3581 S.3       23 UNK        -0.2404 
      8 C8         -5.7297  -15.7491  -46.1237 C.3       23 UNK        -0.0205 
      9 C9         -5.7959  -16.6695  -47.3320 C.ar      23 UNK        -0.0193 
     10 C10        -6.0524  -16.1472  -48.6029 C.ar      23 UNK        -0.1150 
     11 C11        -6.1259  -16.9891  -49.7166 C.ar      23 UNK        -0.0193 
     12 C12        -5.9521  -18.3650  -49.5453 C.ar      23 UNK        -0.1150 
     13 C13        -5.6674  -18.8956  -48.2826 C.ar      23 UNK        -0.0193 
     14 C14        -5.6021  -18.0446  -47.1780 C.ar      23 UNK        -0.1150 
     15 C15        -5.4169  -20.3847  -48.1193 C.3       23 UNK        -0.0205 
     16 S16        -3.8399  -20.8619  -48.8853 S.3       23 UNK        -0.2404 
     17 C17        -2.6159  -20.5183  -47.5810 C.3       23 UNK        -0.0398 
     18 CA         -1.8156  -21.7996  -47.2487 C.3       11 UNK         0.1400 
     19 N          -0.4654  -21.5199  -46.7549 N.am      11 UNK        -0.5000 
     20 C           0.4914  -22.4534  -46.6443 C.2       10 UNK         0.5000 
     21 O           0.3272  -23.6356  -46.9396 O.2       10 UNK        -0.5000 
     22 CA          1.8450  -22.0142  -46.0678 C.3       10 UNK         0.1400 
     23 CB          2.6688  -21.2633  -47.1244 C.3       10 UNK        -0.1800 
     24 N           1.6976  -21.1940  -44.8684 N.am      10 UNK        -0.5000 
     25 C           1.1432  -21.6113  -43.7216 C.2       9 UNK         0.5000 
     26 O           0.7369  -22.7588  -43.5334 O.2       9 UNK        -0.5000 
     27 CA          0.9669  -20.5526  -42.6178 C.3       9 UNK         0.1400 
     28 CB          2.2868  -20.3065  -41.8719 C.3       9 UNK        -0.1800 
     29 N           0.4531  -19.2828  -43.1321 N.am      9 UNK        -0.5000 
     30 C          -0.7352  -19.1288  -43.7343 C.2       8 UNK         0.5000 
     31 O          -1.5446  -20.0397  -43.9097 O.2       8 UNK        -0.5000 
     32 CA         -1.0517  -17.7233  -44.2664 C.3       8 UNK         0.1400 
     33 CB         -1.4504  -16.7918  -43.1113 C.3       8 UNK        -0.1800 
     34 N           0.0717  -17.1514  -45.0083 N.am      8 UNK        -0.5000 
     35 C           0.5532  -17.6528  -46.1548 C.2       7 UNK         0.5000 
     36 O           0.0782  -18.6302  -46.7341 O.2       7 UNK        -0.5000 
     37 CA          1.8181  -16.9871  -46.7227 C.3       7 UNK         0.1400 
     38 CB          1.4658  -15.7092  -47.4920 C.3       7 UNK        -0.1800 
     39 N           2.8197  -16.6903  -45.6974 N.am      7 UNK        -0.5000 
     40 C           3.4453  -17.6225  -44.9669 C.2       6 UNK         0.5000 
     41 O           3.2461  -18.8299  -45.0843 O.2       6 UNK        -0.5000 
     42 CA          4.4400  -17.1331  -43.9024 C.3       6 UNK         0.1400 
     43 CB          5.7999  -16.8120  -44.5404 C.3       6 UNK        -0.1800 
     44 N           3.9803  -15.9752  -43.1357 N.am      6 UNK        -0.5000 
     45 C           2.8518  -15.8986  -42.4153 C.2       5 UNK         0.5000 
     46 O           2.0017  -16.7892  -42.3833 O.2       5 UNK        -0.5000 
     47 CA          2.6510  -14.6275  -41.5610 C.3       5 UNK         0.1400 
     48 CB          2.6614  -14.9927  -40.0684 C.3       5 UNK        -0.1800 
     49 N           3.6986  -13.6237  -41.7943 N.am      5 UNK        -0.5000 
     50 C           3.7350  -12.6560  -42.7222 C.2       4 UNK         0.5000 
     51 O           4.7371  -11.9544  -42.8649 O.2       4 UNK        -0.5000 
     52 CA          2.4926  -12.3608  -43.5925 C.3       4 UNK         0.1400 
     53 CB          1.6964  -11.1971  -42.9831 C.3       4 UNK        -0.1800 
     54 N           2.8425  -12.0062  -44.9641 N.am      4 UNK        -0.5000 
     55 C           3.4107  -12.8291  -45.8503 C.2       3 UNK         0.5000 
     56 O           3.7223  -13.9943  -45.5983 O.2       3 UNK        -0.5000 
     57 CA          3.5799  -12.2700  -47.2763 C.3       3 UNK         0.1400 
     58 CB          4.6790  -13.0063  -48.0625 C.3       3 UNK        -0.1800 
     59 N           2.3204  -12.3718  -48.0142 N.am      3 UNK        -0.5000 
     60 C           1.2354  -11.6131  -47.8105 C.2       2 UNK         0.5000 
     61 O           1.2096  -10.6532  -47.0381 O.2       2 UNK        -0.5000 
     62 CA         -0.0468  -12.0032  -48.5589 C.3       2 UNK         0.1400 
     63 CB          0.1757  -12.9106  -49.7892 C.3       2 UNK        -0.1800 
     64 N          -0.9320  -12.6466  -47.5955 N.am      2 UNK        -0.5000 
     65 C          -2.2593  -12.7501  -47.6941 C.2       1 UNK         0.5000 
     66 O          -2.9023  -12.3318  -48.6581 O.2       1 UNK        -0.5000 
     67 C          -2.6016  -22.7468  -46.3213 C.2       11 UNK         0.5000 
     68 O          -3.2655  -23.6579  -46.8162 O.2       11 UNK        -0.5000 
     69 N          -2.4757  -22.5547  -45.0006 N.am      12 UNK        -0.5000 
     70 CA         -3.0694  -23.4223  -43.9819 C.3       12 UNK         0.1400 
     71 CB         -2.8521  -22.8045  -42.5924 C.3       12 UNK        -0.1800 
     72 C          -2.5300  -24.8651  -44.0285 C.2       12 UNK         0.5000 
     73 O          -3.2976  -25.8043  -43.8149 O.2       12 UNK        -0.5000 
     74 N          -1.2315  -25.0155  -44.3220 N.am      13 UNK        -0.5000 
     75 CA         -0.5728  -26.3072  -44.4979 C.3       13 UNK         0.1400 
     76 CB          0.9473  -26.1262  -44.3611 C.3       13 UNK        -0.1800 
     77 C          -0.9284  -26.9735  -45.8406 C.2       13 UNK         0.5000 
     78 O          -1.2383  -28.1654  -45.8610 O.2       13 UNK        -0.5000 
     79 N          -0.8530  -26.2053  -46.9357 N.am      14 UNK        -0.5000 
     80 CA         -1.0273  -26.6951  -48.3034 C.3       14 UNK         0.1400 
     81 CB         -0.4446  -25.6691  -49.2900 C.3       14 UNK        -0.1800 
     82 C          -2.4863  -27.0070  -48.6747 C.2       14 UNK         0.5000 
     83 O          -2.7255  -27.9927  -49.3746 O.2       14 UNK        -0.5000 
     84 N          -3.4178  -26.1475  -48.2330 N.am      15 UNK        -0.5000 
     85 CA         -4.8183  -26.0629  -48.6652 C.3       15 UNK         0.1400 
     86 CB         -5.5960  -27.3423  -48.2875 C.3       15 UNK        -0.1800 
     87 C          -4.9475  -25.6959  -50.1633 C.2       15 UNK         0.5000 
     88 O          -3.9589  -25.3110  -50.7932 O.2       15 UNK        -0.5000 
     89 N          -6.1749  -25.7700  -50.7044 N.am      16 UNK        -0.5000 
     90 CA         -6.5354  -25.5284  -52.1136 C.3       16 UNK         0.1400 
     91 CB         -6.0294  -26.6909  -52.9925 C.3       16 UNK        -0.1800 
     92 C          -6.0838  -24.1481  -52.6458 C.2       16 UNK         0.5000 
     93 O          -5.6343  -24.0335  -53.7890 O.2       16 UNK        -0.5000 
     94 N          -6.1461  -23.1355  -51.7676 N.am      17 UNK        -0.5000 
     95 CA         -5.6532  -21.7643  -51.9513 C.3       17 UNK         0.1400 
     96 CB         -6.5105  -21.0113  -52.9891 C.3       17 UNK        -0.1800 
     97 C          -4.1406  -21.6729  -52.2624 C.2       17 UNK         0.5000 
     98 O          -3.6983  -20.6687  -52.8208 O.2       17 UNK        -0.5000 
     99 N          -3.3770  -22.7275  -51.9315 N.am      18 UNK        -0.5000 
    100 CA        -1.9697  -22.9470  -52.2766 C.3       18 UNK         0.1400 
    101 CB        -1.0599  -21.9618  -51.5135 C.3       18 UNK        -0.1800 
    102 C         -1.7404  -22.9362  -53.8037 C.2       18 UNK         0.5000 
    103 O         -0.7478  -22.3811  -54.2728 O.2       18 UNK        -0.5000 
    104 N         -2.6995  -23.5043  -54.5540 N.am      19 UNK        -0.5000 
    105 CA        -2.8123  -23.4605  -56.0177 C.3       19 UNK         0.1400 
    106 CB        -1.6483  -24.2136  -56.6958 C.3       19 UNK        -0.1800 
    107 C         -2.9995  -22.0176  -56.5377 C.2       19 UNK         0.5000 
    108 O         -2.3950  -21.6272  -57.5375 O.2       19 UNK        -0.5000 
    109 N         -3.8342  -21.2565  -55.8153 N.am      20 UNK        -0.5000 
    110 CA        -4.1814  -19.8434  -56.0045 C.3       20 UNK         0.1400 
    111 CB        -4.8264  -19.6032  -57.3855 C.3       20 UNK        -0.1800 
    112 C         -3.0343  -18.8551  -55.6979 C.2       20 UNK         0.5000 
    113 O         -3.1305  -17.6862  -56.0766 O.2       20 UNK        -0.5000 
    114 N         -1.9844  -19.3127  -55.0007 N.am      21 UNK        -0.5000 
    115 CA        -0.8896  -18.4672  -54.5213 C.3       21 UNK         0.1400 
    116 CB         0.3683  -19.3214  -54.3071 C.3       21 UNK        -0.1800 
    117 C         -1.2500  -17.7057  -53.2311 C.2       21 UNK         0.5000 
    118 O         -0.6832  -16.6381  -52.9953 O.2       21 UNK        -0.5000 
    119 N         -2.1767  -18.2534  -52.4296 N.am      22 UNK        -0.5000 
    120 CA        -2.6914  -17.6720  -51.1752 C.3       22 UNK         0.1400 
    121 C         -1.6326  -17.5136  -50.0408 C.2       22 UNK         0.5000 
    122 N         -0.5822  -18.3253  -50.0114 N.am      22 UNK        -0.7600 
    123 O         -1.7714  -16.6744  -49.1573 O.2       22 UNK        -0.5000 
    124 C124       -3.5414  -16.3921  -51.4226 C.3       23 UNK        -0.0398 
    125 S125       -5.0817  -16.7979  -52.3216 S.3       23 UNK        -0.2404 
    126 C126       -6.3825  -16.4016  -51.1006 C.3       23 UNK        -0.0205 
    127 H127       -1.3145  -11.6530  -43.0238 H         1 UNK         0.0600 
    128 H128       -0.5165  -13.1718  -42.5831 H         1 UNK         0.0600 
    129 H129       -2.2731  -13.0589  -42.5466 H         1 UNK         0.0600 
    130 H130       -3.2949  -12.4095  -44.6892 H         1 UNK         0.3000 
    131 H131       -4.0433  -13.0472  -46.6033 H         1 UNK         0.0600 
    132 H132       -3.4474  -15.2254  -47.6333 H         1 UNK         0.0800 
    133 H133       -2.0575  -15.3647  -46.5974 H         1 UNK         0.0800 
    134 H134       -6.4564  -16.0865  -45.3836 H         1 UNK         0.0800 
    135 H135       -6.0137  -14.7297  -46.3889 H         1 UNK         0.0800 
    136 H136       -6.1903  -15.0821  -48.7256 H         1 UNK         0.1150 
    137 H137       -6.0018  -19.0166  -50.4052 H         1 UNK         0.1150 
    138 H138       -5.3875  -18.4466  -46.1978 H         1 UNK         0.1150 
    139 H139       -5.4270  -20.6808  -47.0692 H         1 UNK         0.0800 
    140 H140       -6.2269  -20.9359  -48.5981 H         1 UNK         0.0800 
    141 H141       -3.0833  -20.0842  -46.6953 H         1 UNK         0.0800 
    142 H142       -1.9515  -19.7499  -47.9742 H         1 UNK         0.0800 
    143 H143       -1.6661  -22.3473  -48.1814 H         1 UNK         0.0600 
    144 H144       -0.2522  -20.5544  -46.5200 H         1 UNK         0.3000 
    145 H145        2.3946  -22.9152  -45.7878 H         1 UNK         0.0600 
    146 H146        3.6682  -21.0348  -46.7542 H         1 UNK         0.0600 
    147 H147        2.7861  -21.8630  -48.0278 H         1 UNK         0.0600 
    148 H148        2.1963  -20.3237  -47.4120 H         1 UNK         0.0600 
    149 H149        2.0547  -20.2429  -44.9260 H         1 UNK         0.3000 
    150 H150        0.2380  -20.9384  -41.9022 H         1 UNK         0.0600 
    151 H151        2.1499  -19.6029  -41.0504 H         1 UNK         0.0600 
    152 H152        2.6736  -21.2336  -41.4472 H         1 UNK         0.0600 
    153 H153        3.0541  -19.9020  -42.5322 H         1 UNK         0.0600 
    154 H154        1.0488  -18.4681  -43.0205 H         1 UNK         0.3000 
    155 H155       -1.8977  -17.8075  -44.9514 H         1 UNK         0.0600 
    156 H156       -0.6395  -16.6515  -42.3970 H         1 UNK         0.0600 
    157 H157       -2.3032  -17.1958  -42.5644 H         1 UNK         0.0600 
    158 H158       -1.7427  -15.8113  -43.4793 H         1 UNK         0.0600 
    159 H159        0.5367  -16.3570  -44.5933 H         1 UNK         0.3000 
    160 H160        2.2659  -17.6893  -47.4289 H         1 UNK         0.0600 
    161 H161        1.1057  -14.9249  -46.8269 H         1 UNK         0.0600 
    162 H162        0.6852  -15.9009  -48.2284 H         1 UNK         0.0600 
    163 H163        2.3335  -15.3273  -48.0279 H         1 UNK         0.0600 
    164 H164        3.0745  -15.7135  -45.5630 H         1 UNK         0.3000 
    165 H165        4.5844  -17.9506  -43.1933 H         1 UNK         0.0600 
    166 H166        6.5451  -16.5709  -43.7822 H         1 UNK         0.0600 
    167 H167        6.1774  -17.6648  -45.1062 H         1 UNK         0.0600 
    168 H168        5.7326  -15.9664  -45.2263 H         1 UNK         0.0600 
    169 H169        4.5956  -15.1751  -43.1316 H         1 UNK         0.3000 
    170 H170        1.6632  -14.2215  -41.7781 H         1 UNK         0.0600 
    171 H171        1.8749  -15.7118  -39.8346 H         1 UNK         0.0600 
    172 H172        3.6112  -15.4367  -39.7673 H         1 UNK         0.0600 
    173 H173        2.4894  -14.1140  -39.4463 H         1 UNK         0.0600 
    174 H174        4.5192  -13.7368  -41.2169 H         1 UNK         0.3000 
    175 H175        1.8487  -13.2355  -43.6694 H         1 UNK         0.0600 
    176 H176        2.3163  -10.3081  -42.8590 H         1 UNK         0.0600 
    177 H177        0.8521  -10.9216  -43.6143 H         1 UNK         0.0600 
    178 H178        1.3043  -11.4628  -42.0007 H         1 UNK         0.0600 
    179 H179        2.5558  -11.0898  -45.2824 H         1 UNK         0.3000 
    180 H180        3.8667  -11.2189  -47.2015 H         1 UNK         0.0600 
    181 H181        4.4430  -14.0614  -48.2047 H         1 UNK         0.0600 
    182 H182        5.6334  -12.9530  -47.5372 H         1 UNK         0.0600 
    183 H183        4.8248  -12.5605  -49.0465 H         1 UNK         0.0600 
    184 H184        2.2450  -13.1453  -48.6574 H         1 UNK         0.3000 
    185 H185       -0.5075  -11.0726  -48.8967 H         1 UNK         0.0600 
    186 H186        0.8937  -12.4678  -50.4806 H         1 UNK         0.0600 
    187 H187        0.5394  -13.8994  -49.5138 H         1 UNK         0.0600 
    188 H188       -0.7524  -13.0515  -50.3433 H         1 UNK         0.0600 
    189 H189       -0.4984  -12.9906  -46.7408 H         1 UNK         0.3000 
    190 H190       -1.9442  -21.7555  -44.6638 H         1 UNK         0.3000 
    191 H191       -4.1441  -23.4660  -44.1700 H         1 UNK         0.0600 
    192 H192       -3.3094  -21.8173  -42.5245 H         1 UNK         0.0600 
    193 H193       -3.2986  -23.4244  -41.8141 H         1 UNK         0.0600 
    194 H194       -1.7918  -22.6980  -42.3611 H         1 UNK         0.0600 
    195 H195       -0.6580  -24.1884  -44.4403 H         1 UNK         0.3000 
    196 H196       -0.9013  -26.9737  -43.6975 H         1 UNK         0.0600 
    197 H197        1.4662  -27.0788  -44.4740 H         1 UNK         0.0600 
    198 H198        1.2084  -25.7269  -43.3808 H         1 UNK         0.0600 
    199 H199        1.3440  -25.4439  -45.1135 H         1 UNK         0.0600 
    200 H200       -0.5500  -25.2381  -46.8397 H         1 UNK         0.3000 
    201 H201       -0.4549  -27.6194  -48.4069 H         1 UNK         0.0600 
    202 H202        0.6142  -25.4939  -49.0992 H         1 UNK         0.0600 
    203 H203       -0.9607  -24.7102  -49.2238 H         1 UNK         0.0600 
    204 H204       -0.5373  -26.0189  -50.3190 H         1 UNK         0.0600 
    205 H205       -3.1101  -25.3549  -47.6753 H         1 UNK         0.3000 
    206 H206       -5.2495  -25.2314  -48.1062 H         1 UNK         0.0600 
    207 H207       -5.4022  -27.6283  -47.2535 H         1 UNK         0.0600 
    208 H208       -6.6721  -27.1944  -48.3798 H         1 UNK         0.0600 
    209 H209       -5.3271  -28.1863  -48.9233 H         1 UNK         0.0600 
    210 H210       -6.9376  -26.0630  -50.1097 H         1 UNK         0.3000 
    211 H211       -7.6252  -25.5280  -52.1606 H         1 UNK         0.0600 
    212 H212       -4.9398  -26.7265  -53.0255 H         1 UNK         0.0600 
    213 H213       -6.3859  -26.5930  -54.0186 H         1 UNK         0.0600 
    214 H214       -6.3840  -27.6511  -52.6180 H         1 UNK         0.0600 
    215 H215       -6.5072  -23.3463  -50.8480 H         1 UNK         0.3000 
    216 H216       -5.7959  -21.2662  -50.9948 H         1 UNK         0.0600 
    217 H217       -6.2392  -19.9555  -53.0311 H         1 UNK         0.0600 
    218 H218       -7.5688  -21.0595  -52.7331 H         1 UNK         0.0600 
    219 H219       -6.3903  -21.4222  -53.9916 H         1 UNK         0.0600 
    220 H220       -3.8205  -23.5224  -51.4792 H         1 UNK         0.3000 
    221 H221       -1.7223  -23.9542  -51.9386 H         1 UNK         0.0600 
    222 H222       -1.2427  -20.9298  -51.8083 H         1 UNK         0.0600 
    223 H223       -1.2207  -22.0329  -50.4393 H         1 UNK         0.0600 
    224 H224       -0.0066  -22.1761  -51.6970 H         1 UNK         0.0600 
    225 H225       -3.5047  -23.8949  -54.0765 H         1 UNK         0.3000 
    226 H226       -3.7324  -23.9922  -56.2652 H         1 UNK         0.0600 
    227 H227       -1.5489  -25.2240  -56.2997 H         1 UNK         0.0600 
    228 H228       -1.8166  -24.3015  -57.7697 H         1 UNK         0.0600 
    229 H229       -0.6949  -23.7032  -56.5580 H         1 UNK         0.0600 
    230 H230       -4.2308  -21.6767  -54.9864 H         1 UNK         0.3000 
    231 H231       -4.9450  -19.6313  -55.2554 H         1 UNK         0.0600 
    232 H232       -4.1031  -19.7023  -58.1950 H         1 UNK         0.0600 
    233 H233       -5.2493  -18.6001  -57.4502 H         1 UNK         0.0600 
    234 H234       -5.6380  -20.3070  -57.5702 H         1 UNK         0.0600 
    235 H235       -1.9779  -20.2813  -54.7107 H         1 UNK         0.3000 
    236 H236       -0.6576  -17.7263  -55.2894 H         1 UNK         0.0600 
    237 H237        0.6268  -19.8794  -55.2072 H         1 UNK         0.0600 
    238 H238        1.2243  -18.6945  -54.0546 H         1 UNK         0.0600 
    239 H239        0.2391  -20.0357  -53.4948 H         1 UNK         0.0600 
    240 H240       -2.6168  -19.1267  -52.7091 H         1 UNK         0.3000 
    241 H241       -3.3664  -18.4278  -50.7741 H         1 UNK         0.0600 
    242 H242       -0.4465  -19.0185  -50.7272 H         1 UNK         0.3800 
    243 H243        0.0600  -18.2553  -49.2391 H         1 UNK         0.3800 
    244 H244       -2.9787  -15.6556  -51.9965 H         1 UNK         0.0800 
    245 H245       -3.7966  -15.8955  -50.4863 H         1 UNK         0.0800 
    246 H246       -6.4801  -15.3164  -51.0447 H         1 UNK         0.0800 
    247 H247       -7.3378  -16.7754  -51.4712 H         1 UNK         0.0800 
@<TRIPOS>BOND
     1    1    2 1    
     2    1  127 1    
     3    1  128 1    
     4    1  129 1    
     5    2    3 2    
     6    2    4 am   BACKBONE|DICT|INTERRES
     7    4    5 1    
     8    4  130 1    
     9    5    6 1    
    10    5   65 1    
    11    5  131 1    
    12    6    7 1    
    13    6  132 1    
    14    6  133 1    
    15    7    8 1    
    16    8    9 1    
    17    8  134 1    
    18    8  135 1    
    19    9   10 ar   
    20    9   14 ar   
    21   10   11 ar   
    22   10  136 1    
    23   11   12 ar   
    24   11  126 1    
    25   12   13 ar   
    26   12  137 1    
    27   13   14 ar   
    28   13   15 1    
    29   14  138 1    
    30   15   16 1    
    31   15  139 1    
    32   15  140 1    
    33   16   17 1    
    34   17   18 1    
    35   17  141 1    
    36   17  142 1    
    37   18   19 1    
    38   18   67 1    
    39   18  143 1    
    40   19   20 am   BACKBONE|DICT|INTERRES
    41   19  144 1    
    42   20   21 2    
    43   20   22 1    
    44   22   23 1    
    45   22   24 1    
    46   22  145 1    
    47   23  146 1    
    48   23  147 1    
    49   23  148 1    
    50   24   25 am   BACKBONE|DICT|INTERRES
    51   24  149 1    
    52   25   26 2    
    53   25   27 1    
    54   27   28 1    
    55   27   29 1    
    56   27  150 1    
    57   28  151 1    
    58   28  152 1    
    59   28  153 1    
    60   29   30 am   BACKBONE|DICT|INTERRES
    61   29  154 1    
    62   30   31 2    
    63   30   32 1    
    64   32   33 1    
    65   32   34 1    
    66   32  155 1    
    67   33  156 1    
    68   33  157 1    
    69   33  158 1    
    70   34   35 am   BACKBONE|DICT|INTERRES
    71   34  159 1    
    72   35   36 2    
    73   35   37 1    
    74   37   38 1    
    75   37   39 1    
    76   37  160 1    
    77   38  161 1    
    78   38  162 1    
    79   38  163 1    
    80   39   40 am   BACKBONE|DICT|INTERRES
    81   39  164 1    
    82   40   41 2    
    83   40   42 1    
    84   42   43 1    
    85   42   44 1    
    86   42  165 1    
    87   43  166 1    
    88   43  167 1    
    89   43  168 1    
    90   44   45 am   BACKBONE|DICT|INTERRES
    91   44  169 1    
    92   45   46 2    
    93   45   47 1    
    94   47   48 1    
    95   47   49 1    
    96   47  170 1    
    97   48  171 1    
    98   48  172 1    
    99   48  173 1    
   100   49   50 am   BACKBONE|DICT|INTERRES
   101   49  174 1    
   102   50   51 2    
   103   50   52 1    
   104   52   53 1    
   105   52   54 1    
   106   52  175 1    
   107   53  176 1    
   108   53  177 1    
   109   53  178 1    
   110   54   55 am   BACKBONE|DICT|INTERRES
   111   54  179 1    
   112   55   56 2    
   113   55   57 1    
   114   57   58 1    
   115   57   59 1    
   116   57  180 1    
   117   58  181 1    
   118   58  182 1    
   119   58  183 1    
   120   59   60 am   BACKBONE|DICT|INTERRES
   121   59  184 1    
   122   60   61 2    
   123   60   62 1    
   124   62   63 1    
   125   62   64 1    
   126   62  185 1    
   127   63  186 1    
   128   63  187 1    
   129   63  188 1    
   130   64   65 am   BACKBONE|DICT|INTERRES
   131   64  189 1    
   132   65   66 2    
   133   67   68 2    
   134   67   69 am   BACKBONE|DICT|INTERRES
   135   69   70 1    
   136   69  190 1    
   137   70   71 1    
   138   70   72 1    
   139   70  191 1    
   140   71  192 1    
   141   71  193 1    
   142   71  194 1    
   143   72   73 2    
   144   72   74 am   BACKBONE|DICT|INTERRES
   145   74   75 1    
   146   74  195 1    
   147   75   76 1    
   148   75   77 1    
   149   75  196 1    
   150   76  197 1    
   151   76  198 1    
   152   76  199 1    
   153   77   78 2    
   154   77   79 am   BACKBONE|DICT|INTERRES
   155   79   80 1    
   156   79  200 1    
   157   80   81 1    
   158   80   82 1    
   159   80  201 1    
   160   81  202 1    
   161   81  203 1    
   162   81  204 1    
   163   82   83 2    
   164   82   84 am   BACKBONE|DICT|INTERRES
   165   84   85 1    
   166   84  205 1    
   167   85   86 1    
   168   85   87 1    
   169   85  206 1    
   170   86  207 1    
   171   86  208 1    
   172   86  209 1    
   173   87   88 2    
   174   87   89 am   BACKBONE|DICT|INTERRES
   175   89   90 1    
   176   89  210 1    
   177   90   91 1    
   178   90   92 1    
   179   90  211 1    
   180   91  212 1    
   181   91  213 1    
   182   91  214 1    
   183   92   93 2    
   184   92   94 am   BACKBONE|DICT|INTERRES
   185   94   95 1    
   186   94  215 1    
   187   95   96 1    
   188   95   97 1    
   189   95  216 1    
   190   96  217 1    
   191   96  218 1    
   192   96  219 1    
   193   97   98 2    
   194   97   99 am   BACKBONE|DICT|INTERRES
   195   99  100 1    
   196   99  220 1    
   197  100  101 1    
   198  100  102 1    
   199  100  221 1    
   200  101  222 1    
   201  101  223 1    
   202  101  224 1    
   203  102  103 2    
   204  102  104 am   BACKBONE|DICT|INTERRES
   205  104  105 1    
   206  104  225 1    
   207  105  106 1    
   208  105  107 1    
   209  105  226 1    
   210  106  227 1    
   211  106  228 1    
   212  106  229 1    
   213  107  108 2    
   214  107  109 am   BACKBONE|DICT|INTERRES
   215  109  110 1    
   216  109  230 1    
   217  110  111 1    
   218  110  112 1    
   219  110  231 1    
   220  111  232 1    
   221  111  233 1    
   222  111  234 1    
   223  112  113 2    
   224  112  114 am   BACKBONE|DICT|INTERRES
   225  114  115 1    
   226  114  235 1    
   227  115  116 1    
   228  115  117 1    
   229  115  236 1    
   230  116  237 1    
   231  116  238 1    
   232  116  239 1    
   233  117  118 2    
   234  117  119 am   BACKBONE|DICT|INTERRES
   235  119  120 1    
   236  119  240 1    
   237  120  121 1    
   238  120  124 1    
   239  120  241 1    
   240  121  122 am   BACKBONE|DICT|INTERRES
   241  121  123 2    
   242  122  242 1    
   243  122  243 1    
   244  124  125 1    
   245  124  244 1    
   246  124  245 1    
   247  125  126 1    
   248  126  246 1    
   249  126  247 1    
@<TRIPOS>SUBSTRUCTURE
     1 UNK         1 GROUP             0       ****    0 ROOT    
