@<TRIPOS>MOLECULE
3R540
247   249    1
SMALL
USER_CHARGES


@<TRIPOS>ATOM
      1 CA         -2.4927  -18.2388  -41.8163 C.3       0 UNK        -0.1800 
      2 C          -2.4859  -16.8320  -42.3946 C.2       0 UNK         0.5000 
      3 O          -2.8006  -15.8783  -41.6830 O.2       0 UNK        -0.5000 
      4 N          -2.1479  -16.7066  -43.6840 N.am      1 UNK        -0.5000 
      5 CA         -2.1492  -15.4504  -44.4425 C.3       1 UNK         0.1400 
      6 C6         -1.8972  -15.6829  -45.9506 C.3       23 UNK        -0.0398 
      7 S7         -3.1120  -16.8132  -46.7089 S.3       23 UNK        -0.2404 
      8 C8         -2.9921  -16.3391  -48.4710 C.3       23 UNK        -0.0205 
      9 C9         -1.8712  -17.0046  -49.2745 C.ar      23 UNK        -0.0193 
     10 C10        -1.9429  -16.9553  -50.6699 C.ar      23 UNK        -0.1150 
     11 C11        -0.9598  -17.5532  -51.4636 C.ar      23 UNK        -0.0193 
     12 C12         0.1141  -18.2055  -50.8523 C.ar      23 UNK        -0.1150 
     13 C13         0.2168  -18.2437  -49.4612 C.ar      23 UNK        -0.0193 
     14 C14        -0.7785  -17.6495  -48.6803 C.ar      23 UNK        -0.1150 
     15 C15         1.4173  -18.9000  -48.7952 C.3       23 UNK        -0.0205 
     16 S16         1.2679  -20.7126  -48.6961 S.3       23 UNK        -0.2404 
     17 C17        -0.3756  -20.9041  -47.9359 C.3       23 UNK        -0.0398 
     18 CA         -0.5909  -22.3189  -47.3590 C.3       11 UNK         0.1400 
     19 N           0.2207  -22.5709  -46.1642 N.am      11 UNK        -0.5000 
     20 C           0.4676  -23.7926  -45.6699 C.2       10 UNK         0.5000 
     21 O           0.0340  -24.8290  -46.1697 O.2       10 UNK        -0.5000 
     22 CA          1.2854  -23.8685  -44.3674 C.3       10 UNK         0.1400 
     23 CB          2.7887  -23.7734  -44.6664 C.3       10 UNK        -0.1800 
     24 N           0.9153  -22.8324  -43.4030 N.am      10 UNK        -0.5000 
     25 C          -0.3053  -22.6853  -42.8687 C.2       9 UNK         0.5000 
     26 O          -1.2414  -23.4510  -43.0926 O.2       9 UNK        -0.5000 
     27 CA         -0.5403  -21.4531  -41.9770 C.3       9 UNK         0.1400 
     28 CB         -0.4107  -21.8252  -40.4936 C.3       9 UNK        -0.1800 
     29 N           0.3551  -20.3314  -42.2690 N.am      9 UNK        -0.5000 
     30 C           0.4259  -19.6592  -43.4242 C.2       8 UNK         0.5000 
     31 O          -0.2834  -19.9099  -44.4013 O.2       8 UNK        -0.5000 
     32 CA          1.4677  -18.5240  -43.4771 C.3       8 UNK         0.1400 
     33 CB          1.6115  -17.9186  -44.8805 C.3       8 UNK        -0.1800 
     34 N           1.1809  -17.4484  -42.5287 N.am      8 UNK        -0.5000 
     35 C           1.3960  -17.4919  -41.2058 C.2       7 UNK         0.5000 
     36 O           1.7685  -18.5042  -40.6083 O.2       7 UNK        -0.5000 
     37 CA          1.1926  -16.1630  -40.4470 C.3       7 UNK         0.1400 
     38 CB          1.7471  -16.1897  -39.0077 C.3       7 UNK        -0.1800 
     39 N           1.7321  -15.0247  -41.1997 N.am      7 UNK        -0.5000 
     40 C           2.9964  -14.8565  -41.6113 C.2       6 UNK         0.5000 
     41 O           3.9421  -15.5812  -41.2907 O.2       6 UNK        -0.5000 
     42 CA          3.2409  -13.6907  -42.5732 C.3       6 UNK         0.1400 
     43 CB          3.7774  -12.4531  -41.8346 C.3       6 UNK        -0.1800 
     44 N           4.1922  -14.1334  -43.5864 N.am      6 UNK        -0.5000 
     45 C           4.2459  -13.6627  -44.8348 C.2       5 UNK         0.5000 
     46 O           3.5515  -12.7233  -45.2290 O.2       5 UNK        -0.5000 
     47 CA          5.2549  -14.3079  -45.8085 C.3       5 UNK         0.1400 
     48 CB          5.7118  -15.7330  -45.4184 C.3       5 UNK        -0.1800 
     49 N           4.7364  -14.2180  -47.1785 N.am      5 UNK        -0.5000 
     50 C           3.7858  -14.9710  -47.7525 C.2       4 UNK         0.5000 
     51 O           3.4106  -16.0693  -47.3411 O.2       4 UNK        -0.5000 
     52 CA          3.0913  -14.3045  -48.9581 C.3       4 UNK         0.1400 
     53 CB          2.2323  -15.2752  -49.7953 C.3       4 UNK        -0.1800 
     54 N           2.3109  -13.1444  -48.5017 N.am      4 UNK        -0.5000 
     55 C           1.2736  -13.1635  -47.6489 C.2       3 UNK         0.5000 
     56 O           0.7018  -14.1878  -47.2668 O.2       3 UNK        -0.5000 
     57 CA          0.7897  -11.8000  -47.1300 C.3       3 UNK         0.1400 
     58 CB         -0.0997  -11.0998  -48.1699 C.3       3 UNK        -0.1800 
     59 N           0.0096  -12.0326  -45.9191 N.am      3 UNK        -0.5000 
     60 C           0.2049  -11.4710  -44.7217 C.2       2 UNK         0.5000 
     61 O           0.9962  -10.5497  -44.5183 O.2       2 UNK        -0.5000 
     62 CA         -0.6372  -12.0179  -43.5477 C.3       2 UNK         0.1400 
     63 CB         -1.5354  -10.9154  -42.9633 C.3       2 UNK        -0.1800 
     64 N          -1.4855  -13.1521  -43.9303 N.am      2 UNK        -0.5000 
     65 C          -1.1190  -14.4397  -43.8972 C.2       1 UNK         0.5000 
     66 O          -0.0211  -14.8358  -43.4990 O.2       1 UNK        -0.5000 
     67 C          -2.0892  -22.5633  -47.1041 C.2       11 UNK         0.5000 
     68 O          -2.7984  -22.9399  -48.0378 O.2       11 UNK        -0.5000 
     69 N          -2.5474  -22.3633  -45.8614 N.am      12 UNK        -0.5000 
     70 CA         -3.9074  -22.6913  -45.4386 C.3       12 UNK         0.1400 
     71 CB         -4.2352  -21.9663  -44.1240 C.3       12 UNK        -0.1800 
     72 C          -4.0986  -24.2136  -45.3106 C.2       12 UNK         0.5000 
     73 O          -5.0920  -24.7426  -45.8080 O.2       12 UNK        -0.5000 
     74 N          -3.1230  -24.8917  -44.6886 N.am      13 UNK        -0.5000 
     75 CA         -3.0913  -26.3429  -44.4951 C.3       13 UNK         0.1400 
     76 CB         -1.9345  -26.7052  -43.5514 C.3       13 UNK        -0.1800 
     77 C          -2.9832  -27.1290  -45.8147 C.2       13 UNK         0.5000 
     78 O          -3.6890  -28.1230  -45.9884 O.2       13 UNK        -0.5000 
     79 N          -2.1260  -26.6568  -46.7306 N.am      14 UNK        -0.5000 
     80 CA         -1.9490  -27.2198  -48.0728 C.3       14 UNK         0.1400 
     81 CB         -0.6036  -26.7393  -48.6404 C.3       14 UNK        -0.1800 
     82 C          -3.0894  -26.8570  -49.0450 C.2       14 UNK         0.5000 
     83 O          -3.1624  -27.4408  -50.1264 O.2       14 UNK        -0.5000 
     84 N          -3.9272  -25.8821  -48.6608 N.am      15 UNK        -0.5000 
     85 CA         -5.0248  -25.2787  -49.4240 C.3       15 UNK         0.1400 
     86 CB         -6.1025  -26.3204  -49.7874 C.3       15 UNK        -0.1800 
     87 C          -4.5566  -24.4586  -50.6445 C.2       15 UNK         0.5000 
     88 O          -5.3763  -24.1110  -51.4931 O.2       15 UNK        -0.5000 
     89 N          -3.2652  -24.1041  -50.6874 N.am      16 UNK        -0.5000 
     90 CA         -2.6502  -23.2301  -51.6876 C.3       16 UNK         0.1400 
     91 CB         -1.1293  -23.2243  -51.4740 C.3       16 UNK        -0.1800 
     92 C          -3.2066  -21.7957  -51.6373 C.2       16 UNK         0.5000 
     93 O          -3.3406  -21.1556  -52.6819 O.2       16 UNK        -0.5000 
     94 N          -3.5582  -21.3415  -50.4259 N.am      17 UNK        -0.5000 
     95 CA         -4.2349  -20.0710  -50.1757 C.3       17 UNK         0.1400 
     96 CB         -4.2393  -19.7919  -48.6647 C.3       17 UNK        -0.1800 
     97 C          -5.6720  -20.0570  -50.7278 C.2       17 UNK         0.5000 
     98 O          -6.0888  -19.0603  -51.3169 O.2       17 UNK        -0.5000 
     99 N          -6.3924  -21.1721  -50.5407 N.am      18 UNK        -0.5000 
    100 CA        -7.7703  -21.3631  -50.9969 C.3       18 UNK         0.1400 
    101 CB        -8.3932  -22.5528  -50.2502 C.3       18 UNK        -0.1800 
    102 C         -7.8589  -21.5640  -52.5197 C.2       18 UNK         0.5000 
    103 O         -8.7570  -21.0129  -53.1567 O.2       18 UNK        -0.5000 
    104 N         -6.9091  -22.3277  -53.0763 N.am      19 UNK        -0.5000 
    105 CA        -6.7598  -22.5759  -54.5113 C.3       19 UNK         0.1400 
    106 CB        -5.8054  -23.7640  -54.7097 C.3       19 UNK        -0.1800 
    107 C         -6.2494  -21.3519  -55.2966 C.2       19 UNK         0.5000 
    108 O         -6.3902  -21.3275  -56.5198 O.2       19 UNK        -0.5000 
    109 N         -5.6595  -20.3789  -54.5851 N.am      20 UNK        -0.5000 
    110 CA        -5.0099  -19.1686  -55.0914 C.3       20 UNK         0.1400 
    111 CB        -6.0280  -18.2277  -55.7679 C.3       20 UNK        -0.1800 
    112 C         -3.8020  -19.5119  -55.9840 C.2       20 UNK         0.5000 
    113 O         -3.6969  -19.0328  -57.1156 O.2       20 UNK        -0.5000 
    114 N         -2.8995  -20.3415  -55.4386 N.am      21 UNK        -0.5000 
    115 CA        -1.6944  -20.8674  -56.0955 C.3       21 UNK         0.1400 
    116 CB        -0.9986  -21.8381  -55.1302 C.3       21 UNK        -0.1800 
    117 C         -0.6988  -19.7914  -56.5815 C.2       21 UNK         0.5000 
    118 O          0.1390  -20.0756  -57.4382 O.2       21 UNK        -0.5000 
    119 N         -0.8260  -18.5780  -56.0356 N.am      22 UNK        -0.5000 
    120 CA        -0.1280  -17.3557  -56.4515 C.3       22 UNK         0.1400 
    121 C         -0.5498  -16.8309  -57.8574 C.2       22 UNK         0.5000 
    122 N         -1.6788  -17.2499  -58.4199 N.am      22 UNK        -0.7600 
    123 O          0.1650  -16.0269  -58.4494 O.2       22 UNK        -0.5000 
    124 C124       -0.2990  -16.2337  -55.3946 C.3       23 UNK        -0.0398 
    125 S125        0.3547  -16.6622  -53.7435 S.3       23 UNK        -0.2404 
    126 C126       -1.0703  -17.5073  -52.9789 C.3       23 UNK        -0.0205 
    127 H127       -3.3906  -18.3973  -41.2193 H         1 UNK         0.0600 
    128 H128       -1.6249  -18.3901  -41.1751 H         1 UNK         0.0600 
    129 H129       -2.4800  -18.9901  -42.6056 H         1 UNK         0.0600 
    130 H130       -1.9027  -17.5301  -44.2153 H         1 UNK         0.3000 
    131 H131       -3.1437  -15.0136  -44.3288 H         1 UNK         0.0600 
    132 H132       -1.9398  -14.7327  -46.4853 H         1 UNK         0.0800 
    133 H133       -0.8936  -16.0734  -46.1154 H         1 UNK         0.0800 
    134 H134       -2.8942  -15.2563  -48.5561 H         1 UNK         0.0800 
    135 H135       -3.9459  -16.5909  -48.9366 H         1 UNK         0.0800 
    136 H136       -2.7770  -16.4539  -51.1405 H         1 UNK         0.1150 
    137 H137        0.8791  -18.6679  -51.4600 H         1 UNK         0.1150 
    138 H138       -0.6849  -17.6983  -47.6076 H         1 UNK         0.1150 
    139 H139        1.5602  -18.4892  -47.7970 H         1 UNK         0.0800 
    140 H140        2.3227  -18.6498  -49.3498 H         1 UNK         0.0800 
    141 H141       -1.1062  -20.6886  -48.7179 H         1 UNK         0.0800 
    142 H142       -0.5145  -20.1489  -47.1603 H         1 UNK         0.0800 
    143 H143       -0.2903  -23.0410  -48.1213 H         1 UNK         0.0600 
    144 H144        0.5661  -21.7579  -45.6729 H         1 UNK         0.3000 
    145 H145        1.0879  -24.8389  -43.9073 H         1 UNK         0.0600 
    146 H146        3.0954  -24.5472  -45.3715 H         1 UNK         0.0600 
    147 H147        3.3804  -23.9080  -43.7608 H         1 UNK         0.0600 
    148 H148        3.0541  -22.8090  -45.1016 H         1 UNK         0.0600 
    149 H149        1.6274  -22.1615  -43.1568 H         1 UNK         0.3000 
    150 H150       -1.5638  -21.1209  -42.1560 H         1 UNK         0.0600 
    151 H151        0.6032  -22.1419  -40.2458 H         1 UNK         0.0600 
    152 H152       -1.0843  -22.6433  -40.2347 H         1 UNK         0.0600 
    153 H153       -0.6646  -20.9807  -39.8525 H         1 UNK         0.0600 
    154 H154        0.9437  -20.0045  -41.5075 H         1 UNK         0.3000 
    155 H155        2.4329  -18.9612  -43.2132 H         1 UNK         0.0600 
    156 H156        2.3539  -17.1201  -44.8969 H         1 UNK         0.0600 
    157 H157        0.6709  -17.5066  -45.2434 H         1 UNK         0.0600 
    158 H158        1.9389  -18.6794  -45.5882 H         1 UNK         0.0600 
    159 H159        0.8491  -16.5755  -42.9282 H         1 UNK         0.3000 
    160 H160        0.1142  -16.0093  -40.3845 H         1 UNK         0.0600 
    161 H161        2.8168  -16.3995  -38.9868 H         1 UNK         0.0600 
    162 H162        1.2525  -16.9596  -38.4144 H         1 UNK         0.0600 
    163 H163        1.5822  -15.2370  -38.5046 H         1 UNK         0.0600 
    164 H164        1.0282  -14.4210  -41.6052 H         1 UNK         0.3000 
    165 H165        2.2958  -13.4359  -43.0570 H         1 UNK         0.0600 
    166 H166        3.0813  -12.1294  -41.0599 H         1 UNK         0.0600 
    167 H167        4.7353  -12.6563  -41.3544 H         1 UNK         0.0600 
    168 H168        3.9149  -11.6147  -42.5178 H         1 UNK         0.0600 
    169 H169        4.7677  -14.9188  -43.3103 H         1 UNK         0.3000 
    170 H170        6.1396  -13.6703  -45.7874 H         1 UNK         0.0600 
    171 H171        6.3229  -16.1781  -46.2035 H         1 UNK         0.0600 
    172 H172        4.8695  -16.3999  -45.2320 H         1 UNK         0.0600 
    173 H173        6.3192  -15.7145  -44.5130 H         1 UNK         0.0600 
    174 H174        4.9259  -13.3282  -47.6175 H         1 UNK         0.3000 
    175 H175        3.8771  -13.9227  -49.6117 H         1 UNK         0.0600 
    176 H176        1.7843  -14.7708  -50.6513 H         1 UNK         0.0600 
    177 H177        2.8371  -16.0965  -50.1805 H         1 UNK         0.0600 
    178 H178        1.4255  -15.7155  -49.2113 H         1 UNK         0.0600 
    179 H179        2.6902  -12.2444  -48.7601 H         1 UNK         0.3000 
    180 H180        1.6629  -11.1810  -46.9132 H         1 UNK         0.0600 
    181 H181       -0.9656  -11.7085  -48.4338 H         1 UNK         0.0600 
    182 H182        0.4532  -10.8983  -49.0880 H         1 UNK         0.0600 
    183 H183       -0.4647  -10.1438  -47.7940 H         1 UNK         0.0600 
    184 H184       -0.5861  -12.8459  -45.9667 H         1 UNK         0.3000 
    185 H185        0.0590  -12.3327  -42.7680 H         1 UNK         0.0600 
    186 H186       -2.1035  -11.2820  -42.1081 H         1 UNK         0.0600 
    187 H187       -2.2442  -10.5395  -43.7021 H         1 UNK         0.0600 
    188 H188       -0.9425  -10.0680  -42.6165 H         1 UNK         0.0600 
    189 H189       -2.4090  -12.9139  -44.2641 H         1 UNK         0.3000 
    190 H190       -1.9030  -22.0558  -45.1471 H         1 UNK         0.3000 
    191 H191       -4.6024  -22.3293  -46.1995 H         1 UNK         0.0600 
    192 H192       -4.1096  -20.8882  -44.2270 H         1 UNK         0.0600 
    193 H193       -5.2701  -22.1468  -43.8311 H         1 UNK         0.0600 
    194 H194       -3.6023  -22.3000  -43.3023 H         1 UNK         0.0600 
    195 H195       -2.3615  -24.3668  -44.2650 H         1 UNK         0.3000 
    196 H196       -4.0265  -26.6334  -44.0121 H         1 UNK         0.0600 
    197 H197       -1.8984  -27.7801  -43.3704 H         1 UNK         0.0600 
    198 H198       -2.0476  -26.2156  -42.5839 H         1 UNK         0.0600 
    199 H199       -0.9701  -26.4079  -43.9646 H         1 UNK         0.0600 
    200 H200       -1.5225  -25.8750  -46.4865 H         1 UNK         0.3000 
    201 H201       -1.9173  -28.3084  -47.9937 H         1 UNK         0.0600 
    202 H202       -0.4102  -27.1784  -49.6199 H         1 UNK         0.0600 
    203 H203        0.2233  -27.0239  -47.9895 H         1 UNK         0.0600 
    204 H204       -0.5805  -25.6549  -48.7567 H         1 UNK         0.0600 
    205 H205       -3.7711  -25.4738  -47.7491 H         1 UNK         0.3000 
    206 H206       -5.4865  -24.5579  -48.7477 H         1 UNK         0.0600 
    207 H207       -6.4178  -26.8833  -48.9088 H         1 UNK         0.0600 
    208 H208       -6.9904  -25.8385  -50.1978 H         1 UNK         0.0600 
    209 H209       -5.7473  -27.0310  -50.5337 H         1 UNK         0.0600 
    210 H210       -2.6904  -24.3646  -49.8993 H         1 UNK         0.3000 
    211 H211       -2.8639  -23.6401  -52.6764 H         1 UNK         0.0600 
    212 H212       -0.7146  -24.2288  -51.5605 H         1 UNK         0.0600 
    213 H213       -0.6295  -22.6020  -52.2161 H         1 UNK         0.0600 
    214 H214       -0.8621  -22.8342  -50.4918 H         1 UNK         0.0600 
    215 H215       -3.3957  -21.9420  -49.6233 H         1 UNK         0.3000 
    216 H216       -3.6745  -19.2781  -50.6746 H         1 UNK         0.0600 
    217 H217       -4.7011  -20.6048  -48.1036 H         1 UNK         0.0600 
    218 H218       -4.7947  -18.8819  -48.4361 H         1 UNK         0.0600 
    219 H219       -3.2278  -19.6550  -48.2841 H         1 UNK         0.0600 
    220 H220       -5.9549  -21.9563  -50.0824 H         1 UNK         0.3000 
    221 H221       -8.3426  -20.4678  -50.7440 H         1 UNK         0.0600 
    222 H222       -7.8631  -23.4829  -50.4559 H         1 UNK         0.0600 
    223 H223       -8.3826  -22.3917  -49.1721 H         1 UNK         0.0600 
    224 H224       -9.4329  -22.6967  -50.5467 H         1 UNK         0.0600 
    225 H225       -6.2539  -22.8136  -52.4676 H         1 UNK         0.3000 
    226 H226       -7.7366  -22.8464  -54.9173 H         1 UNK         0.0600 
    227 H227       -6.1758  -24.6567  -54.2054 H         1 UNK         0.0600 
    228 H228       -5.6973  -24.0092  -55.7670 H         1 UNK         0.0600 
    229 H229       -4.8105  -23.5469  -54.3190 H         1 UNK         0.0600 
    230 H230       -5.5686  -20.5315  -53.5900 H         1 UNK         0.3000 
    231 H231       -4.6120  -18.6481  -54.2188 H         1 UNK         0.0600 
    232 H232       -6.4409  -18.6584  -56.6804 H         1 UNK         0.0600 
    233 H233       -5.5604  -17.2803  -56.0384 H         1 UNK         0.0600 
    234 H234       -6.8579  -18.0011  -55.0985 H         1 UNK         0.0600 
    235 H235       -3.0719  -20.6736  -54.4918 H         1 UNK         0.3000 
    236 H236       -2.0193  -21.4274  -56.9743 H         1 UNK         0.0600 
    237 H237       -0.6624  -21.3247  -54.2288 H         1 UNK         0.0600 
    238 H238       -1.6668  -22.6455  -54.8302 H         1 UNK         0.0600 
    239 H239       -0.1240  -22.2956  -55.5943 H         1 UNK         0.0600 
    240 H240       -1.5529  -18.4568  -55.3496 H         1 UNK         0.3000 
    241 H241        0.9346  -17.5961  -56.5192 H         1 UNK         0.0600 
    242 H242       -2.2939  -17.9046  -57.9462 H         1 UNK         0.3800 
    243 H243       -1.9343  -16.9025  -59.3306 H         1 UNK         0.3800 
    244 H244        0.2312  -15.3354  -55.7162 H         1 UNK         0.0800 
    245 H245       -1.3469  -15.9420  -55.3061 H         1 UNK         0.0800 
    246 H246       -1.9942  -17.0091  -53.2760 H         1 UNK         0.0800 
    247 H247       -1.1318  -18.5321  -53.3456 H         1 UNK         0.0800 
@<TRIPOS>BOND
     1    1    2 1    
     2    1  127 1    
     3    1  128 1    
     4    1  129 1    
     5    2    3 2    
     6    2    4 am   BACKBONE|DICT|INTERRES
     7    4    5 1    
     8    4  130 1    
     9    5    6 1    
    10    5   65 1    
    11    5  131 1    
    12    6    7 1    
    13    6  132 1    
    14    6  133 1    
    15    7    8 1    
    16    8    9 1    
    17    8  134 1    
    18    8  135 1    
    19    9   10 ar   
    20    9   14 ar   
    21   10   11 ar   
    22   10  136 1    
    23   11   12 ar   
    24   11  126 1    
    25   12   13 ar   
    26   12  137 1    
    27   13   14 ar   
    28   13   15 1    
    29   14  138 1    
    30   15   16 1    
    31   15  139 1    
    32   15  140 1    
    33   16   17 1    
    34   17   18 1    
    35   17  141 1    
    36   17  142 1    
    37   18   19 1    
    38   18   67 1    
    39   18  143 1    
    40   19   20 am   BACKBONE|DICT|INTERRES
    41   19  144 1    
    42   20   21 2    
    43   20   22 1    
    44   22   23 1    
    45   22   24 1    
    46   22  145 1    
    47   23  146 1    
    48   23  147 1    
    49   23  148 1    
    50   24   25 am   BACKBONE|DICT|INTERRES
    51   24  149 1    
    52   25   26 2    
    53   25   27 1    
    54   27   28 1    
    55   27   29 1    
    56   27  150 1    
    57   28  151 1    
    58   28  152 1    
    59   28  153 1    
    60   29   30 am   BACKBONE|DICT|INTERRES
    61   29  154 1    
    62   30   31 2    
    63   30   32 1    
    64   32   33 1    
    65   32   34 1    
    66   32  155 1    
    67   33  156 1    
    68   33  157 1    
    69   33  158 1    
    70   34   35 am   BACKBONE|DICT|INTERRES
    71   34  159 1    
    72   35   36 2    
    73   35   37 1    
    74   37   38 1    
    75   37   39 1    
    76   37  160 1    
    77   38  161 1    
    78   38  162 1    
    79   38  163 1    
    80   39   40 am   BACKBONE|DICT|INTERRES
    81   39  164 1    
    82   40   41 2    
    83   40   42 1    
    84   42   43 1    
    85   42   44 1    
    86   42  165 1    
    87   43  166 1    
    88   43  167 1    
    89   43  168 1    
    90   44   45 am   BACKBONE|DICT|INTERRES
    91   44  169 1    
    92   45   46 2    
    93   45   47 1    
    94   47   48 1    
    95   47   49 1    
    96   47  170 1    
    97   48  171 1    
    98   48  172 1    
    99   48  173 1    
   100   49   50 am   BACKBONE|DICT|INTERRES
   101   49  174 1    
   102   50   51 2    
   103   50   52 1    
   104   52   53 1    
   105   52   54 1    
   106   52  175 1    
   107   53  176 1    
   108   53  177 1    
   109   53  178 1    
   110   54   55 am   BACKBONE|DICT|INTERRES
   111   54  179 1    
   112   55   56 2    
   113   55   57 1    
   114   57   58 1    
   115   57   59 1    
   116   57  180 1    
   117   58  181 1    
   118   58  182 1    
   119   58  183 1    
   120   59   60 am   BACKBONE|DICT|INTERRES
   121   59  184 1    
   122   60   61 2    
   123   60   62 1    
   124   62   63 1    
   125   62   64 1    
   126   62  185 1    
   127   63  186 1    
   128   63  187 1    
   129   63  188 1    
   130   64   65 am   BACKBONE|DICT|INTERRES
   131   64  189 1    
   132   65   66 2    
   133   67   68 2    
   134   67   69 am   BACKBONE|DICT|INTERRES
   135   69   70 1    
   136   69  190 1    
   137   70   71 1    
   138   70   72 1    
   139   70  191 1    
   140   71  192 1    
   141   71  193 1    
   142   71  194 1    
   143   72   73 2    
   144   72   74 am   BACKBONE|DICT|INTERRES
   145   74   75 1    
   146   74  195 1    
   147   75   76 1    
   148   75   77 1    
   149   75  196 1    
   150   76  197 1    
   151   76  198 1    
   152   76  199 1    
   153   77   78 2    
   154   77   79 am   BACKBONE|DICT|INTERRES
   155   79   80 1    
   156   79  200 1    
   157   80   81 1    
   158   80   82 1    
   159   80  201 1    
   160   81  202 1    
   161   81  203 1    
   162   81  204 1    
   163   82   83 2    
   164   82   84 am   BACKBONE|DICT|INTERRES
   165   84   85 1    
   166   84  205 1    
   167   85   86 1    
   168   85   87 1    
   169   85  206 1    
   170   86  207 1    
   171   86  208 1    
   172   86  209 1    
   173   87   88 2    
   174   87   89 am   BACKBONE|DICT|INTERRES
   175   89   90 1    
   176   89  210 1    
   177   90   91 1    
   178   90   92 1    
   179   90  211 1    
   180   91  212 1    
   181   91  213 1    
   182   91  214 1    
   183   92   93 2    
   184   92   94 am   BACKBONE|DICT|INTERRES
   185   94   95 1    
   186   94  215 1    
   187   95   96 1    
   188   95   97 1    
   189   95  216 1    
   190   96  217 1    
   191   96  218 1    
   192   96  219 1    
   193   97   98 2    
   194   97   99 am   BACKBONE|DICT|INTERRES
   195   99  100 1    
   196   99  220 1    
   197  100  101 1    
   198  100  102 1    
   199  100  221 1    
   200  101  222 1    
   201  101  223 1    
   202  101  224 1    
   203  102  103 2    
   204  102  104 am   BACKBONE|DICT|INTERRES
   205  104  105 1    
   206  104  225 1    
   207  105  106 1    
   208  105  107 1    
   209  105  226 1    
   210  106  227 1    
   211  106  228 1    
   212  106  229 1    
   213  107  108 2    
   214  107  109 am   BACKBONE|DICT|INTERRES
   215  109  110 1    
   216  109  230 1    
   217  110  111 1    
   218  110  112 1    
   219  110  231 1    
   220  111  232 1    
   221  111  233 1    
   222  111  234 1    
   223  112  113 2    
   224  112  114 am   BACKBONE|DICT|INTERRES
   225  114  115 1    
   226  114  235 1    
   227  115  116 1    
   228  115  117 1    
   229  115  236 1    
   230  116  237 1    
   231  116  238 1    
   232  116  239 1    
   233  117  118 2    
   234  117  119 am   BACKBONE|DICT|INTERRES
   235  119  120 1    
   236  119  240 1    
   237  120  121 1    
   238  120  124 1    
   239  120  241 1    
   240  121  122 am   BACKBONE|DICT|INTERRES
   241  121  123 2    
   242  122  242 1    
   243  122  243 1    
   244  124  125 1    
   245  124  244 1    
   246  124  245 1    
   247  125  126 1    
   248  126  246 1    
   249  126  247 1    
@<TRIPOS>SUBSTRUCTURE
     1 UNK         1 GROUP             0       ****    0 ROOT    
