@<TRIPOS>MOLECULE
3R540
247   249    1
SMALL
USER_CHARGES


@<TRIPOS>ATOM
      1 CA          0.5261  -11.6564  -51.7823 C.3       0 UNK        -0.1800 
      2 C           1.4262  -12.1736  -50.6697 C.2       0 UNK         0.5000 
      3 O           1.6767  -11.4611  -49.6983 O.2       0 UNK        -0.5000 
      4 N           1.8984  -13.4208  -50.7947 N.am      1 UNK        -0.5000 
      5 CA          2.8080  -14.1019  -49.8582 C.3       1 UNK         0.1400 
      6 C6          3.3544  -15.4507  -50.4092 C.3       23 UNK        -0.0398 
      7 S7          3.6780  -15.4375  -52.2186 S.3       23 UNK        -0.2404 
      8 C8          2.5022  -16.6441  -52.9437 C.3       23 UNK        -0.0205 
      9 C9          1.2008  -16.7935  -52.1675 C.ar      23 UNK        -0.0193 
     10 C10         0.2267  -15.7933  -52.1975 C.ar      23 UNK        -0.1150 
     11 C11        -0.9351  -15.9139  -51.4288 C.ar      23 UNK        -0.0193 
     12 C12        -1.1188  -17.0511  -50.6348 C.ar      23 UNK        -0.1150 
     13 C13        -0.1581  -18.0663  -50.6013 C.ar      23 UNK        -0.0193 
     14 C14         0.9902  -17.9341  -51.3895 C.ar      23 UNK        -0.1150 
     15 C15        -0.3878  -19.2939  -49.7196 C.3       23 UNK        -0.0205 
     16 S16         1.1495  -20.0018  -49.0201 S.3       23 UNK        -0.2404 
     17 C17         0.7238  -20.2135  -47.2602 C.3       23 UNK        -0.0398 
     18 CA          0.2330  -21.6407  -46.9162 C.3       11 UNK         0.1400 
     19 N           0.2872  -21.8935  -45.4754 N.am      11 UNK        -0.5000 
     20 C          -0.0053  -23.0537  -44.8712 C.2       10 UNK         0.5000 
     21 O          -0.3168  -24.0830  -45.4676 O.2       10 UNK        -0.5000 
     22 CA         -0.0011  -23.0447  -43.3342 C.3       10 UNK         0.1400 
     23 CB          1.4258  -23.1900  -42.7843 C.3       10 UNK        -0.1800 
     24 N          -0.6151  -21.8300  -42.8000 N.am      10 UNK        -0.5000 
     25 C          -1.9218  -21.5440  -42.8854 C.2       9 UNK         0.5000 
     26 O          -2.7582  -22.2947  -43.3899 O.2       9 UNK        -0.5000 
     27 CA         -2.3526  -20.1638  -42.3563 C.3       9 UNK         0.1400 
     28 CB         -2.4599  -20.1743  -40.8240 C.3       9 UNK        -0.1800 
     29 N          -1.4454  -19.0922  -42.7725 N.am      9 UNK        -0.5000 
     30 C          -1.2679  -18.7087  -44.0439 C.2       8 UNK         0.5000 
     31 O          -1.8496  -19.2160  -45.0008 O.2       8 UNK        -0.5000 
     32 CA         -0.2449  -17.5912  -44.2999 C.3       8 UNK         0.1400 
     33 CB         -0.8917  -16.2258  -44.0425 C.3       8 UNK        -0.1800 
     34 N           0.9855  -17.6941  -43.5136 N.am      8 UNK        -0.5000 
     35 C           1.7966  -18.7587  -43.4357 C.2       7 UNK         0.5000 
     36 O           1.5525  -19.8454  -43.9585 O.2       7 UNK        -0.5000 
     37 CA          3.1040  -18.5830  -42.6459 C.3       7 UNK         0.1400 
     38 CB          4.2486  -18.2031  -43.5978 C.3       7 UNK        -0.1800 
     39 N           2.9835  -17.5548  -41.6122 N.am      7 UNK        -0.5000 
     40 C           2.6200  -17.7883  -40.3441 C.2       6 UNK         0.5000 
     41 O           2.3803  -18.9106  -39.8974 O.2       6 UNK        -0.5000 
     42 CA          2.4990  -16.5633  -39.4151 C.3       6 UNK         0.1400 
     43 CB          3.8339  -16.2960  -38.7033 C.3       6 UNK        -0.1800 
     44 N           2.0789  -15.3470  -40.1139 N.am      6 UNK        -0.5000 
     45 C           0.8554  -15.1492  -40.6231 C.2       5 UNK         0.5000 
     46 O          -0.0665  -15.9582  -40.5159 O.2       5 UNK        -0.5000 
     47 CA          0.6272  -13.8418  -41.4090 C.3       5 UNK         0.1400 
     48 CB          0.0799  -12.7489  -40.4791 C.3       5 UNK        -0.1800 
     49 N           1.7998  -13.3172  -42.1201 N.am      5 UNK        -0.5000 
     50 C           2.5504  -13.9827  -43.0081 C.2       4 UNK         0.5000 
     51 O           2.4214  -15.1843  -43.2454 O.2       4 UNK        -0.5000 
     52 CA          3.5789  -13.1476  -43.7934 C.3       4 UNK         0.1400 
     53 CB          4.7043  -14.0150  -44.3840 C.3       4 UNK        -0.1800 
     54 N           2.8953  -12.4513  -44.8804 N.am      4 UNK        -0.5000 
     55 C           2.1687  -11.3320  -44.7371 C.2       3 UNK         0.5000 
     56 O           2.1484  -10.6647  -43.7016 O.2       3 UNK        -0.5000 
     57 CA          1.2784  -10.9122  -45.9271 C.3       3 UNK         0.1400 
     58 CB          2.0047   -9.8828  -46.8048 C.3       3 UNK        -0.1800 
     59 N           0.8580  -12.0465  -46.7555 N.am      3 UNK        -0.5000 
     60 C           0.1134  -13.0743  -46.3168 C.2       2 UNK         0.5000 
     61 O          -0.4532  -13.0667  -45.2243 O.2       2 UNK        -0.5000 
     62 CA          0.0008  -14.3324  -47.2091 C.3       2 UNK         0.1400 
     63 CB         -1.4561  -14.5790  -47.6319 C.3       2 UNK        -0.1800 
     64 N           0.8380  -14.3118  -48.4093 N.am      2 UNK        -0.5000 
     65 C           2.1787  -14.2937  -48.4582 C.2       1 UNK         0.5000 
     66 O           2.8987  -14.3579  -47.4614 O.2       1 UNK        -0.5000 
     67 C          -1.1734  -21.9079  -47.4867 C.2       11 UNK         0.5000 
     68 O          -1.3022  -22.6566  -48.4550 O.2       11 UNK        -0.5000 
     69 N          -2.1997  -21.3212  -46.8529 N.am      12 UNK        -0.5000 
     70 CA         -3.6051  -21.4807  -47.2184 C.3       12 UNK         0.1400 
     71 CB         -4.4823  -20.5756  -46.3421 C.3       12 UNK        -0.1800 
     72 C          -4.0815  -22.9386  -47.1513 C.2       12 UNK         0.5000 
     73 O          -4.7567  -23.3902  -48.0764 O.2       12 UNK        -0.5000 
     74 N          -3.6889  -23.6429  -46.0799 N.am      13 UNK        -0.5000 
     75 CA         -3.9604  -25.0626  -45.8676 C.3       13 UNK         0.1400 
     76 CB         -3.5454  -25.4580  -44.4423 C.3       13 UNK        -0.1800 
     77 C          -3.2728  -25.9622  -46.9107 C.2       13 UNK         0.5000 
     78 O          -3.9267  -26.8373  -47.4790 O.2       13 UNK        -0.5000 
     79 N          -1.9752  -25.7262  -47.1494 N.am      14 UNK        -0.5000 
     80 CA         -1.1497  -26.4890  -48.0862 C.3       14 UNK         0.1400 
     81 CB          0.3255  -26.0991  -47.9083 C.3       14 UNK        -0.1800 
     82 C          -1.5787  -26.3137  -49.5520 C.2       14 UNK         0.5000 
     83 O          -1.6400  -27.2988  -50.2903 O.2       14 UNK        -0.5000 
     84 N          -1.8830  -25.0720  -49.9494 N.am      15 UNK        -0.5000 
     85 CA         -2.3033  -24.7101  -51.3000 C.3       15 UNK         0.1400 
     86 CB         -1.9414  -23.2427  -51.5602 C.3       15 UNK        -0.1800 
     87 C          -3.7970  -25.0137  -51.5260 C.2       15 UNK         0.5000 
     88 O          -4.6187  -24.0968  -51.6262 O.2       15 UNK        -0.5000 
     89 N          -4.1061  -26.3164  -51.5863 N.am      16 UNK        -0.5000 
     90 CA         -5.4015  -26.9306  -51.9040 C.3       16 UNK         0.1400 
     91 CB         -5.8034  -26.5996  -53.3566 C.3       16 UNK        -0.1800 
     92 C          -6.5302  -26.6034  -50.9035 C.2       16 UNK         0.5000 
     93 O          -7.7045  -26.7283  -51.2546 O.2       16 UNK        -0.5000 
     94 N          -6.1600  -26.1771  -49.6861 N.am      17 UNK        -0.5000 
     95 CA         -7.0344  -25.6856  -48.6143 C.3       17 UNK         0.1400 
     96 CB         -7.9216  -26.8214  -48.0640 C.3       17 UNK        -0.1800 
     97 C          -7.8419  -24.4265  -49.0064 C.2       17 UNK         0.5000 
     98 O          -8.8955  -24.1711  -48.4196 O.2       17 UNK        -0.5000 
     99 N          -7.3475  -23.6729  -49.9981 N.am      18 UNK        -0.5000 
    100 CA        -8.0472  -22.5512  -50.6228 C.3       18 UNK         0.1400 
    101 CB        -8.7248  -23.0600  -51.9085 C.3       18 UNK        -0.1800 
    102 C         -7.1226  -21.3578  -50.9200 C.2       18 UNK         0.5000 
    103 O         -7.5895  -20.3866  -51.5168 O.2       18 UNK        -0.5000 
    104 N         -5.8399  -21.4436  -50.5298 N.am      19 UNK        -0.5000 
    105 CA        -4.7705  -20.4882  -50.8508 C.3       19 UNK         0.1400 
    106 CB        -4.9953  -19.1337  -50.1457 C.3       19 UNK        -0.1800 
    107 C         -4.5372  -20.3515  -52.3703 C.2       19 UNK         0.5000 
    108 O         -4.3200  -19.2467  -52.8702 O.2       19 UNK        -0.5000 
    109 N         -4.5762  -21.4909  -53.0789 N.am      20 UNK        -0.5000 
    110 CA        -4.4807  -21.5955  -54.5404 C.3       20 UNK         0.1400 
    111 CB        -4.6462  -23.0678  -54.9445 C.3       20 UNK        -0.1800 
    112 C         -3.1896  -21.0083  -55.1473 C.2       20 UNK         0.5000 
    113 O         -3.2041  -20.5607  -56.2949 O.2       20 UNK        -0.5000 
    114 N         -2.1131  -20.9696  -54.3500 N.am      21 UNK        -0.5000 
    115 CA        -0.8259  -20.3515  -54.6730 C.3       21 UNK         0.1400 
    116 CB         0.1780  -20.6923  -53.5616 C.3       21 UNK        -0.1800 
    117 C         -0.9016  -18.8262  -54.8973 C.2       21 UNK         0.5000 
    118 O         -0.0086  -18.2742  -55.5414 O.2       21 UNK        -0.5000 
    119 N         -1.9679  -18.1814  -54.4015 N.am      22 UNK        -0.5000 
    120 CA        -2.2993  -16.7793  -54.6912 C.3       22 UNK         0.1400 
    121 C         -2.8683  -16.5385  -56.1237 C.2       22 UNK         0.5000 
    122 N         -3.2107  -17.5657  -56.8951 N.am      22 UNK        -0.7600 
    123 O         -2.9942  -15.3949  -56.5522 O.2       22 UNK        -0.5000 
    124 C124       -3.2227  -16.1743  -53.5950 C.3       23 UNK        -0.0398 
    125 S125       -2.6856  -14.5022  -53.0945 S.3       23 UNK        -0.2404 
    126 C126       -1.9896  -14.8132  -51.4385 C.3       23 UNK        -0.0205 
    127 H127       -0.4517  -11.3912  -51.3803 H         1 UNK         0.0600 
    128 H128        0.9632  -10.7661  -52.2340 H         1 UNK         0.0600 
    129 H129        0.3805  -12.3995  -52.5665 H         1 UNK         0.0600 
    130 H130        1.6839  -13.9532  -51.6254 H         1 UNK         0.3000 
    131 H131        3.6626  -13.4347  -49.7273 H         1 UNK         0.0600 
    132 H132        4.2977  -15.6804  -49.9112 H         1 UNK         0.0800 
    133 H133        2.7000  -16.2796  -50.1457 H         1 UNK         0.0800 
    134 H134        2.2757  -16.3459  -53.9685 H         1 UNK         0.0800 
    135 H135        3.0057  -17.6090  -53.0209 H         1 UNK         0.0800 
    136 H136        0.3727  -14.9197  -52.8163 H         1 UNK         0.1150 
    137 H137       -2.0145  -17.1461  -50.0378 H         1 UNK         0.1150 
    138 H138        1.7415  -18.7103  -51.3820 H         1 UNK         0.1150 
    139 H139       -1.0749  -19.0361  -48.9127 H         1 UNK         0.0800 
    140 H140       -0.8896  -20.0634  -50.3072 H         1 UNK         0.0800 
    141 H141        0.0082  -19.4532  -46.9479 H         1 UNK         0.0800 
    142 H142        1.6355  -20.0009  -46.7002 H         1 UNK         0.0800 
    143 H143        0.9150  -22.3568  -47.3797 H         1 UNK         0.0600 
    144 H144        0.5804  -21.1136  -44.8915 H         1 UNK         0.3000 
    145 H145       -0.5855  -23.9018  -42.9928 H         1 UNK         0.0600 
    146 H146        1.4250  -23.2391  -41.6953 H         1 UNK         0.0600 
    147 H147        1.8916  -24.1057  -43.1506 H         1 UNK         0.0600 
    148 H148        2.0635  -22.3570  -43.0815 H         1 UNK         0.0600 
    149 H149        0.0110  -21.1297  -42.4300 H         1 UNK         0.3000 
    150 H150       -3.3413  -19.9462  -42.7659 H         1 UNK         0.0600 
    151 H151       -3.1393  -20.9579  -40.4859 H         1 UNK         0.0600 
    152 H152       -2.8468  -19.2262  -40.4501 H         1 UNK         0.0600 
    153 H153       -1.4926  -20.3511  -40.3518 H         1 UNK         0.0600 
    154 H154       -0.9219  -18.6204  -42.0488 H         1 UNK         0.3000 
    155 H155        0.0453  -17.6364  -45.3507 H         1 UNK         0.0600 
    156 H156       -1.7359  -16.0583  -44.7122 H         1 UNK         0.0600 
    157 H157       -0.1774  -15.4216  -44.2054 H         1 UNK         0.0600 
    158 H158       -1.2612  -16.1399  -43.0203 H         1 UNK         0.0600 
    159 H159        1.3272  -16.8259  -43.1165 H         1 UNK         0.3000 
    160 H160        3.3493  -19.5439  -42.1886 H         1 UNK         0.0600 
    161 H161        5.1931  -18.1121  -43.0614 H         1 UNK         0.0600 
    162 H162        4.0574  -17.2552  -44.1027 H         1 UNK         0.0600 
    163 H163        4.3838  -18.9634  -44.3682 H         1 UNK         0.0600 
    164 H164        3.0963  -16.5965  -41.9219 H         1 UNK         0.3000 
    165 H165        1.7492  -16.7970  -38.6562 H         1 UNK         0.0600 
    166 H166        3.7424  -15.4797  -37.9865 H         1 UNK         0.0600 
    167 H167        4.1649  -17.1764  -38.1508 H         1 UNK         0.0600 
    168 H168        4.6229  -16.0364  -39.4104 H         1 UNK         0.0600 
    169 H169        2.7763  -14.6293  -40.2464 H         1 UNK         0.3000 
    170 H170       -0.1333  -14.0485  -42.1635 H         1 UNK         0.0600 
    171 H171       -0.8125  -13.0917  -39.9535 H         1 UNK         0.0600 
    172 H172        0.8136  -12.4576  -39.7264 H         1 UNK         0.0600 
    173 H173       -0.1988  -11.8567  -41.0404 H         1 UNK         0.0600 
    174 H174        1.9554  -12.3210  -42.0367 H         1 UNK         0.3000 
    175 H175        4.0313  -12.4221  -43.1141 H         1 UNK         0.0600 
    176 H176        5.4418  -13.4022  -44.9024 H         1 UNK         0.0600 
    177 H177        5.2279  -14.5622  -43.5991 H         1 UNK         0.0600 
    178 H178        4.3216  -14.7479  -45.0954 H         1 UNK         0.0600 
    179 H179        2.8335  -12.9572  -45.7564 H         1 UNK         0.3000 
    180 H180        0.3809  -10.4435  -45.5185 H         1 UNK         0.0600 
    181 H181        2.8961  -10.3079  -47.2679 H         1 UNK         0.0600 
    182 H182        2.3178   -9.0184  -46.2179 H         1 UNK         0.0600 
    183 H183        1.3562   -9.5170  -47.6011 H         1 UNK         0.0600 
    184 H184        1.2461  -12.0861  -47.6910 H         1 UNK         0.3000 
    185 H185        0.3272  -15.1781  -46.6014 H         1 UNK         0.0600 
    186 H186       -1.5590  -15.5320  -48.1499 H         1 UNK         0.0600 
    187 H187       -2.1190  -14.6125  -46.7664 H         1 UNK         0.0600 
    188 H188       -1.8210  -13.7925  -48.2933 H         1 UNK         0.0600 
    189 H189        0.3484  -14.2404  -49.2885 H         1 UNK         0.3000 
    190 H190       -2.0093  -20.6916  -46.0757 H         1 UNK         0.3000 
    191 H191       -3.7071  -21.1498  -48.2493 H         1 UNK         0.0600 
    192 H192       -4.3762  -20.8150  -45.2833 H         1 UNK         0.0600 
    193 H193       -5.5364  -20.6817  -46.6019 H         1 UNK         0.0600 
    194 H194       -4.2195  -19.5261  -46.4751 H         1 UNK         0.0600 
    195 H195       -3.1515  -23.1727  -45.3606 H         1 UNK         0.3000 
    196 H196       -5.0376  -25.2122  -45.9503 H         1 UNK         0.0600 
    197 H197       -2.4811  -25.2965  -44.2701 H         1 UNK         0.0600 
    198 H198       -3.7532  -26.5118  -44.2529 H         1 UNK         0.0600 
    199 H199       -4.0937  -24.8795  -43.6985 H         1 UNK         0.0600 
    200 H200       -1.4992  -25.0007  -46.6184 H         1 UNK         0.3000 
    201 H201       -1.2523  -27.5469  -47.8361 H         1 UNK         0.0600 
    202 H202        0.4855  -25.0365  -48.0965 H         1 UNK         0.0600 
    203 H203        0.9645  -26.6560  -48.5947 H         1 UNK         0.0600 
    204 H204        0.6700  -26.3145  -46.8967 H         1 UNK         0.0600 
    205 H205       -1.7984  -24.3059  -49.2850 H         1 UNK         0.3000 
    206 H206       -1.7385  -25.3081  -52.0186 H         1 UNK         0.0600 
    207 H207       -0.8711  -23.0725  -51.4409 H         1 UNK         0.0600 
    208 H208       -2.2049  -22.9653  -52.5779 H         1 UNK         0.0600 
    209 H209       -2.4608  -22.5762  -50.8757 H         1 UNK         0.0600 
    210 H210       -3.3500  -26.9680  -51.4006 H         1 UNK         0.3000 
    211 H211       -5.2473  -28.0085  -51.8405 H         1 UNK         0.0600 
    212 H212       -6.0716  -25.5490  -53.4688 H         1 UNK         0.0600 
    213 H213       -6.6644  -27.1904  -53.6707 H         1 UNK         0.0600 
    214 H214       -4.9927  -26.8162  -54.0522 H         1 UNK         0.0600 
    215 H215       -5.1698  -26.1232  -49.4871 H         1 UNK         0.3000 
    216 H216       -6.3771  -25.3772  -47.8048 H         1 UNK         0.0600 
    217 H217       -7.3227  -27.6908  -47.7924 H         1 UNK         0.0600 
    218 H218       -8.4527  -26.5031  -47.1663 H         1 UNK         0.0600 
    219 H219       -8.6702  -27.1410  -48.7893 H         1 UNK         0.0600 
    220 H220       -6.4749  -23.9573  -50.4286 H         1 UNK         0.3000 
    221 H221       -8.8194  -22.1703  -49.9517 H         1 UNK         0.0600 
    222 H222       -7.9904  -23.4286  -52.6262 H         1 UNK         0.0600 
    223 H223       -9.4174  -23.8740  -51.6933 H         1 UNK         0.0600 
    224 H224       -9.2969  -22.2700  -52.3964 H         1 UNK         0.0600 
    225 H225       -5.5512  -22.2759  -50.0303 H         1 UNK         0.3000 
    226 H226       -3.8492  -20.9064  -50.4529 H         1 UNK         0.0600 
    227 H227       -5.1604  -19.2646  -49.0766 H         1 UNK         0.0600 
    228 H228       -4.1263  -18.4857  -50.2631 H         1 UNK         0.0600 
    229 H229       -5.8542  -18.6003  -50.5533 H         1 UNK         0.0600 
    230 H230       -4.7420  -22.3597  -52.5784 H         1 UNK         0.3000 
    231 H231       -5.3161  -21.0312  -54.9595 H         1 UNK         0.0600 
    232 H232       -5.6102  -23.4569  -54.6170 H         1 UNK         0.0600 
    233 H233       -3.8663  -23.6953  -54.5117 H         1 UNK         0.0600 
    234 H234       -4.6008  -23.1857  -56.0279 H         1 UNK         0.0600 
    235 H235       -2.2090  -21.3403  -53.4179 H         1 UNK         0.3000 
    236 H236       -0.4683  -20.7951  -55.6044 H         1 UNK         0.0600 
    237 H237        1.1480  -20.2306  -53.7512 H         1 UNK         0.0600 
    238 H238       -0.1680  -20.3415  -52.5903 H         1 UNK         0.0600 
    239 H239        0.3393  -21.7681  -53.4912 H         1 UNK         0.0600 
    240 H240       -2.6718  -18.7034  -53.8901 H         1 UNK         0.3000 
    241 H241       -1.3503  -16.2402  -54.6688 H         1 UNK         0.0600 
    242 H242       -3.5711  -17.3869  -57.8190 H         1 UNK         0.3800 
    243 H243       -3.1175  -18.5228  -56.5747 H         1 UNK         0.3800 
    244 H244       -4.2636  -16.1298  -53.9207 H         1 UNK         0.0800 
    245 H245       -3.2389  -16.8066  -52.7069 H         1 UNK         0.0800 
    246 H246       -2.8076  -15.0552  -50.7581 H         1 UNK         0.0800 
    247 H247       -1.5453  -13.8904  -51.0648 H         1 UNK         0.0800 
@<TRIPOS>BOND
     1    1    2 1    
     2    1  127 1    
     3    1  128 1    
     4    1  129 1    
     5    2    3 2    
     6    2    4 am   BACKBONE|DICT|INTERRES
     7    4    5 1    
     8    4  130 1    
     9    5    6 1    
    10    5   65 1    
    11    5  131 1    
    12    6    7 1    
    13    6  132 1    
    14    6  133 1    
    15    7    8 1    
    16    8    9 1    
    17    8  134 1    
    18    8  135 1    
    19    9   10 ar   
    20    9   14 ar   
    21   10   11 ar   
    22   10  136 1    
    23   11   12 ar   
    24   11  126 1    
    25   12   13 ar   
    26   12  137 1    
    27   13   14 ar   
    28   13   15 1    
    29   14  138 1    
    30   15   16 1    
    31   15  139 1    
    32   15  140 1    
    33   16   17 1    
    34   17   18 1    
    35   17  141 1    
    36   17  142 1    
    37   18   19 1    
    38   18   67 1    
    39   18  143 1    
    40   19   20 am   BACKBONE|DICT|INTERRES
    41   19  144 1    
    42   20   21 2    
    43   20   22 1    
    44   22   23 1    
    45   22   24 1    
    46   22  145 1    
    47   23  146 1    
    48   23  147 1    
    49   23  148 1    
    50   24   25 am   BACKBONE|DICT|INTERRES
    51   24  149 1    
    52   25   26 2    
    53   25   27 1    
    54   27   28 1    
    55   27   29 1    
    56   27  150 1    
    57   28  151 1    
    58   28  152 1    
    59   28  153 1    
    60   29   30 am   BACKBONE|DICT|INTERRES
    61   29  154 1    
    62   30   31 2    
    63   30   32 1    
    64   32   33 1    
    65   32   34 1    
    66   32  155 1    
    67   33  156 1    
    68   33  157 1    
    69   33  158 1    
    70   34   35 am   BACKBONE|DICT|INTERRES
    71   34  159 1    
    72   35   36 2    
    73   35   37 1    
    74   37   38 1    
    75   37   39 1    
    76   37  160 1    
    77   38  161 1    
    78   38  162 1    
    79   38  163 1    
    80   39   40 am   BACKBONE|DICT|INTERRES
    81   39  164 1    
    82   40   41 2    
    83   40   42 1    
    84   42   43 1    
    85   42   44 1    
    86   42  165 1    
    87   43  166 1    
    88   43  167 1    
    89   43  168 1    
    90   44   45 am   BACKBONE|DICT|INTERRES
    91   44  169 1    
    92   45   46 2    
    93   45   47 1    
    94   47   48 1    
    95   47   49 1    
    96   47  170 1    
    97   48  171 1    
    98   48  172 1    
    99   48  173 1    
   100   49   50 am   BACKBONE|DICT|INTERRES
   101   49  174 1    
   102   50   51 2    
   103   50   52 1    
   104   52   53 1    
   105   52   54 1    
   106   52  175 1    
   107   53  176 1    
   108   53  177 1    
   109   53  178 1    
   110   54   55 am   BACKBONE|DICT|INTERRES
   111   54  179 1    
   112   55   56 2    
   113   55   57 1    
   114   57   58 1    
   115   57   59 1    
   116   57  180 1    
   117   58  181 1    
   118   58  182 1    
   119   58  183 1    
   120   59   60 am   BACKBONE|DICT|INTERRES
   121   59  184 1    
   122   60   61 2    
   123   60   62 1    
   124   62   63 1    
   125   62   64 1    
   126   62  185 1    
   127   63  186 1    
   128   63  187 1    
   129   63  188 1    
   130   64   65 am   BACKBONE|DICT|INTERRES
   131   64  189 1    
   132   65   66 2    
   133   67   68 2    
   134   67   69 am   BACKBONE|DICT|INTERRES
   135   69   70 1    
   136   69  190 1    
   137   70   71 1    
   138   70   72 1    
   139   70  191 1    
   140   71  192 1    
   141   71  193 1    
   142   71  194 1    
   143   72   73 2    
   144   72   74 am   BACKBONE|DICT|INTERRES
   145   74   75 1    
   146   74  195 1    
   147   75   76 1    
   148   75   77 1    
   149   75  196 1    
   150   76  197 1    
   151   76  198 1    
   152   76  199 1    
   153   77   78 2    
   154   77   79 am   BACKBONE|DICT|INTERRES
   155   79   80 1    
   156   79  200 1    
   157   80   81 1    
   158   80   82 1    
   159   80  201 1    
   160   81  202 1    
   161   81  203 1    
   162   81  204 1    
   163   82   83 2    
   164   82   84 am   BACKBONE|DICT|INTERRES
   165   84   85 1    
   166   84  205 1    
   167   85   86 1    
   168   85   87 1    
   169   85  206 1    
   170   86  207 1    
   171   86  208 1    
   172   86  209 1    
   173   87   88 2    
   174   87   89 am   BACKBONE|DICT|INTERRES
   175   89   90 1    
   176   89  210 1    
   177   90   91 1    
   178   90   92 1    
   179   90  211 1    
   180   91  212 1    
   181   91  213 1    
   182   91  214 1    
   183   92   93 2    
   184   92   94 am   BACKBONE|DICT|INTERRES
   185   94   95 1    
   186   94  215 1    
   187   95   96 1    
   188   95   97 1    
   189   95  216 1    
   190   96  217 1    
   191   96  218 1    
   192   96  219 1    
   193   97   98 2    
   194   97   99 am   BACKBONE|DICT|INTERRES
   195   99  100 1    
   196   99  220 1    
   197  100  101 1    
   198  100  102 1    
   199  100  221 1    
   200  101  222 1    
   201  101  223 1    
   202  101  224 1    
   203  102  103 2    
   204  102  104 am   BACKBONE|DICT|INTERRES
   205  104  105 1    
   206  104  225 1    
   207  105  106 1    
   208  105  107 1    
   209  105  226 1    
   210  106  227 1    
   211  106  228 1    
   212  106  229 1    
   213  107  108 2    
   214  107  109 am   BACKBONE|DICT|INTERRES
   215  109  110 1    
   216  109  230 1    
   217  110  111 1    
   218  110  112 1    
   219  110  231 1    
   220  111  232 1    
   221  111  233 1    
   222  111  234 1    
   223  112  113 2    
   224  112  114 am   BACKBONE|DICT|INTERRES
   225  114  115 1    
   226  114  235 1    
   227  115  116 1    
   228  115  117 1    
   229  115  236 1    
   230  116  237 1    
   231  116  238 1    
   232  116  239 1    
   233  117  118 2    
   234  117  119 am   BACKBONE|DICT|INTERRES
   235  119  120 1    
   236  119  240 1    
   237  120  121 1    
   238  120  124 1    
   239  120  241 1    
   240  121  122 am   BACKBONE|DICT|INTERRES
   241  121  123 2    
   242  122  242 1    
   243  122  243 1    
   244  124  125 1    
   245  124  244 1    
   246  124  245 1    
   247  125  126 1    
   248  126  246 1    
   249  126  247 1    
@<TRIPOS>SUBSTRUCTURE
     1 UNK         1 GROUP             0       ****    0 ROOT    
