@<TRIPOS>MOLECULE
3R540
247   249    1
SMALL
USER_CHARGES


@<TRIPOS>ATOM
      1 CA         -5.6153  -15.3471  -49.0685 C.3       0 UNK        -0.1800 
      2 C          -4.4501  -14.7542  -48.2936 C.2       0 UNK         0.5000 
      3 O          -4.6604  -13.9526  -47.3826 O.2       0 UNK        -0.5000 
      4 N          -3.2192  -15.1487  -48.6477 N.am      1 UNK        -0.5000 
      5 CA         -1.9767  -14.6416  -48.0496 C.3       1 UNK         0.1400 
      6 C6         -0.7209  -14.9898  -48.8866 C.3       23 UNK        -0.0398 
      7 S7         -0.4492  -16.7764  -49.1501 S.3       23 UNK        -0.2404 
      8 C8          1.3739  -16.8464  -49.1907 C.3       23 UNK        -0.0205 
      9 C9          1.9201  -18.1460  -49.7770 C.ar      23 UNK        -0.0193 
     10 C10         1.4543  -18.6168  -51.0097 C.ar      23 UNK        -0.1150 
     11 C11         2.0014  -19.7636  -51.5914 C.ar      23 UNK        -0.0193 
     12 C12         3.0390  -20.4321  -50.9389 C.ar      23 UNK        -0.1150 
     13 C13         3.5079  -19.9881  -49.6986 C.ar      23 UNK        -0.0193 
     14 C14         2.9406  -18.8458  -49.1205 C.ar      23 UNK        -0.1150 
     15 C15         4.6734  -20.7046  -49.0254 C.3       23 UNK        -0.0205 
     16 S16         4.3959  -22.4975  -48.8125 S.3       23 UNK        -0.2404 
     17 C17         3.5071  -22.5739  -47.2231 C.3       23 UNK        -0.0398 
     18 CA          2.0533  -23.0893  -47.3515 C.3       11 UNK         0.1400 
     19 N           1.5813  -23.6704  -46.0932 N.am      11 UNK        -0.5000 
     20 C           0.4530  -24.3826  -45.9588 C.2       10 UNK         0.5000 
     21 O          -0.2832  -24.6810  -46.8989 O.2       10 UNK        -0.5000 
     22 CA          0.0605  -24.8155  -44.5328 C.3       10 UNK         0.1400 
     23 CB          0.5731  -26.2347  -44.2464 C.3       10 UNK        -0.1800 
     24 N           0.5318  -23.9185  -43.4759 N.am      10 UNK        -0.5000 
     25 C           0.2550  -22.6117  -43.3631 C.2       9 UNK         0.5000 
     26 O          -0.4260  -21.9832  -44.1742 O.2       9 UNK        -0.5000 
     27 CA          0.8644  -21.8694  -42.1574 C.3       9 UNK         0.1400 
     28 CB          1.4254  -22.8041  -41.0632 C.3       9 UNK        -0.1800 
     29 N           1.8942  -20.9022  -42.5413 N.am      9 UNK        -0.5000 
     30 C           2.9681  -21.0938  -43.3252 C.2       8 UNK         0.5000 
     31 O           3.1717  -22.1167  -43.9818 O.2       8 UNK        -0.5000 
     32 CA          4.0109  -19.9569  -43.3639 C.3       8 UNK         0.1400 
     33 CB          3.9682  -19.2026  -44.7013 C.3       8 UNK        -0.1800 
     34 N           3.8333  -19.0025  -42.2656 N.am      8 UNK        -0.5000 
     35 C           4.2827  -19.1987  -41.0160 C.2       7 UNK         0.5000 
     36 O           4.9563  -20.1742  -40.6826 O.2       7 UNK        -0.5000 
     37 CA          3.9178  -18.1432  -39.9517 C.3       7 UNK         0.1400 
     38 CB          5.0926  -17.1783  -39.7296 C.3       7 UNK        -0.1800 
     39 N           2.7233  -17.3639  -40.2803 N.am      7 UNK        -0.5000 
     40 C           1.4703  -17.8400  -40.3063 C.2       6 UNK         0.5000 
     41 O           1.1721  -18.9992  -40.0194 O.2       6 UNK        -0.5000 
     42 CA          0.3772  -16.8679  -40.7923 C.3       6 UNK         0.1400 
     43 CB         -0.2352  -16.1023  -39.6105 C.3       6 UNK        -0.1800 
     44 N           0.8605  -15.9071  -41.7882 N.am      6 UNK        -0.5000 
     45 C           1.3535  -16.2301  -42.9904 C.2       5 UNK         0.5000 
     46 O           1.4728  -17.3944  -43.3728 O.2       5 UNK        -0.5000 
     47 CA          1.7987  -15.0666  -43.8983 C.3       5 UNK         0.1400 
     48 CB          2.0436  -15.5205  -45.3497 C.3       5 UNK        -0.1800 
     49 N           0.8259  -13.9749  -43.9079 N.am      5 UNK        -0.5000 
     50 C           0.7348  -12.9835  -43.0129 C.2       4 UNK         0.5000 
     51 O           1.4526  -12.9029  -42.0159 O.2       4 UNK        -0.5000 
     52 CA         -0.3649  -11.9374  -43.2509 C.3       4 UNK         0.1400 
     53 CB          0.0032  -11.0205  -44.4286 C.3       4 UNK        -0.1800 
     54 N          -1.6413  -12.5924  -43.5327 N.am      4 UNK        -0.5000 
     55 C          -2.7140  -12.5724  -42.7295 C.2       3 UNK         0.5000 
     56 O          -2.7659  -11.9465  -41.6700 O.2       3 UNK        -0.5000 
     57 CA         -3.9432  -13.3929  -43.1767 C.3       3 UNK         0.1400 
     58 CB         -4.9460  -12.4965  -43.9187 C.3       3 UNK        -0.1800 
     59 N          -3.6007  -14.5274  -44.0351 N.am      3 UNK        -0.5000 
     60 C          -2.8962  -15.5975  -43.6410 C.2       2 UNK         0.5000 
     61 O          -2.5630  -15.7992  -42.4737 O.2       2 UNK        -0.5000 
     62 CA         -2.4606  -16.5986  -44.7296 C.3       2 UNK         0.1400 
     63 CB         -3.3252  -17.8673  -44.6666 C.3       2 UNK        -0.1800 
     64 N          -2.4857  -16.0767  -46.1022 N.am      2 UNK        -0.5000 
     65 C          -1.8007  -15.0190  -46.5641 C.2       1 UNK         0.5000 
     66 O          -1.0805  -14.3160  -45.8568 O.2       1 UNK        -0.5000 
     67 C           1.0975  -21.9818  -47.8349 C.2       11 UNK         0.5000 
     68 O           0.6617  -22.0055  -48.9835 O.2       11 UNK        -0.5000 
     69 N           0.7498  -21.0619  -46.9252 N.am      12 UNK        -0.5000 
     70 CA         -0.1497  -19.9467  -47.2034 C.3       12 UNK         0.1400 
     71 CB          0.0582  -18.8574  -46.1471 C.3       12 UNK        -0.1800 
     72 C          -1.6227  -20.3776  -47.2871 C.2       12 UNK         0.5000 
     73 O          -2.3784  -19.8062  -48.0719 O.2       12 UNK        -0.5000 
     74 N          -2.0058  -21.4048  -46.5150 N.am      13 UNK        -0.5000 
     75 CA         -3.3337  -22.0247  -46.5524 C.3       13 UNK         0.1400 
     76 CB         -3.4552  -23.0448  -45.4129 C.3       13 UNK        -0.1800 
     77 C          -3.6592  -22.6882  -47.9060 C.2       13 UNK         0.5000 
     78 O          -4.8315  -22.7776  -48.2693 O.2       13 UNK        -0.5000 
     79 N          -2.6233  -23.0904  -48.6565 N.am      14 UNK        -0.5000 
     80 CA         -2.7301  -23.5772  -50.0330 C.3       14 UNK         0.1400 
     81 CB         -1.4614  -24.3627  -50.3947 C.3       14 UNK        -0.1800 
     82 C          -3.0085  -22.4595  -51.0628 C.2       14 UNK         0.5000 
     83 O          -3.2090  -22.7744  -52.2351 O.2       14 UNK        -0.5000 
     84 N          -3.0362  -21.1942  -50.6218 N.am      15 UNK        -0.5000 
     85 CA         -3.4395  -20.0230  -51.3932 C.3       15 UNK         0.1400 
     86 CB         -2.2122  -19.1452  -51.6861 C.3       15 UNK        -0.1800 
     87 C          -4.5608  -19.2556  -50.6735 C.2       15 UNK         0.5000 
     88 O          -4.6326  -18.0291  -50.7775 O.2       15 UNK        -0.5000 
     89 N          -5.4475  -19.9865  -49.9800 N.am      16 UNK        -0.5000 
     90 CA         -6.6906  -19.4633  -49.4107 C.3       16 UNK         0.1400 
     91 CB         -7.4260  -20.5838  -48.6626 C.3       16 UNK        -0.1800 
     92 C          -7.5857  -18.8574  -50.5087 C.2       16 UNK         0.5000 
     93 O          -7.7477  -19.4691  -51.5670 O.2       16 UNK        -0.5000 
     94 N          -8.0867  -17.6382  -50.2645 N.am      17 UNK        -0.5000 
     95 CA         -8.8282  -16.7898  -51.2108 C.3       17 UNK         0.1400 
     96 CB        -10.2116  -17.4013  -51.5169 C.3       17 UNK        -0.1800 
     97 C          -8.0359  -16.4446  -52.4965 C.2       17 UNK         0.5000 
     98 O          -8.6425  -16.1360  -53.5228 O.2       17 UNK        -0.5000 
     99 N          -6.6970  -16.5198  -52.4163 N.am      18 UNK        -0.5000 
    100 CA        -5.7094  -16.3436  -53.4870 C.3       18 UNK         0.1400 
    101 CB        -5.7884  -14.9305  -54.1007 C.3       18 UNK        -0.1800 
    102 C         -5.7305  -17.4582  -54.5564 C.2       18 UNK         0.5000 
    103 O         -5.0831  -17.3104  -55.5948 O.2       18 UNK        -0.5000 
    104 N         -6.4302  -18.5710  -54.2917 N.am      19 UNK        -0.5000 
    105 CA        -6.5163  -19.7373  -55.1702 C.3       19 UNK         0.1400 
    106 CB        -7.8608  -20.4453  -54.9251 C.3       19 UNK        -0.1800 
    107 C         -5.3035  -20.6604  -54.9462 C.2       19 UNK         0.5000 
    108 O         -5.4510  -21.7486  -54.3905 O.2       19 UNK        -0.5000 
    109 N         -4.1187  -20.1691  -55.3332 N.am      20 UNK        -0.5000 
    110 CA        -2.8132  -20.8034  -55.1513 C.3       20 UNK         0.1400 
    111 CB        -1.7168  -19.8488  -55.6503 C.3       20 UNK        -0.1800 
    112 C         -2.7037  -22.1861  -55.8201 C.2       20 UNK         0.5000 
    113 O         -2.6425  -22.2745  -57.0480 O.2       20 UNK        -0.5000 
    114 N         -2.6536  -23.2274  -54.9866 N.am      21 UNK        -0.5000 
    115 CA        -2.3976  -24.6201  -55.3453 C.3       21 UNK         0.1400 
    116 CB        -3.6878  -25.4350  -55.1455 C.3       21 UNK        -0.1800 
    117 C         -1.2216  -25.1354  -54.4936 C.2       21 UNK         0.5000 
    118 O         -1.2780  -26.2358  -53.9425 O.2       21 UNK        -0.5000 
    119 N         -0.1906  -24.2916  -54.3662 N.am      22 UNK        -0.5000 
    120 CA         0.9461  -24.4456  -53.4429 C.3       22 UNK         0.1400 
    121 C          1.9950  -25.5224  -53.8488 C.2       22 UNK         0.5000 
    122 N          1.9275  -26.1053  -55.0393 N.am      22 UNK        -0.7600 
    123 O          2.8864  -25.8382  -53.0657 O.2       22 UNK        -0.5000 
    124 C124        1.6356  -23.0838  -53.1561 C.3       23 UNK        -0.0398 
    125 S125        0.4541  -21.7474  -52.7555 S.3       23 UNK        -0.2404 
    126 C126        1.4905  -20.2611  -52.9355 C.3       23 UNK        -0.0205 
    127 H127       -5.9190  -16.2909  -48.6182 H         1 UNK         0.0600 
    128 H128       -5.3374  -15.5253  -50.1065 H         1 UNK         0.0600 
    129 H129       -6.4682  -14.6682  -49.0603 H         1 UNK         0.0600 
    130 H130       -3.1050  -15.8362  -49.3808 H         1 UNK         0.3000 
    131 H131       -2.0575  -13.5523  -48.0603 H         1 UNK         0.0600 
    132 H132       -0.8005  -14.5211  -49.8682 H         1 UNK         0.0800 
    133 H133        0.1669  -14.5513  -48.4265 H         1 UNK         0.0800 
    134 H134        1.7512  -16.0199  -49.7943 H         1 UNK         0.0800 
    135 H135        1.7507  -16.6919  -48.1788 H         1 UNK         0.0800 
    136 H136        0.6695  -18.0799  -51.5231 H         1 UNK         0.1150 
    137 H137        3.4819  -21.3050  -51.3957 H         1 UNK         0.1150 
    138 H138        3.3147  -18.4831  -48.1734 H         1 UNK         0.1150 
    139 H139        5.5563  -20.5698  -49.6515 H         1 UNK         0.0800 
    140 H140        4.9163  -20.2495  -48.0643 H         1 UNK         0.0800 
    141 H141        3.5413  -21.6092  -46.7192 H         1 UNK         0.0800 
    142 H142        4.0813  -23.2511  -46.5890 H         1 UNK         0.0800 
    143 H143        2.0370  -23.8895  -48.0952 H         1 UNK         0.0600 
    144 H144        2.1084  -23.4316  -45.2599 H         1 UNK         0.3000 
    145 H145       -1.0282  -24.8346  -44.4801 H         1 UNK         0.0600 
    146 H146        0.2228  -26.5941  -43.2786 H         1 UNK         0.0600 
    147 H147        0.2174  -26.9385  -45.0002 H         1 UNK         0.0600 
    148 H148        1.6631  -26.2761  -44.2469 H         1 UNK         0.0600 
    149 H149        1.1267  -24.3340  -42.7741 H         1 UNK         0.3000 
    150 H150        0.0506  -21.2937  -41.7142 H         1 UNK         0.0600 
    151 H151        0.6709  -23.5139  -40.7212 H         1 UNK         0.0600 
    152 H152        1.7388  -22.2292  -40.1914 H         1 UNK         0.0600 
    153 H153        2.2916  -23.3698  -41.4085 H         1 UNK         0.0600 
    154 H154        1.8194  -20.0058  -42.0804 H         1 UNK         0.3000 
    155 H155        4.9980  -20.4153  -43.2742 H         1 UNK         0.0600 
    156 H156        2.9660  -18.8482  -44.9329 H         1 UNK         0.0600 
    157 H157        4.6351  -18.3403  -44.6924 H         1 UNK         0.0600 
    158 H158        4.2884  -19.8442  -45.5204 H         1 UNK         0.0600 
    159 H159        3.2441  -18.2028  -42.4619 H         1 UNK         0.3000 
    160 H160        3.7289  -18.6739  -39.0162 H         1 UNK         0.0600 
    161 H161        5.3178  -16.6046  -40.6295 H         1 UNK         0.0600 
    162 H162        5.9971  -17.7209  -39.4513 H         1 UNK         0.0600 
    163 H163        4.8785  -16.4738  -38.9257 H         1 UNK         0.0600 
    164 H164        2.8695  -16.3982  -40.5354 H         1 UNK         0.3000 
    165 H165       -0.4096  -17.4631  -41.2606 H         1 UNK         0.0600 
    166 H166       -1.0648  -15.4748  -39.9376 H         1 UNK         0.0600 
    167 H167       -0.6256  -16.7902  -38.8594 H         1 UNK         0.0600 
    168 H168        0.4992  -15.4613  -39.1212 H         1 UNK         0.0600 
    169 H169        0.8153  -14.9259  -41.5433 H         1 UNK         0.3000 
    170 H170        2.7454  -14.6944  -43.5019 H         1 UNK         0.0600 
    171 H171        1.1463  -15.9559  -45.7900 H         1 UNK         0.0600 
    172 H172        2.3527  -14.6856  -45.9787 H         1 UNK         0.0600 
    173 H173        2.8320  -16.2723  -45.4002 H         1 UNK         0.0600 
    174 H174        0.1549  -14.0041  -44.6739 H         1 UNK         0.3000 
    175 H175       -0.4350  -11.3207  -42.3526 H         1 UNK         0.0600 
    176 H176       -0.7426  -10.2368  -44.5618 H         1 UNK         0.0600 
    177 H177        0.0766  -11.5730  -45.3664 H         1 UNK         0.0600 
    178 H178        0.9628  -10.5309  -44.2580 H         1 UNK         0.0600 
    179 H179       -1.6745  -13.1642  -44.3699 H         1 UNK         0.3000 
    180 H180       -4.4272  -13.7806  -42.2779 H         1 UNK         0.0600 
    181 H181       -4.5228  -12.0998  -44.8426 H         1 UNK         0.0600 
    182 H182       -5.2443  -11.6479  -43.3016 H         1 UNK         0.0600 
    183 H183       -5.8520  -13.0461  -44.1750 H         1 UNK         0.0600 
    184 H184       -3.8427  -14.4445  -45.0136 H         1 UNK         0.3000 
    185 H185       -1.4293  -16.8721  -44.4997 H         1 UNK         0.0600 
    186 H186       -3.2946  -18.3135  -43.6717 H         1 UNK         0.0600 
    187 H187       -4.3689  -17.6531  -44.8997 H         1 UNK         0.0600 
    188 H188       -2.9745  -18.6230  -45.3676 H         1 UNK         0.0600 
    189 H189       -3.0597  -16.5807  -46.7624 H         1 UNK         0.3000 
    190 H190        1.0686  -21.1631  -45.9724 H         1 UNK         0.3000 
    191 H191        0.1155  -19.5313  -48.1762 H         1 UNK         0.0600 
    192 H192        1.0845  -18.4949  -46.1565 H         1 UNK         0.0600 
    193 H193       -0.5767  -18.0012  -46.3605 H         1 UNK         0.0600 
    194 H194       -0.1726  -19.2087  -45.1404 H         1 UNK         0.0600 
    195 H195       -1.3477  -21.7692  -45.8312 H         1 UNK         0.3000 
    196 H196       -4.0702  -21.2357  -46.3857 H         1 UNK         0.0600 
    197 H197       -4.4725  -23.4322  -45.3458 H         1 UNK         0.0600 
    198 H198       -3.2117  -22.5982  -44.4486 H         1 UNK         0.0600 
    199 H199       -2.7936  -23.8952  -45.5715 H         1 UNK         0.0600 
    200 H200       -1.6865  -22.9897  -48.2878 H         1 UNK         0.3000 
    201 H201       -3.5720  -24.2708  -50.0806 H         1 UNK         0.0600 
    202 H202       -1.2389  -25.1274  -49.6503 H         1 UNK         0.0600 
    203 H203       -1.5838  -24.8683  -51.3527 H         1 UNK         0.0600 
    204 H204       -0.5932  -23.7100  -50.4781 H         1 UNK         0.0600 
    205 H205       -2.8299  -21.0055  -49.6461 H         1 UNK         0.3000 
    206 H206       -3.8805  -20.3313  -52.3395 H         1 UNK         0.0600 
    207 H207       -1.4777  -19.6829  -52.2807 H         1 UNK         0.0600 
    208 H208       -2.4821  -18.2494  -52.2463 H         1 UNK         0.0600 
    209 H209       -1.7267  -18.8305  -50.7632 H         1 UNK         0.0600 
    210 H210       -5.3196  -20.9878  -49.9353 H         1 UNK         0.3000 
    211 H211       -6.4257  -18.6858  -48.6921 H         1 UNK         0.0600 
    212 H212       -7.6521  -21.4249  -49.3193 H         1 UNK         0.0600 
    213 H213       -8.3696  -20.2253  -48.2493 H         1 UNK         0.0600 
    214 H214       -6.8302  -20.9581  -47.8301 H         1 UNK         0.0600 
    215 H215       -7.9046  -17.2166  -49.3647 H         1 UNK         0.3000 
    216 H216       -8.9945  -15.8401  -50.7004 H         1 UNK         0.0600 
    217 H217      -10.8297  -16.7078  -52.0880 H         1 UNK         0.0600 
    218 H218      -10.7520  -17.6335  -50.5993 H         1 UNK         0.0600 
    219 H219      -10.1293  -18.3195  -52.0993 H         1 UNK         0.0600 
    220 H220       -6.2978  -16.8370  -51.5409 H         1 UNK         0.3000 
    221 H221       -4.7360  -16.4266  -53.0018 H         1 UNK         0.0600 
    222 H222       -6.6942  -14.7921  -54.6910 H         1 UNK         0.0600 
    223 H223       -5.7691  -14.1628  -53.3272 H         1 UNK         0.0600 
    224 H224       -4.9408  -14.7442  -54.7612 H         1 UNK         0.0600 
    225 H225       -6.9032  -18.6527  -53.3988 H         1 UNK         0.3000 
    226 H226       -6.5012  -19.4127  -56.2129 H         1 UNK         0.0600 
    227 H227       -8.6990  -19.7738  -55.1120 H         1 UNK         0.0600 
    228 H228       -7.9758  -21.3030  -55.5888 H         1 UNK         0.0600 
    229 H229       -7.9473  -20.8091  -53.9008 H         1 UNK         0.0600 
    230 H230       -4.1147  -19.2494  -55.7578 H         1 UNK         0.3000 
    231 H231       -2.6505  -20.9368  -54.0833 H         1 UNK         0.0600 
    232 H232       -1.8409  -19.6083  -56.7069 H         1 UNK         0.0600 
    233 H233       -0.7279  -20.2924  -55.5271 H         1 UNK         0.0600 
    234 H234       -1.7235  -18.9140  -55.0892 H         1 UNK         0.0600 
    235 H235       -2.7719  -23.0542  -53.9876 H         1 UNK         0.3000 
    236 H236       -2.0939  -24.6983  -56.3909 H         1 UNK         0.0600 
    237 H237       -4.4996  -25.0396  -55.7564 H         1 UNK         0.0600 
    238 H238       -3.5434  -26.4776  -55.4310 H         1 UNK         0.0600 
    239 H239       -4.0145  -25.4168  -54.1049 H         1 UNK         0.0600 
    240 H240       -0.2428  -23.4045  -54.8439 H         1 UNK         0.3000 
    241 H241        0.5334  -24.7961  -52.4962 H         1 UNK         0.0600 
    242 H242        1.1949  -25.8617  -55.6864 H         1 UNK         0.3800 
    243 H243        2.6088  -26.8043  -55.2912 H         1 UNK         0.3800 
    244 H244        2.3331  -23.1830  -52.3229 H         1 UNK         0.0800 
    245 H245        2.2254  -22.7767  -54.0213 H         1 UNK         0.0800 
    246 H246        2.3310  -20.4545  -53.6029 H         1 UNK         0.0800 
    247 H247        0.8951  -19.4862  -53.4205 H         1 UNK         0.0800 
@<TRIPOS>BOND
     1    1    2 1    
     2    1  127 1    
     3    1  128 1    
     4    1  129 1    
     5    2    3 2    
     6    2    4 am   BACKBONE|DICT|INTERRES
     7    4    5 1    
     8    4  130 1    
     9    5    6 1    
    10    5   65 1    
    11    5  131 1    
    12    6    7 1    
    13    6  132 1    
    14    6  133 1    
    15    7    8 1    
    16    8    9 1    
    17    8  134 1    
    18    8  135 1    
    19    9   10 ar   
    20    9   14 ar   
    21   10   11 ar   
    22   10  136 1    
    23   11   12 ar   
    24   11  126 1    
    25   12   13 ar   
    26   12  137 1    
    27   13   14 ar   
    28   13   15 1    
    29   14  138 1    
    30   15   16 1    
    31   15  139 1    
    32   15  140 1    
    33   16   17 1    
    34   17   18 1    
    35   17  141 1    
    36   17  142 1    
    37   18   19 1    
    38   18   67 1    
    39   18  143 1    
    40   19   20 am   BACKBONE|DICT|INTERRES
    41   19  144 1    
    42   20   21 2    
    43   20   22 1    
    44   22   23 1    
    45   22   24 1    
    46   22  145 1    
    47   23  146 1    
    48   23  147 1    
    49   23  148 1    
    50   24   25 am   BACKBONE|DICT|INTERRES
    51   24  149 1    
    52   25   26 2    
    53   25   27 1    
    54   27   28 1    
    55   27   29 1    
    56   27  150 1    
    57   28  151 1    
    58   28  152 1    
    59   28  153 1    
    60   29   30 am   BACKBONE|DICT|INTERRES
    61   29  154 1    
    62   30   31 2    
    63   30   32 1    
    64   32   33 1    
    65   32   34 1    
    66   32  155 1    
    67   33  156 1    
    68   33  157 1    
    69   33  158 1    
    70   34   35 am   BACKBONE|DICT|INTERRES
    71   34  159 1    
    72   35   36 2    
    73   35   37 1    
    74   37   38 1    
    75   37   39 1    
    76   37  160 1    
    77   38  161 1    
    78   38  162 1    
    79   38  163 1    
    80   39   40 am   BACKBONE|DICT|INTERRES
    81   39  164 1    
    82   40   41 2    
    83   40   42 1    
    84   42   43 1    
    85   42   44 1    
    86   42  165 1    
    87   43  166 1    
    88   43  167 1    
    89   43  168 1    
    90   44   45 am   BACKBONE|DICT|INTERRES
    91   44  169 1    
    92   45   46 2    
    93   45   47 1    
    94   47   48 1    
    95   47   49 1    
    96   47  170 1    
    97   48  171 1    
    98   48  172 1    
    99   48  173 1    
   100   49   50 am   BACKBONE|DICT|INTERRES
   101   49  174 1    
   102   50   51 2    
   103   50   52 1    
   104   52   53 1    
   105   52   54 1    
   106   52  175 1    
   107   53  176 1    
   108   53  177 1    
   109   53  178 1    
   110   54   55 am   BACKBONE|DICT|INTERRES
   111   54  179 1    
   112   55   56 2    
   113   55   57 1    
   114   57   58 1    
   115   57   59 1    
   116   57  180 1    
   117   58  181 1    
   118   58  182 1    
   119   58  183 1    
   120   59   60 am   BACKBONE|DICT|INTERRES
   121   59  184 1    
   122   60   61 2    
   123   60   62 1    
   124   62   63 1    
   125   62   64 1    
   126   62  185 1    
   127   63  186 1    
   128   63  187 1    
   129   63  188 1    
   130   64   65 am   BACKBONE|DICT|INTERRES
   131   64  189 1    
   132   65   66 2    
   133   67   68 2    
   134   67   69 am   BACKBONE|DICT|INTERRES
   135   69   70 1    
   136   69  190 1    
   137   70   71 1    
   138   70   72 1    
   139   70  191 1    
   140   71  192 1    
   141   71  193 1    
   142   71  194 1    
   143   72   73 2    
   144   72   74 am   BACKBONE|DICT|INTERRES
   145   74   75 1    
   146   74  195 1    
   147   75   76 1    
   148   75   77 1    
   149   75  196 1    
   150   76  197 1    
   151   76  198 1    
   152   76  199 1    
   153   77   78 2    
   154   77   79 am   BACKBONE|DICT|INTERRES
   155   79   80 1    
   156   79  200 1    
   157   80   81 1    
   158   80   82 1    
   159   80  201 1    
   160   81  202 1    
   161   81  203 1    
   162   81  204 1    
   163   82   83 2    
   164   82   84 am   BACKBONE|DICT|INTERRES
   165   84   85 1    
   166   84  205 1    
   167   85   86 1    
   168   85   87 1    
   169   85  206 1    
   170   86  207 1    
   171   86  208 1    
   172   86  209 1    
   173   87   88 2    
   174   87   89 am   BACKBONE|DICT|INTERRES
   175   89   90 1    
   176   89  210 1    
   177   90   91 1    
   178   90   92 1    
   179   90  211 1    
   180   91  212 1    
   181   91  213 1    
   182   91  214 1    
   183   92   93 2    
   184   92   94 am   BACKBONE|DICT|INTERRES
   185   94   95 1    
   186   94  215 1    
   187   95   96 1    
   188   95   97 1    
   189   95  216 1    
   190   96  217 1    
   191   96  218 1    
   192   96  219 1    
   193   97   98 2    
   194   97   99 am   BACKBONE|DICT|INTERRES
   195   99  100 1    
   196   99  220 1    
   197  100  101 1    
   198  100  102 1    
   199  100  221 1    
   200  101  222 1    
   201  101  223 1    
   202  101  224 1    
   203  102  103 2    
   204  102  104 am   BACKBONE|DICT|INTERRES
   205  104  105 1    
   206  104  225 1    
   207  105  106 1    
   208  105  107 1    
   209  105  226 1    
   210  106  227 1    
   211  106  228 1    
   212  106  229 1    
   213  107  108 2    
   214  107  109 am   BACKBONE|DICT|INTERRES
   215  109  110 1    
   216  109  230 1    
   217  110  111 1    
   218  110  112 1    
   219  110  231 1    
   220  111  232 1    
   221  111  233 1    
   222  111  234 1    
   223  112  113 2    
   224  112  114 am   BACKBONE|DICT|INTERRES
   225  114  115 1    
   226  114  235 1    
   227  115  116 1    
   228  115  117 1    
   229  115  236 1    
   230  116  237 1    
   231  116  238 1    
   232  116  239 1    
   233  117  118 2    
   234  117  119 am   BACKBONE|DICT|INTERRES
   235  119  120 1    
   236  119  240 1    
   237  120  121 1    
   238  120  124 1    
   239  120  241 1    
   240  121  122 am   BACKBONE|DICT|INTERRES
   241  121  123 2    
   242  122  242 1    
   243  122  243 1    
   244  124  125 1    
   245  124  244 1    
   246  124  245 1    
   247  125  126 1    
   248  126  246 1    
   249  126  247 1    
@<TRIPOS>SUBSTRUCTURE
     1 UNK         1 GROUP             0       ****    0 ROOT    
