@<TRIPOS>MOLECULE
3R540
247   249    1
SMALL
USER_CHARGES


@<TRIPOS>ATOM
      1 CA         -0.9861  -13.4929  -46.1451 C.3       0 UNK        -0.1800 
      2 C           0.3023  -13.4977  -46.9556 C.2       0 UNK         0.5000 
      3 O           1.3788  -13.2703  -46.4041 O.2       0 UNK        -0.5000 
      4 N           0.2004  -13.7879  -48.2592 N.am      1 UNK        -0.5000 
      5 CA          1.3077  -13.8371  -49.2250 C.3       1 UNK         0.1400 
      6 C6          0.7860  -13.9847  -50.6775 C.3       23 UNK        -0.0398 
      7 S7         -0.0027  -12.4667  -51.3360 S.3       23 UNK        -0.2404 
      8 C8         -1.7636  -12.5744  -50.8585 C.3       23 UNK        -0.0205 
      9 C9         -2.3801  -13.9320  -51.1554 C.ar      23 UNK        -0.0193 
     10 C10        -2.7300  -14.2964  -52.4610 C.ar      23 UNK        -0.1150 
     11 C11        -3.2308  -15.5763  -52.7286 C.ar      23 UNK        -0.0193 
     12 C12        -3.3647  -16.4882  -51.6785 C.ar      23 UNK        -0.1150 
     13 C13        -3.0371  -16.1280  -50.3727 C.ar      23 UNK        -0.0193 
     14 C14        -2.5706  -14.8409  -50.1129 C.ar      23 UNK        -0.1150 
     15 C15        -3.1283  -17.1357  -49.2440 C.3       23 UNK        -0.0205 
     16 S16        -1.4870  -17.8556  -48.9413 S.3       23 UNK        -0.2404 
     17 C17        -1.5917  -18.2559  -47.1717 C.3       23 UNK        -0.0398 
     18 CA         -1.3194  -19.7463  -46.8693 C.3       11 UNK         0.1400 
     19 N          -0.8473  -19.9266  -45.4964 N.am      11 UNK        -0.5000 
     20 C          -0.3819  -21.0726  -44.9826 C.2       10 UNK         0.5000 
     21 O          -0.2788  -22.1195  -45.6202 O.2       10 UNK        -0.5000 
     22 CA         -0.0217  -21.0546  -43.4875 C.3       10 UNK         0.1400 
     23 CB          1.3341  -20.3694  -43.2609 C.3       10 UNK        -0.1800 
     24 N          -1.0452  -20.3931  -42.6785 N.am      10 UNK        -0.5000 
     25 C          -2.3149  -20.8073  -42.5635 C.2       9 UNK         0.5000 
     26 O          -2.7580  -21.8229  -43.0984 O.2       9 UNK        -0.5000 
     27 CA         -3.2624  -19.9055  -41.7571 C.3       9 UNK         0.1400 
     28 CB         -3.0842  -20.1303  -40.2481 C.3       9 UNK        -0.1800 
     29 N          -3.0705  -18.4906  -42.0732 N.am      9 UNK        -0.5000 
     30 C          -3.3838  -17.9286  -43.2489 C.2       8 UNK         0.5000 
     31 O          -3.8789  -18.5425  -44.1946 O.2       8 UNK        -0.5000 
     32 CA         -3.0424  -16.4357  -43.4076 C.3       8 UNK         0.1400 
     33 CB         -4.1212  -15.5557  -42.7596 C.3       8 UNK        -0.1800 
     34 N          -1.7314  -16.0899  -42.8539 N.am      8 UNK        -0.5000 
     35 C          -0.5737  -16.5606  -43.3345 C.2       7 UNK         0.5000 
     36 O          -0.4931  -17.3495  -44.2730 O.2       7 UNK        -0.5000 
     37 CA          0.7137  -16.1006  -42.6364 C.3       7 UNK         0.1400 
     38 CB          1.0650  -14.6678  -43.0613 C.3       7 UNK        -0.1800 
     39 N           0.6968  -16.1934  -41.1738 N.am      7 UNK        -0.5000 
     40 C           0.3474  -17.2662  -40.4484 C.2       6 UNK         0.5000 
     41 O          -0.1193  -18.3004  -40.9272 O.2       6 UNK        -0.5000 
     42 CA          0.6646  -17.1833  -38.9481 C.3       6 UNK         0.1400 
     43 CB          0.1092  -18.3728  -38.1442 C.3       6 UNK        -0.1800 
     44 N           2.1176  -17.1525  -38.8291 N.am      6 UNK        -0.5000 
     45 C           2.8347  -16.2519  -38.1481 C.2       5 UNK         0.5000 
     46 O           2.3452  -15.4057  -37.3991 O.2       5 UNK        -0.5000 
     47 CA          4.3617  -16.2800  -38.3778 C.3       5 UNK         0.1400 
     48 CB          5.0510  -17.1400  -37.3075 C.3       5 UNK        -0.1800 
     49 N           4.7454  -16.7695  -39.7096 N.am      5 UNK        -0.5000 
     50 C           4.4256  -16.1673  -40.8644 C.2       4 UNK         0.5000 
     51 O           3.8056  -15.1029  -40.9191 O.2       4 UNK        -0.5000 
     52 CA          4.8240  -16.9093  -42.1585 C.3       4 UNK         0.1400 
     53 CB          4.1392  -18.2857  -42.2381 C.3       4 UNK        -0.1800 
     54 N           4.4744  -16.1479  -43.3599 N.am      4 UNK        -0.5000 
     55 C           5.1564  -15.0948  -43.8286 C.2       3 UNK         0.5000 
     56 O           6.2051  -14.6905  -43.3216 O.2       3 UNK        -0.5000 
     57 CA          4.5646  -14.3652  -45.0585 C.3       3 UNK         0.1400 
     58 CB          5.6475  -13.6756  -45.9140 C.3       3 UNK        -0.1800 
     59 N           3.6918  -15.1825  -45.9139 N.am      3 UNK        -0.5000 
     60 C           4.0153  -16.3096  -46.5712 C.2       2 UNK         0.5000 
     61 O           5.1021  -16.8785  -46.4681 O.2       2 UNK        -0.5000 
     62 CA          2.9463  -16.9048  -47.5127 C.3       2 UNK         0.1400 
     63 CB          2.1453  -17.9967  -46.7866 C.3       2 UNK        -0.1800 
     64 N           2.0212  -15.9031  -48.0514 N.am      2 UNK        -0.5000 
     65 C           2.3640  -14.9246  -48.9050 C.2       1 UNK         0.5000 
     66 O           3.4803  -14.8400  -49.4186 O.2       1 UNK        -0.5000 
     67 C          -2.5447  -20.6281  -47.1845 C.2       11 UNK         0.5000 
     68 O          -2.5795  -21.2605  -48.2417 O.2       11 UNK        -0.5000 
     69 N          -3.5037  -20.6880  -46.2487 N.am      12 UNK        -0.5000 
     70 CA         -4.6875  -21.5424  -46.3336 C.3       12 UNK         0.1400 
     71 CB         -5.6688  -21.1855  -45.2072 C.3       12 UNK        -0.1800 
     72 C          -4.3366  -23.0406  -46.3065 C.2       12 UNK         0.5000 
     73 O          -4.8382  -23.7905  -47.1439 O.2       12 UNK        -0.5000 
     74 N          -3.4524  -23.4427  -45.3816 N.am      13 UNK        -0.5000 
     75 CA         -2.9586  -24.8154  -45.2362 C.3       13 UNK         0.1400 
     76 CB         -2.1053  -24.9222  -43.9634 C.3       13 UNK        -0.1800 
     77 C          -2.1670  -25.3079  -46.4622 C.2       13 UNK         0.5000 
     78 O          -2.3098  -26.4662  -46.8547 O.2       13 UNK        -0.5000 
     79 N          -1.3774  -24.4097  -47.0647 N.am      14 UNK        -0.5000 
     80 CA         -0.6312  -24.6439  -48.3013 C.3       14 UNK         0.1400 
     81 CB          0.5100  -23.6172  -48.3851 C.3       14 UNK        -0.1800 
     82 C          -1.5037  -24.5724  -49.5712 C.2       14 UNK         0.5000 
     83 O          -0.9938  -24.8511  -50.6571 O.2       14 UNK        -0.5000 
     84 N          -2.7719  -24.1546  -49.4368 N.am      15 UNK        -0.5000 
     85 CA         -3.7451  -23.9078  -50.5056 C.3       15 UNK         0.1400 
     86 CB         -4.1849  -25.2322  -51.1620 C.3       15 UNK        -0.1800 
     87 C          -3.2355  -22.8736  -51.5285 C.2       15 UNK         0.5000 
     88 O          -3.3474  -23.0909  -52.7371 O.2       15 UNK        -0.5000 
     89 N          -2.6659  -21.7728  -51.0164 N.am      16 UNK        -0.5000 
     90 CA         -2.0019  -20.6947  -51.7586 C.3       16 UNK         0.1400 
     91 CB         -2.9931  -19.9802  -52.6983 C.3       16 UNK        -0.1800 
     92 C          -0.7197  -21.1626  -52.4791 C.2       16 UNK         0.5000 
     93 O          -0.3976  -20.6543  -53.5526 O.2       16 UNK        -0.5000 
     94 N          -0.0210  -22.1318  -51.8682 N.am      17 UNK        -0.5000 
     95 CA          1.1251  -22.8737  -52.4051 C.3       17 UNK         0.1400 
     96 CB          2.3375  -21.9500  -52.6481 C.3       17 UNK        -0.1800 
     97 C           0.7167  -23.7049  -53.6377 C.2       17 UNK         0.5000 
     98 O           1.3322  -23.5951  -54.6998 O.2       17 UNK        -0.5000 
     99 N          -0.3391  -24.5113  -53.4506 N.am      18 UNK        -0.5000 
    100 CA        -0.9987  -25.3680  -54.4394 C.3       18 UNK         0.1400 
    101 CB        -0.0767  -26.5359  -54.8474 C.3       18 UNK        -0.1800 
    102 C         -1.5466  -24.5727  -55.6436 C.2       18 UNK         0.5000 
    103 O         -1.2842  -24.9252  -56.7955 O.2       18 UNK        -0.5000 
    104 N         -2.3059  -23.5118  -55.3469 N.am      19 UNK        -0.5000 
    105 CA        -2.9505  -22.6310  -56.3207 C.3       19 UNK         0.1400 
    106 CB        -2.1655  -21.3127  -56.4382 C.3       19 UNK        -0.1800 
    107 C         -4.4304  -22.4303  -55.9508 C.2       19 UNK         0.5000 
    108 O         -4.9450  -21.3122  -56.0183 O.2       19 UNK        -0.5000 
    109 N         -5.0819  -23.5336  -55.5503 N.am      20 UNK        -0.5000 
    110 CA        -6.5194  -23.6870  -55.2869 C.3       20 UNK         0.1400 
    111 CB        -7.3048  -23.5971  -56.6121 C.3       20 UNK        -0.1800 
    112 C         -7.0908  -22.7433  -54.2054 C.2       20 UNK         0.5000 
    113 O         -8.2892  -22.4590  -54.2211 O.2       20 UNK        -0.5000 
    114 N         -6.2285  -22.2819  -53.2871 N.am      21 UNK        -0.5000 
    115 CA        -6.5119  -21.2925  -52.2413 C.3       21 UNK         0.1400 
    116 CB        -7.5201  -21.8396  -51.2090 C.3       21 UNK        -0.1800 
    117 C         -6.8924  -19.9028  -52.8037 C.2       21 UNK         0.5000 
    118 O         -7.6962  -19.1939  -52.1955 O.2       21 UNK        -0.5000 
    119 N         -6.2719  -19.5257  -53.9317 N.am      22 UNK        -0.5000 
    120 CA        -6.4572  -18.2540  -54.6510 C.3       22 UNK         0.1400 
    121 C         -7.7889  -18.1773  -55.4586 C.2       22 UNK         0.5000 
    122 N         -8.0995  -17.0320  -56.0513 N.am      22 UNK        -0.7600 
    123 O         -8.5339  -19.1459  -55.5884 O.2       22 UNK        -0.5000 
    124 C124       -6.2061  -17.0062  -53.7469 C.3       23 UNK        -0.0398 
    125 S125       -5.3114  -15.6555  -54.5932 S.3       23 UNK        -0.2404 
    126 C126       -3.5745  -15.9959  -54.1530 C.3       23 UNK        -0.0205 
    127 H127       -1.8669  -13.4590  -46.7863 H         1 UNK         0.0600 
    128 H128       -1.0138  -12.6243  -45.4873 H         1 UNK         0.0600 
    129 H129       -1.0463  -14.3899  -45.5296 H         1 UNK         0.0600 
    130 H130       -0.7096  -13.9731  -48.6501 H         1 UNK         0.3000 
    131 H131        1.8350  -12.8834  -49.1527 H         1 UNK         0.0600 
    132 H132        0.1242  -14.8455  -50.7729 H         1 UNK         0.0800 
    133 H133        1.6174  -14.1921  -51.3540 H         1 UNK         0.0800 
    134 H134       -2.3187  -11.8031  -51.3943 H         1 UNK         0.0800 
    135 H135       -1.8607  -12.3293  -49.8000 H         1 UNK         0.0800 
    136 H136       -2.5899  -13.5926  -53.2695 H         1 UNK         0.1150 
    137 H137       -3.7132  -17.4867  -51.8730 H         1 UNK         0.1150 
    138 H138       -2.3207  -14.5682  -49.0993 H         1 UNK         0.1150 
    139 H139       -3.5027  -16.6348  -48.3501 H         1 UNK         0.0800 
    140 H140       -3.8383  -17.9300  -49.4803 H         1 UNK         0.0800 
    141 H141       -2.5382  -17.9297  -46.7373 H         1 UNK         0.0800 
    142 H142       -0.8286  -17.6360  -46.7059 H         1 UNK         0.0800 
    143 H143       -0.5066  -20.0841  -47.5160 H         1 UNK         0.0600 
    144 H144       -0.8624  -19.0998  -44.9047 H         1 UNK         0.3000 
    145 H145        0.0555  -22.0897  -43.1487 H         1 UNK         0.0600 
    146 H146        1.6213  -20.4043  -42.2099 H         1 UNK         0.0600 
    147 H147        2.1223  -20.8621  -43.8315 H         1 UNK         0.0600 
    148 H148        1.3129  -19.3232  -43.5667 H         1 UNK         0.0600 
    149 H149       -0.7595  -19.5584  -42.1719 H         1 UNK         0.3000 
    150 H150       -4.2871  -20.1756  -42.0213 H         1 UNK         0.0600 
    151 H151       -3.2729  -21.1722  -39.9864 H         1 UNK         0.0600 
    152 H152       -3.7797  -19.5194  -39.6725 H         1 UNK         0.0600 
    153 H153       -2.0733  -19.8895  -39.9192 H         1 UNK         0.0600 
    154 H154       -2.5959  -17.9310  -41.3800 H         1 UNK         0.3000 
    155 H155       -3.0231  -16.2150  -44.4771 H         1 UNK         0.0600 
    156 H156       -4.1689  -15.7035  -41.6800 H         1 UNK         0.0600 
    157 H157       -5.1072  -15.7844  -43.1665 H         1 UNK         0.0600 
    158 H158       -3.9313  -14.4986  -42.9461 H         1 UNK         0.0600 
    159 H159       -1.7127  -15.4574  -42.0674 H         1 UNK         0.3000 
    160 H160        1.5114  -16.7549  -42.9874 H         1 UNK         0.0600 
    161 H161        0.3144  -13.9498  -42.7291 H         1 UNK         0.0600 
    162 H162        1.1340  -14.5947  -44.1454 H         1 UNK         0.0600 
    163 H163        2.0271  -14.3524  -42.6610 H         1 UNK         0.0600 
    164 H164        1.1143  -15.4134  -40.6852 H         1 UNK         0.3000 
    165 H165        0.2192  -16.2626  -38.5653 H         1 UNK         0.0600 
    166 H166        0.3591  -18.2815  -37.0872 H         1 UNK         0.0600 
    167 H167       -0.9777  -18.4190  -38.2184 H         1 UNK         0.0600 
    168 H168        0.5066  -19.3243  -38.4999 H         1 UNK         0.0600 
    169 H169        2.6154  -17.7945  -39.4288 H         1 UNK         0.3000 
    170 H170        4.7262  -15.2552  -38.2804 H         1 UNK         0.0600 
    171 H171        4.8067  -16.7858  -36.3051 H         1 UNK         0.0600 
    172 H172        4.7434  -18.1846  -37.3704 H         1 UNK         0.0600 
    173 H173        6.1358  -17.1016  -37.4083 H         1 UNK         0.0600 
    174 H174        5.2630  -17.6364  -39.7352 H         1 UNK         0.3000 
    175 H175        5.9055  -17.0600  -42.1440 H         1 UNK         0.0600 
    176 H176        3.0604  -18.2107  -42.1078 H         1 UNK         0.0600 
    177 H177        4.3289  -18.7692  -43.1968 H         1 UNK         0.0600 
    178 H178        4.5119  -18.9580  -41.4648 H         1 UNK         0.0600 
    179 H179        3.6248  -16.4079  -43.8341 H         1 UNK         0.3000 
    180 H180        3.9247  -13.5807  -44.6519 H         1 UNK         0.0600 
    181 H181        6.3647  -14.3940  -46.3120 H         1 UNK         0.0600 
    182 H182        6.2060  -12.9437  -45.3294 H         1 UNK         0.0600 
    183 H183        5.2036  -13.1439  -46.7558 H         1 UNK         0.0600 
    184 H184        2.7825  -14.7716  -46.0980 H         1 UNK         0.3000 
    185 H185        3.4692  -17.3677  -48.3523 H         1 UNK         0.0600 
    186 H186        2.8050  -18.7667  -46.3844 H         1 UNK         0.0600 
    187 H187        1.5735  -17.5897  -45.9528 H         1 UNK         0.0600 
    188 H188        1.4518  -18.4910  -47.4660 H         1 UNK         0.0600 
    189 H189        1.0799  -15.9094  -47.6888 H         1 UNK         0.3000 
    190 H190       -3.4222  -20.1102  -45.4183 H         1 UNK         0.3000 
    191 H191       -5.1794  -21.3350  -47.2863 H         1 UNK         0.0600 
    192 H192       -5.2250  -21.3316  -44.2222 H         1 UNK         0.0600 
    193 H193       -6.5656  -21.8041  -45.2593 H         1 UNK         0.0600 
    194 H194       -5.9867  -20.1452  -45.2781 H         1 UNK         0.0600 
    195 H195       -3.1101  -22.7669  -44.7024 H         1 UNK         0.3000 
    196 H196       -3.8257  -25.4685  -45.1196 H         1 UNK         0.0600 
    197 H197       -1.7335  -25.9381  -43.8246 H         1 UNK         0.0600 
    198 H198       -2.6859  -24.6646  -43.0775 H         1 UNK         0.0600 
    199 H199       -1.2418  -24.2572  -44.0018 H         1 UNK         0.0600 
    200 H200       -1.2590  -23.4972  -46.6332 H         1 UNK         0.3000 
    201 H201       -0.1910  -25.6423  -48.2626 H         1 UNK         0.0600 
    202 H202        1.1525  -23.6713  -47.5060 H         1 UNK         0.0600 
    203 H203        0.1291  -22.5975  -48.4571 H         1 UNK         0.0600 
    204 H204        1.1423  -23.7985  -49.2542 H         1 UNK         0.0600 
    205 H205       -3.0969  -23.9337  -48.5036 H         1 UNK         0.3000 
    206 H206       -4.6214  -23.4644  -50.0308 H         1 UNK         0.0600 
    207 H207       -4.9889  -25.0641  -51.8798 H         1 UNK         0.0600 
    208 H208       -4.5579  -25.9343  -50.4165 H         1 UNK         0.0600 
    209 H209       -3.3651  -25.7139  -51.6956 H         1 UNK         0.0600 
    210 H210       -2.6370  -21.6782  -50.0009 H         1 UNK         0.3000 
    211 H211       -1.6768  -19.9694  -51.0130 H         1 UNK         0.0600 
    212 H212       -2.5329  -19.1076  -53.1618 H         1 UNK         0.0600 
    213 H213       -3.8664  -19.6397  -52.1471 H         1 UNK         0.0600 
    214 H214       -3.3413  -20.6269  -53.5018 H         1 UNK         0.0600 
    215 H215       -0.4044  -22.4998  -51.0102 H         1 UNK         0.3000 
    216 H216        1.4163  -23.5922  -51.6383 H         1 UNK         0.0600 
    217 H217        3.2171  -22.5323  -52.9245 H         1 UNK         0.0600 
    218 H218        2.5897  -21.3871  -51.7495 H         1 UNK         0.0600 
    219 H219        2.1570  -21.2362  -53.4519 H         1 UNK         0.0600 
    220 H220       -0.7391  -24.5433  -52.5157 H         1 UNK         0.3000 
    221 H221       -1.8673  -25.7966  -53.9373 H         1 UNK         0.0600 
    222 H222        0.8060  -26.1889  -55.3852 H         1 UNK         0.0600 
    223 H223        0.2608  -27.0939  -53.9740 H         1 UNK         0.0600 
    224 H224       -0.6006  -27.2377  -55.4974 H         1 UNK         0.0600 
    225 H225       -2.5172  -23.3160  -54.3694 H         1 UNK         0.3000 
    226 H226       -2.9544  -23.1024  -57.3053 H         1 UNK         0.0600 
    227 H227       -1.1192  -21.4976  -56.6815 H         1 UNK         0.0600 
    228 H228       -2.5771  -20.6812  -57.2262 H         1 UNK         0.0600 
    229 H229       -2.1952  -20.7407  -55.5125 H         1 UNK         0.0600 
    230 H230       -4.5400  -24.3833  -55.4808 H         1 UNK         0.3000 
    231 H231       -6.6483  -24.6971  -54.8959 H         1 UNK         0.0600 
    232 H232       -6.9029  -24.2838  -57.3571 H         1 UNK         0.0600 
    233 H233       -7.2716  -22.5904  -57.0306 H         1 UNK         0.0600 
    234 H234       -8.3540  -23.8577  -56.4685 H         1 UNK         0.0600 
    235 H235       -5.2619  -22.5815  -53.3607 H         1 UNK         0.3000 
    236 H236       -5.5754  -21.1431  -51.7068 H         1 UNK         0.0600 
    237 H237       -7.5975  -21.1731  -50.3494 H         1 UNK         0.0600 
    238 H238       -8.5201  -21.9425  -51.6306 H         1 UNK         0.0600 
    239 H239       -7.2107  -22.8152  -50.8341 H         1 UNK         0.0600 
    240 H240       -5.7046  -20.2097  -54.4209 H         1 UNK         0.3000 
    241 H241       -5.6755  -18.2856  -55.4109 H         1 UNK         0.0600 
    242 H242       -8.9504  -16.9690  -56.5886 H         1 UNK         0.3800 
    243 H243       -7.4967  -16.2262  -55.9736 H         1 UNK         0.3800 
    244 H244       -7.1465  -16.6116  -53.3581 H         1 UNK         0.0800 
    245 H245       -5.6456  -17.2862  -52.8600 H         1 UNK         0.0800 
    246 H246       -2.9294  -15.4631  -54.8531 H         1 UNK         0.0800 
    247 H247       -3.3630  -17.0560  -54.2997 H         1 UNK         0.0800 
@<TRIPOS>BOND
     1    1    2 1    
     2    1  127 1    
     3    1  128 1    
     4    1  129 1    
     5    2    3 2    
     6    2    4 am   BACKBONE|DICT|INTERRES
     7    4    5 1    
     8    4  130 1    
     9    5    6 1    
    10    5   65 1    
    11    5  131 1    
    12    6    7 1    
    13    6  132 1    
    14    6  133 1    
    15    7    8 1    
    16    8    9 1    
    17    8  134 1    
    18    8  135 1    
    19    9   10 ar   
    20    9   14 ar   
    21   10   11 ar   
    22   10  136 1    
    23   11   12 ar   
    24   11  126 1    
    25   12   13 ar   
    26   12  137 1    
    27   13   14 ar   
    28   13   15 1    
    29   14  138 1    
    30   15   16 1    
    31   15  139 1    
    32   15  140 1    
    33   16   17 1    
    34   17   18 1    
    35   17  141 1    
    36   17  142 1    
    37   18   19 1    
    38   18   67 1    
    39   18  143 1    
    40   19   20 am   BACKBONE|DICT|INTERRES
    41   19  144 1    
    42   20   21 2    
    43   20   22 1    
    44   22   23 1    
    45   22   24 1    
    46   22  145 1    
    47   23  146 1    
    48   23  147 1    
    49   23  148 1    
    50   24   25 am   BACKBONE|DICT|INTERRES
    51   24  149 1    
    52   25   26 2    
    53   25   27 1    
    54   27   28 1    
    55   27   29 1    
    56   27  150 1    
    57   28  151 1    
    58   28  152 1    
    59   28  153 1    
    60   29   30 am   BACKBONE|DICT|INTERRES
    61   29  154 1    
    62   30   31 2    
    63   30   32 1    
    64   32   33 1    
    65   32   34 1    
    66   32  155 1    
    67   33  156 1    
    68   33  157 1    
    69   33  158 1    
    70   34   35 am   BACKBONE|DICT|INTERRES
    71   34  159 1    
    72   35   36 2    
    73   35   37 1    
    74   37   38 1    
    75   37   39 1    
    76   37  160 1    
    77   38  161 1    
    78   38  162 1    
    79   38  163 1    
    80   39   40 am   BACKBONE|DICT|INTERRES
    81   39  164 1    
    82   40   41 2    
    83   40   42 1    
    84   42   43 1    
    85   42   44 1    
    86   42  165 1    
    87   43  166 1    
    88   43  167 1    
    89   43  168 1    
    90   44   45 am   BACKBONE|DICT|INTERRES
    91   44  169 1    
    92   45   46 2    
    93   45   47 1    
    94   47   48 1    
    95   47   49 1    
    96   47  170 1    
    97   48  171 1    
    98   48  172 1    
    99   48  173 1    
   100   49   50 am   BACKBONE|DICT|INTERRES
   101   49  174 1    
   102   50   51 2    
   103   50   52 1    
   104   52   53 1    
   105   52   54 1    
   106   52  175 1    
   107   53  176 1    
   108   53  177 1    
   109   53  178 1    
   110   54   55 am   BACKBONE|DICT|INTERRES
   111   54  179 1    
   112   55   56 2    
   113   55   57 1    
   114   57   58 1    
   115   57   59 1    
   116   57  180 1    
   117   58  181 1    
   118   58  182 1    
   119   58  183 1    
   120   59   60 am   BACKBONE|DICT|INTERRES
   121   59  184 1    
   122   60   61 2    
   123   60   62 1    
   124   62   63 1    
   125   62   64 1    
   126   62  185 1    
   127   63  186 1    
   128   63  187 1    
   129   63  188 1    
   130   64   65 am   BACKBONE|DICT|INTERRES
   131   64  189 1    
   132   65   66 2    
   133   67   68 2    
   134   67   69 am   BACKBONE|DICT|INTERRES
   135   69   70 1    
   136   69  190 1    
   137   70   71 1    
   138   70   72 1    
   139   70  191 1    
   140   71  192 1    
   141   71  193 1    
   142   71  194 1    
   143   72   73 2    
   144   72   74 am   BACKBONE|DICT|INTERRES
   145   74   75 1    
   146   74  195 1    
   147   75   76 1    
   148   75   77 1    
   149   75  196 1    
   150   76  197 1    
   151   76  198 1    
   152   76  199 1    
   153   77   78 2    
   154   77   79 am   BACKBONE|DICT|INTERRES
   155   79   80 1    
   156   79  200 1    
   157   80   81 1    
   158   80   82 1    
   159   80  201 1    
   160   81  202 1    
   161   81  203 1    
   162   81  204 1    
   163   82   83 2    
   164   82   84 am   BACKBONE|DICT|INTERRES
   165   84   85 1    
   166   84  205 1    
   167   85   86 1    
   168   85   87 1    
   169   85  206 1    
   170   86  207 1    
   171   86  208 1    
   172   86  209 1    
   173   87   88 2    
   174   87   89 am   BACKBONE|DICT|INTERRES
   175   89   90 1    
   176   89  210 1    
   177   90   91 1    
   178   90   92 1    
   179   90  211 1    
   180   91  212 1    
   181   91  213 1    
   182   91  214 1    
   183   92   93 2    
   184   92   94 am   BACKBONE|DICT|INTERRES
   185   94   95 1    
   186   94  215 1    
   187   95   96 1    
   188   95   97 1    
   189   95  216 1    
   190   96  217 1    
   191   96  218 1    
   192   96  219 1    
   193   97   98 2    
   194   97   99 am   BACKBONE|DICT|INTERRES
   195   99  100 1    
   196   99  220 1    
   197  100  101 1    
   198  100  102 1    
   199  100  221 1    
   200  101  222 1    
   201  101  223 1    
   202  101  224 1    
   203  102  103 2    
   204  102  104 am   BACKBONE|DICT|INTERRES
   205  104  105 1    
   206  104  225 1    
   207  105  106 1    
   208  105  107 1    
   209  105  226 1    
   210  106  227 1    
   211  106  228 1    
   212  106  229 1    
   213  107  108 2    
   214  107  109 am   BACKBONE|DICT|INTERRES
   215  109  110 1    
   216  109  230 1    
   217  110  111 1    
   218  110  112 1    
   219  110  231 1    
   220  111  232 1    
   221  111  233 1    
   222  111  234 1    
   223  112  113 2    
   224  112  114 am   BACKBONE|DICT|INTERRES
   225  114  115 1    
   226  114  235 1    
   227  115  116 1    
   228  115  117 1    
   229  115  236 1    
   230  116  237 1    
   231  116  238 1    
   232  116  239 1    
   233  117  118 2    
   234  117  119 am   BACKBONE|DICT|INTERRES
   235  119  120 1    
   236  119  240 1    
   237  120  121 1    
   238  120  124 1    
   239  120  241 1    
   240  121  122 am   BACKBONE|DICT|INTERRES
   241  121  123 2    
   242  122  242 1    
   243  122  243 1    
   244  124  125 1    
   245  124  244 1    
   246  124  245 1    
   247  125  126 1    
   248  126  246 1    
   249  126  247 1    
@<TRIPOS>SUBSTRUCTURE
     1 UNK         1 GROUP             0       ****    0 ROOT    
