@<TRIPOS>MOLECULE
3R540
247   249    1
SMALL
USER_CHARGES


@<TRIPOS>ATOM
      1 CA         -1.6983  -11.5613  -48.7888 C.3       0 UNK        -0.1800 
      2 C          -0.5073  -12.0337  -47.9686 C.2       0 UNK         0.5000 
      3 O          -0.6708  -12.3851  -46.8023 O.2       0 UNK        -0.5000 
      4 N           0.6922  -12.0274  -48.5669 N.am      1 UNK        -0.5000 
      5 CA          1.9568  -12.5135  -47.9867 C.3       1 UNK         0.1400 
      6 C6          1.9534  -14.0407  -47.6981 C.3       23 UNK        -0.0398 
      7 S7          1.5039  -15.0490  -49.1524 S.3       23 UNK        -0.2404 
      8 C8          2.7805  -16.3465  -49.1062 C.3       23 UNK        -0.0205 
      9 C9          2.4032  -17.5231  -49.9945 C.ar      23 UNK        -0.0193 
     10 C10         2.4381  -17.3923  -51.3850 C.ar      23 UNK        -0.1150 
     11 C11         2.0860  -18.4574  -52.2197 C.ar      23 UNK        -0.0193 
     12 C12         1.7020  -19.6740  -51.6347 C.ar      23 UNK        -0.1150 
     13 C13         1.6575  -19.8185  -50.2452 C.ar      23 UNK        -0.0193 
     14 C14         2.0150  -18.7417  -49.4313 C.ar      23 UNK        -0.1150 
     15 C15         1.1929  -21.1280  -49.6260 C.3       23 UNK        -0.0205 
     16 S16         2.5404  -22.3417  -49.5039 S.3       23 UNK        -0.2404 
     17 C17         1.6527  -23.7712  -48.7890 C.3       23 UNK        -0.0398 
     18 CA          2.1236  -24.1277  -47.3554 C.3       11 UNK         0.1400 
     19 N           1.9944  -22.9899  -46.4383 N.am      11 UNK        -0.5000 
     20 C           2.5355  -22.8983  -45.2158 C.2       10 UNK         0.5000 
     21 O           3.3207  -23.7269  -44.7545 O.2       10 UNK        -0.5000 
     22 CA          2.0895  -21.7059  -44.3430 C.3       10 UNK         0.1400 
     23 CB          3.2413  -20.7057  -44.1699 C.3       10 UNK        -0.1800 
     24 N           0.8939  -21.0057  -44.8385 N.am      10 UNK        -0.5000 
     25 C          -0.3361  -21.5441  -44.9103 C.2       9 UNK         0.5000 
     26 O          -0.5698  -22.7158  -44.6086 O.2       9 UNK        -0.5000 
     27 CA         -1.4855  -20.6678  -45.4460 C.3       9 UNK         0.1400 
     28 CB         -2.7260  -20.7419  -44.5396 C.3       9 UNK        -0.1800 
     29 N          -1.0835  -19.2682  -45.6105 N.am      9 UNK        -0.5000 
     30 C          -0.8827  -18.6749  -46.7945 C.2       8 UNK         0.5000 
     31 O          -1.0845  -19.2309  -47.8737 O.2       8 UNK        -0.5000 
     32 CA         -0.3594  -17.2289  -46.8023 C.3       8 UNK         0.1400 
     33 CB         -1.4934  -16.2282  -47.0633 C.3       8 UNK        -0.1800 
     34 N           0.3801  -16.8368  -45.6019 N.am      8 UNK        -0.5000 
     35 C           1.5817  -17.3269  -45.2680 C.2       7 UNK         0.5000 
     36 O           2.1189  -18.2536  -45.8707 O.2       7 UNK        -0.5000 
     37 CA          2.3007  -16.6978  -44.0657 C.3       7 UNK         0.1400 
     38 CB          2.9969  -15.3925  -44.4735 C.3       7 UNK        -0.1800 
     39 N           1.3652  -16.4353  -42.9753 N.am      7 UNK        -0.5000 
     40 C           1.3473  -17.1031  -41.8138 C.2       6 UNK         0.5000 
     41 O           2.1972  -17.9308  -41.4835 O.2       6 UNK        -0.5000 
     42 CA          0.1667  -16.8239  -40.8602 C.3       6 UNK         0.1400 
     43 CB          0.5596  -15.7672  -39.8171 C.3       6 UNK        -0.1800 
     44 N          -1.0589  -16.3936  -41.5381 N.am      6 UNK        -0.5000 
     45 C          -1.7208  -17.1037  -42.4634 C.2       5 UNK         0.5000 
     46 O          -1.3837  -18.2279  -42.8322 O.2       5 UNK        -0.5000 
     47 CA         -2.9230  -16.4228  -43.1461 C.3       5 UNK         0.1400 
     48 CB         -4.2307  -16.8195  -42.4464 C.3       5 UNK        -0.1800 
     49 N          -2.8444  -14.9586  -43.2277 N.am      5 UNK        -0.5000 
     50 C          -1.8342  -14.2476  -43.7501 C.2       4 UNK         0.5000 
     51 O          -0.7960  -14.7605  -44.1771 O.2       4 UNK        -0.5000 
     52 CA         -1.9932  -12.7142  -43.8019 C.3       4 UNK         0.1400 
     53 CB         -3.1091  -12.1524  -42.8908 C.3       4 UNK        -0.1800 
     54 N          -0.7085  -12.0533  -43.5543 N.am      4 UNK        -0.5000 
     55 C          -0.0033  -12.0725  -42.4133 C.2       3 UNK         0.5000 
     56 O          -0.4173  -12.5734  -41.3666 O.2       3 UNK        -0.5000 
     57 CA          1.4117  -11.4591  -42.4334 C.3       3 UNK         0.1400 
     58 CB          2.4498  -12.4784  -41.9368 C.3       3 UNK        -0.1800 
     59 N           1.8261  -10.9777  -43.7539 N.am      3 UNK        -0.5000 
     60 C           1.5972   -9.7536  -44.2407 C.2       2 UNK         0.5000 
     61 O           0.9454   -8.8975  -43.6421 O.2       2 UNK        -0.5000 
     62 CA          2.1891   -9.4187  -45.6261 C.3       2 UNK         0.1400 
     63 CB          3.6833   -9.0595  -45.5171 C.3       2 UNK        -0.1800 
     64 N           1.9558  -10.4321  -46.6652 N.am      2 UNK        -0.5000 
     65 C           2.4158  -11.6901  -46.7555 C.2       1 UNK         0.5000 
     66 O           3.1605  -12.2012  -45.9174 O.2       1 UNK        -0.5000 
     67 C           1.3888  -25.3951  -46.8467 C.2       11 UNK         0.5000 
     68 O           1.6212  -26.4735  -47.3937 O.2       11 UNK        -0.5000 
     69 N           0.5239  -25.2498  -45.8263 N.am      12 UNK        -0.5000 
     70 CA         -0.2568  -26.2977  -45.1555 C.3       12 UNK         0.1400 
     71 CB          0.6630  -27.3366  -44.4796 C.3       12 UNK        -0.1800 
     72 C          -1.3319  -26.9309  -46.0629 C.2       12 UNK         0.5000 
     73 O          -1.6383  -28.1183  -45.9360 O.2       12 UNK        -0.5000 
     74 N          -1.8938  -26.1108  -46.9581 N.am      13 UNK        -0.5000 
     75 CA         -3.0196  -26.4501  -47.8246 C.3       13 UNK         0.1400 
     76 CB         -2.9303  -25.5729  -49.0825 C.3       13 UNK        -0.1800 
     77 C          -4.3668  -26.2562  -47.0990 C.2       13 UNK         0.5000 
     78 O          -4.3997  -25.8276  -45.9425 O.2       13 UNK        -0.5000 
     79 N          -5.4638  -26.5626  -47.8053 N.am      14 UNK        -0.5000 
     80 CA         -6.8437  -26.4504  -47.3184 C.3       14 UNK         0.1400 
     81 CB         -7.7860  -27.0780  -48.3577 C.3       14 UNK        -0.1800 
     82 C          -7.2936  -25.0102  -46.9920 C.2       14 UNK         0.5000 
     83 O          -8.2103  -24.8333  -46.1885 O.2       14 UNK        -0.5000 
     84 N          -6.6445  -24.0160  -47.6068 N.am      15 UNK        -0.5000 
     85 CA         -6.8379  -22.5897  -47.3739 C.3       15 UNK         0.1400 
     86 CB         -8.1185  -22.0947  -48.0776 C.3       15 UNK        -0.1800 
     87 C          -5.5850  -21.8385  -47.8521 C.2       15 UNK         0.5000 
     88 O          -4.6748  -22.4511  -48.4222 O.2       15 UNK        -0.5000 
     89 N          -5.5618  -20.5233  -47.6105 N.am      16 UNK        -0.5000 
     90 CA         -4.4857  -19.6136  -48.0012 C.3       16 UNK         0.1400 
     91 CB         -4.7948  -18.2174  -47.4399 C.3       16 UNK        -0.1800 
     92 C          -4.2511  -19.5513  -49.5248 C.2       16 UNK         0.5000 
     93 O          -5.1878  -19.7480  -50.3016 O.2       16 UNK        -0.5000 
     94 N          -2.9978  -19.2646  -49.9040 N.am      17 UNK        -0.5000 
     95 CA         -2.4713  -19.1965  -51.2714 C.3       17 UNK         0.1400 
     96 CB         -3.1297  -18.0555  -52.0743 C.3       17 UNK        -0.1800 
     97 C          -2.5366  -20.5594  -51.9877 C.2       17 UNK         0.5000 
     98 O          -2.8863  -20.6265  -53.1670 O.2       17 UNK        -0.5000 
     99 N          -2.1917  -21.6242  -51.2466 N.am      18 UNK        -0.5000 
    100 CA        -2.1987  -23.0301  -51.6668 C.3       18 UNK         0.1400 
    101 CB        -1.1159  -23.2938  -52.7330 C.3       18 UNK        -0.1800 
    102 C         -3.6061  -23.4698  -52.1148 C.2       18 UNK         0.5000 
    103 O         -3.7938  -23.9086  -53.2510 O.2       18 UNK        -0.5000 
    104 N         -4.5907  -23.2351  -51.2361 N.am      19 UNK        -0.5000 
    105 CA        -6.0417  -23.3728  -51.4189 C.3       19 UNK         0.1400 
    106 CB        -6.4387  -24.8157  -51.7831 C.3       19 UNK        -0.1800 
    107 C         -6.6648  -22.3465  -52.3894 C.2       19 UNK         0.5000 
    108 O         -7.7779  -21.8865  -52.1349 O.2       19 UNK        -0.5000 
    109 N         -5.9333  -22.0029  -53.4546 N.am      20 UNK        -0.5000 
    110 CA        -6.2330  -21.0240  -54.5011 C.3       20 UNK         0.1400 
    111 CB        -7.6013  -21.2926  -55.1647 C.3       20 UNK        -0.1800 
    112 C         -5.1426  -21.0326  -55.5892 C.2       20 UNK         0.5000 
    113 O         -4.9985  -20.0358  -56.2989 O.2       20 UNK        -0.5000 
    114 N         -4.4098  -22.1507  -55.7260 N.am      21 UNK        -0.5000 
    115 CA        -3.4671  -22.4299  -56.8136 C.3       21 UNK         0.1400 
    116 CB        -2.9325  -23.8608  -56.6474 C.3       21 UNK        -0.1800 
    117 C         -2.2972  -21.4368  -56.9545 C.2       21 UNK         0.5000 
    118 O         -1.7799  -21.2789  -58.0615 O.2       21 UNK        -0.5000 
    119 N         -1.9058  -20.7882  -55.8525 N.am      22 UNK        -0.5000 
    120 CA        -0.8653  -19.7505  -55.8124 C.3       22 UNK         0.1400 
    121 C         -1.4140  -18.3076  -56.0264 C.2       22 UNK         0.5000 
    122 N         -2.7131  -18.1030  -56.2167 N.am      22 UNK        -0.7600 
    123 O         -0.6459  -17.3501  -56.0346 O.2       22 UNK        -0.5000 
    124 C124       -0.0178  -19.8757  -54.5177 C.3       23 UNK        -0.0398 
    125 S125        1.7715  -19.6583  -54.7977 S.3       23 UNK        -0.2404 
    126 C126        2.1325  -18.2197  -53.7330 C.3       23 UNK        -0.0205 
    127 H127       -2.4370  -12.3590  -48.8664 H         1 UNK         0.0600 
    128 H128       -1.4060  -11.2685  -49.7975 H         1 UNK         0.0600 
    129 H129       -2.1691  -10.7043  -48.3072 H         1 UNK         0.0600 
    130 H130        0.7549  -11.7204  -49.5277 H         1 UNK         0.3000 
    131 H131        2.7173  -12.3329  -48.7476 H         1 UNK         0.0600 
    132 H132        2.9391  -14.3548  -47.3531 H         1 UNK         0.0800 
    133 H133        1.2569  -14.2782  -46.8929 H         1 UNK         0.0800 
    134 H134        3.7348  -15.9299  -49.4312 H         1 UNK         0.0800 
    135 H135        2.9216  -16.6833  -48.0781 H         1 UNK         0.0800 
    136 H136        2.7329  -16.4469  -51.8191 H         1 UNK         0.1150 
    137 H137        1.4312  -20.5219  -52.2444 H         1 UNK         0.1150 
    138 H138        1.9831  -18.8545  -48.3577 H         1 UNK         0.1150 
    139 H139        0.7788  -20.9493  -48.6334 H         1 UNK         0.0800 
    140 H140        0.3882  -21.5480  -50.2284 H         1 UNK         0.0800 
    141 H141        0.5777  -23.5831  -48.8035 H         1 UNK         0.0800 
    142 H142        1.8158  -24.6170  -49.4595 H         1 UNK         0.0800 
    143 H143        3.1838  -24.3842  -47.4074 H         1 UNK         0.0600 
    144 H144        1.3919  -22.2401  -46.7389 H         1 UNK         0.3000 
    145 H145        1.8453  -22.1078  -43.3575 H         1 UNK         0.0600 
    146 H146        2.9489  -19.8725  -43.5312 H         1 UNK         0.0600 
    147 H147        3.5717  -20.3035  -45.1279 H         1 UNK         0.0600 
    148 H148        4.1044  -21.1821  -43.7032 H         1 UNK         0.0600 
    149 H149        1.0322  -20.0526  -45.1512 H         1 UNK         0.3000 
    150 H150       -1.7645  -21.0997  -46.4086 H         1 UNK         0.0600 
    151 H151       -2.4924  -20.4747  -43.5093 H         1 UNK         0.0600 
    152 H152       -3.5144  -20.0757  -44.8898 H         1 UNK         0.0600 
    153 H153       -3.1383  -21.7516  -44.5268 H         1 UNK         0.0600 
    154 H154       -0.9248  -18.7495  -44.7521 H         1 UNK         0.3000 
    155 H155        0.3309  -17.1631  -47.6418 H         1 UNK         0.0600 
    156 H156       -1.9586  -16.4162  -48.0314 H         1 UNK         0.0600 
    157 H157       -1.1193  -15.2045  -47.0841 H         1 UNK         0.0600 
    158 H158       -2.2704  -16.2842  -46.3025 H         1 UNK         0.0600 
    159 H159       -0.0128  -16.0635  -45.0678 H         1 UNK         0.3000 
    160 H160        3.0763  -17.3993  -43.7525 H         1 UNK         0.0600 
    161 H161        2.2781  -14.6072  -44.7090 H         1 UNK         0.0600 
    162 H162        3.6294  -15.5414  -45.3493 H         1 UNK         0.0600 
    163 H163        3.6421  -15.0298  -43.6739 H         1 UNK         0.0600 
    164 H164        0.6088  -15.7888  -43.1739 H         1 UNK         0.3000 
    165 H165       -0.0576  -17.7559  -40.3374 H         1 UNK         0.0600 
    166 H166       -0.2386  -15.6105  -39.0915 H         1 UNK         0.0600 
    167 H167        1.4466  -16.0760  -39.2625 H         1 UNK         0.0600 
    168 H168        0.7829  -14.8075  -40.2840 H         1 UNK         0.0600 
    169 H169       -1.3884  -15.4630  -41.3247 H         1 UNK         0.3000 
    170 H170       -2.9639  -16.8036  -44.1673 H         1 UNK         0.0600 
    171 H171       -4.3317  -17.9045  -42.3924 H         1 UNK         0.0600 
    172 H172       -4.2739  -16.4340  -41.4270 H         1 UNK         0.0600 
    173 H173       -5.0988  -16.4416  -42.9869 H         1 UNK         0.0600 
    174 H174       -3.6473  -14.4533  -42.8821 H         1 UNK         0.3000 
    175 H175       -2.2718  -12.4747  -44.8273 H         1 UNK         0.0600 
    176 H176       -2.9872  -12.4538  -41.8500 H         1 UNK         0.0600 
    177 H177       -3.1225  -11.0628  -42.9194 H         1 UNK         0.0600 
    178 H178       -4.0929  -12.4889  -43.2195 H         1 UNK         0.0600 
    179 H179       -0.2558  -11.6829  -44.3785 H         1 UNK         0.3000 
    180 H180        1.4078  -10.6201  -41.7347 H         1 UNK         0.0600 
    181 H181        2.4235  -13.3916  -42.5288 H         1 UNK         0.0600 
    182 H182        2.2605  -12.7575  -40.8997 H         1 UNK         0.0600 
    183 H183        3.4608  -12.0732  -41.9830 H         1 UNK         0.0600 
    184 H184        2.3632  -11.6172  -44.3349 H         1 UNK         0.3000 
    185 H185        1.6690   -8.5247  -45.9739 H         1 UNK         0.0600 
    186 H186        3.8340   -8.2338  -44.8206 H         1 UNK         0.0600 
    187 H187        4.2817   -9.8977  -45.1594 H         1 UNK         0.0600 
    188 H188        4.0850   -8.7481  -46.4813 H         1 UNK         0.0600 
    189 H189        1.3244  -10.1411  -47.3986 H         1 UNK         0.3000 
    190 H190        0.3766  -24.3163  -45.4557 H         1 UNK         0.3000 
    191 H191       -0.8062  -25.7906  -44.3608 H         1 UNK         0.0600 
    192 H192        0.0881  -28.0124  -43.8456 H         1 UNK         0.0600 
    193 H193        1.4055  -26.8518  -43.8456 H         1 UNK         0.0600 
    194 H194        1.1927  -27.9485  -45.2100 H         1 UNK         0.0600 
    195 H195       -1.6116  -25.1428  -46.9490 H         1 UNK         0.3000 
    196 H196       -2.9446  -27.4975  -48.1244 H         1 UNK         0.0600 
    197 H197       -3.0221  -24.5154  -48.8349 H         1 UNK         0.0600 
    198 H198       -1.9763  -25.7194  -49.5894 H         1 UNK         0.0600 
    199 H199       -3.7134  -25.8152  -49.8014 H         1 UNK         0.0600 
    200 H200       -5.3539  -26.9186  -48.7435 H         1 UNK         0.3000 
    201 H201       -6.9180  -27.0296  -46.3957 H         1 UNK         0.0600 
    202 H202       -8.8214  -27.0471  -48.0158 H         1 UNK         0.0600 
    203 H203       -7.5369  -28.1239  -48.5375 H         1 UNK         0.0600 
    204 H204       -7.7406  -26.5514  -49.3117 H         1 UNK         0.0600 
    205 H205       -5.8528  -24.2330  -48.1978 H         1 UNK         0.3000 
    206 H206       -6.9292  -22.4211  -46.2989 H         1 UNK         0.0600 
    207 H207       -8.9984  -22.6332  -47.7258 H         1 UNK         0.0600 
    208 H208       -8.2959  -21.0374  -47.8798 H         1 UNK         0.0600 
    209 H209       -8.0672  -22.2176  -49.1586 H         1 UNK         0.0600 
    210 H210       -6.3616  -20.0973  -47.1666 H         1 UNK         0.3000 
    211 H211       -3.5739  -19.9828  -47.5330 H         1 UNK         0.0600 
    212 H212       -5.7527  -17.8430  -47.8031 H         1 UNK         0.0600 
    213 H213       -4.0336  -17.4970  -47.7359 H         1 UNK         0.0600 
    214 H214       -4.8260  -18.2265  -46.3502 H         1 UNK         0.0600 
    215 H215       -2.2954  -19.1548  -49.1725 H         1 UNK         0.3000 
    216 H216       -1.4110  -18.9567  -51.1752 H         1 UNK         0.0600 
    217 H217       -3.0636  -17.1082  -51.5395 H         1 UNK         0.0600 
    218 H218       -4.1820  -18.2554  -52.2780 H         1 UNK         0.0600 
    219 H219       -2.6341  -17.9203  -53.0363 H         1 UNK         0.0600 
    220 H220       -1.9697  -21.4570  -50.2761 H         1 UNK         0.3000 
    221 H221       -1.9385  -23.6170  -50.7879 H         1 UNK         0.0600 
    222 H222       -1.0250  -24.3617  -52.9340 H         1 UNK         0.0600 
    223 H223       -1.3503  -22.8082  -53.6798 H         1 UNK         0.0600 
    224 H224       -0.1389  -22.9401  -52.4037 H         1 UNK         0.0600 
    225 H225       -4.3360  -22.8222  -50.3437 H         1 UNK         0.3000 
    226 H226       -6.4702  -23.1659  -50.4409 H         1 UNK         0.0600 
    227 H227       -6.0312  -25.5296  -51.0677 H         1 UNK         0.0600 
    228 H228       -7.5232  -24.9309  -51.7754 H         1 UNK         0.0600 
    229 H229       -6.0910  -25.0985  -52.7767 H         1 UNK         0.0600 
    230 H230       -5.0126  -22.4252  -53.5081 H         1 UNK         0.3000 
    231 H231       -6.2387  -20.0325  -54.0450 H         1 UNK         0.0600 
    232 H232       -7.7526  -20.6466  -56.0307 H         1 UNK         0.0600 
    233 H233       -8.4293  -21.0958  -54.4849 H         1 UNK         0.0600 
    234 H234       -7.6838  -22.3245  -55.5078 H         1 UNK         0.0600 
    235 H235       -4.5646  -22.9206  -55.0894 H         1 UNK         0.3000 
    236 H236       -4.0337  -22.3873  -57.7458 H         1 UNK         0.0600 
    237 H237       -3.7434  -24.5893  -56.6496 H         1 UNK         0.0600 
    238 H238       -2.2571  -24.1251  -57.4621 H         1 UNK         0.0600 
    239 H239       -2.3813  -23.9762  -55.7133 H         1 UNK         0.0600 
    240 H240       -2.4127  -20.9325  -54.9823 H         1 UNK         0.3000 
    241 H241       -0.1995  -19.9250  -56.6593 H         1 UNK         0.0600 
    242 H242       -3.3731  -18.8739  -56.2299 H         1 UNK         0.3800 
    243 H243       -3.0468  -17.1638  -56.3616 H         1 UNK         0.3800 
    244 H244       -0.1240  -20.8724  -54.0917 H         1 UNK         0.0800 
    245 H245       -0.3712  -19.1940  -53.7425 H         1 UNK         0.0800 
    246 H246        1.4415  -17.4145  -53.9881 H         1 UNK         0.0800 
    247 H247        3.1292  -17.8604  -53.9928 H         1 UNK         0.0800 
@<TRIPOS>BOND
     1    1    2 1    
     2    1  127 1    
     3    1  128 1    
     4    1  129 1    
     5    2    3 2    
     6    2    4 am   BACKBONE|DICT|INTERRES
     7    4    5 1    
     8    4  130 1    
     9    5    6 1    
    10    5   65 1    
    11    5  131 1    
    12    6    7 1    
    13    6  132 1    
    14    6  133 1    
    15    7    8 1    
    16    8    9 1    
    17    8  134 1    
    18    8  135 1    
    19    9   10 ar   
    20    9   14 ar   
    21   10   11 ar   
    22   10  136 1    
    23   11   12 ar   
    24   11  126 1    
    25   12   13 ar   
    26   12  137 1    
    27   13   14 ar   
    28   13   15 1    
    29   14  138 1    
    30   15   16 1    
    31   15  139 1    
    32   15  140 1    
    33   16   17 1    
    34   17   18 1    
    35   17  141 1    
    36   17  142 1    
    37   18   19 1    
    38   18   67 1    
    39   18  143 1    
    40   19   20 am   BACKBONE|DICT|INTERRES
    41   19  144 1    
    42   20   21 2    
    43   20   22 1    
    44   22   23 1    
    45   22   24 1    
    46   22  145 1    
    47   23  146 1    
    48   23  147 1    
    49   23  148 1    
    50   24   25 am   BACKBONE|DICT|INTERRES
    51   24  149 1    
    52   25   26 2    
    53   25   27 1    
    54   27   28 1    
    55   27   29 1    
    56   27  150 1    
    57   28  151 1    
    58   28  152 1    
    59   28  153 1    
    60   29   30 am   BACKBONE|DICT|INTERRES
    61   29  154 1    
    62   30   31 2    
    63   30   32 1    
    64   32   33 1    
    65   32   34 1    
    66   32  155 1    
    67   33  156 1    
    68   33  157 1    
    69   33  158 1    
    70   34   35 am   BACKBONE|DICT|INTERRES
    71   34  159 1    
    72   35   36 2    
    73   35   37 1    
    74   37   38 1    
    75   37   39 1    
    76   37  160 1    
    77   38  161 1    
    78   38  162 1    
    79   38  163 1    
    80   39   40 am   BACKBONE|DICT|INTERRES
    81   39  164 1    
    82   40   41 2    
    83   40   42 1    
    84   42   43 1    
    85   42   44 1    
    86   42  165 1    
    87   43  166 1    
    88   43  167 1    
    89   43  168 1    
    90   44   45 am   BACKBONE|DICT|INTERRES
    91   44  169 1    
    92   45   46 2    
    93   45   47 1    
    94   47   48 1    
    95   47   49 1    
    96   47  170 1    
    97   48  171 1    
    98   48  172 1    
    99   48  173 1    
   100   49   50 am   BACKBONE|DICT|INTERRES
   101   49  174 1    
   102   50   51 2    
   103   50   52 1    
   104   52   53 1    
   105   52   54 1    
   106   52  175 1    
   107   53  176 1    
   108   53  177 1    
   109   53  178 1    
   110   54   55 am   BACKBONE|DICT|INTERRES
   111   54  179 1    
   112   55   56 2    
   113   55   57 1    
   114   57   58 1    
   115   57   59 1    
   116   57  180 1    
   117   58  181 1    
   118   58  182 1    
   119   58  183 1    
   120   59   60 am   BACKBONE|DICT|INTERRES
   121   59  184 1    
   122   60   61 2    
   123   60   62 1    
   124   62   63 1    
   125   62   64 1    
   126   62  185 1    
   127   63  186 1    
   128   63  187 1    
   129   63  188 1    
   130   64   65 am   BACKBONE|DICT|INTERRES
   131   64  189 1    
   132   65   66 2    
   133   67   68 2    
   134   67   69 am   BACKBONE|DICT|INTERRES
   135   69   70 1    
   136   69  190 1    
   137   70   71 1    
   138   70   72 1    
   139   70  191 1    
   140   71  192 1    
   141   71  193 1    
   142   71  194 1    
   143   72   73 2    
   144   72   74 am   BACKBONE|DICT|INTERRES
   145   74   75 1    
   146   74  195 1    
   147   75   76 1    
   148   75   77 1    
   149   75  196 1    
   150   76  197 1    
   151   76  198 1    
   152   76  199 1    
   153   77   78 2    
   154   77   79 am   BACKBONE|DICT|INTERRES
   155   79   80 1    
   156   79  200 1    
   157   80   81 1    
   158   80   82 1    
   159   80  201 1    
   160   81  202 1    
   161   81  203 1    
   162   81  204 1    
   163   82   83 2    
   164   82   84 am   BACKBONE|DICT|INTERRES
   165   84   85 1    
   166   84  205 1    
   167   85   86 1    
   168   85   87 1    
   169   85  206 1    
   170   86  207 1    
   171   86  208 1    
   172   86  209 1    
   173   87   88 2    
   174   87   89 am   BACKBONE|DICT|INTERRES
   175   89   90 1    
   176   89  210 1    
   177   90   91 1    
   178   90   92 1    
   179   90  211 1    
   180   91  212 1    
   181   91  213 1    
   182   91  214 1    
   183   92   93 2    
   184   92   94 am   BACKBONE|DICT|INTERRES
   185   94   95 1    
   186   94  215 1    
   187   95   96 1    
   188   95   97 1    
   189   95  216 1    
   190   96  217 1    
   191   96  218 1    
   192   96  219 1    
   193   97   98 2    
   194   97   99 am   BACKBONE|DICT|INTERRES
   195   99  100 1    
   196   99  220 1    
   197  100  101 1    
   198  100  102 1    
   199  100  221 1    
   200  101  222 1    
   201  101  223 1    
   202  101  224 1    
   203  102  103 2    
   204  102  104 am   BACKBONE|DICT|INTERRES
   205  104  105 1    
   206  104  225 1    
   207  105  106 1    
   208  105  107 1    
   209  105  226 1    
   210  106  227 1    
   211  106  228 1    
   212  106  229 1    
   213  107  108 2    
   214  107  109 am   BACKBONE|DICT|INTERRES
   215  109  110 1    
   216  109  230 1    
   217  110  111 1    
   218  110  112 1    
   219  110  231 1    
   220  111  232 1    
   221  111  233 1    
   222  111  234 1    
   223  112  113 2    
   224  112  114 am   BACKBONE|DICT|INTERRES
   225  114  115 1    
   226  114  235 1    
   227  115  116 1    
   228  115  117 1    
   229  115  236 1    
   230  116  237 1    
   231  116  238 1    
   232  116  239 1    
   233  117  118 2    
   234  117  119 am   BACKBONE|DICT|INTERRES
   235  119  120 1    
   236  119  240 1    
   237  120  121 1    
   238  120  124 1    
   239  120  241 1    
   240  121  122 am   BACKBONE|DICT|INTERRES
   241  121  123 2    
   242  122  242 1    
   243  122  243 1    
   244  124  125 1    
   245  124  244 1    
   246  124  245 1    
   247  125  126 1    
   248  126  246 1    
   249  126  247 1    
@<TRIPOS>SUBSTRUCTURE
     1 UNK         1 GROUP             0       ****    0 ROOT    
