@<TRIPOS>MOLECULE
3R540
247   249    1
SMALL
USER_CHARGES


@<TRIPOS>ATOM
      1 CA          5.8904  -11.5866  -45.0164 C.3       0 UNK        -0.1800 
      2 C           4.9308  -12.6046  -45.6140 C.2       0 UNK         0.5000 
      3 O           4.3141  -13.3701  -44.8729 O.2       0 UNK        -0.5000 
      4 N           4.7898  -12.6081  -46.9476 N.am      1 UNK        -0.5000 
      5 CA          3.9121  -13.5131  -47.7022 C.3       1 UNK         0.1400 
      6 C6          4.0833  -13.3369  -49.2333 C.3       23 UNK        -0.0398 
      7 S7          3.5663  -14.8078  -50.1799 S.3       23 UNK        -0.2404 
      8 C8          1.8659  -14.3447  -50.6730 C.3       23 UNK        -0.0205 
      9 C9          1.0500  -15.4630  -51.3225 C.ar      23 UNK        -0.0193 
     10 C10        -0.0646  -15.1188  -52.0974 C.ar      23 UNK        -0.1150 
     11 C11        -0.8584  -16.1082  -52.6855 C.ar      23 UNK        -0.0193 
     12 C12        -0.5272  -17.4503  -52.5058 C.ar      23 UNK        -0.1150 
     13 C13         0.5745  -17.8129  -51.7318 C.ar      23 UNK        -0.0193 
     14 C14         1.3530  -16.8193  -51.1350 C.ar      23 UNK        -0.1150 
     15 C15         0.9069  -19.2791  -51.5302 C.3       23 UNK        -0.0205 
     16 S16        -0.0002  -19.9378  -50.1046 S.3       23 UNK        -0.2404 
     17 C17         0.2479  -21.7314  -50.3312 C.3       23 UNK        -0.0398 
     18 CA          0.5520  -22.4823  -49.0140 C.3       11 UNK         0.1400 
     19 N           1.7281  -21.9261  -48.3398 N.am      11 UNK        -0.5000 
     20 C           2.3916  -22.5103  -47.3369 C.2       10 UNK         0.5000 
     21 O           2.0860  -23.6116  -46.8788 O.2       10 UNK        -0.5000 
     22 CA          3.5620  -21.7287  -46.7007 C.3       10 UNK         0.1400 
     23 CB          3.8681  -20.3719  -47.3787 C.3       10 UNK        -0.1800 
     24 N           3.3474  -21.5466  -45.2612 N.am      10 UNK        -0.5000 
     25 C           2.2943  -20.9458  -44.6911 C.2       9 UNK         0.5000 
     26 O           1.3855  -20.4090  -45.3291 O.2       9 UNK        -0.5000 
     27 CA          2.2528  -20.9643  -43.1562 C.3       9 UNK         0.1400 
     28 CB          3.1898  -19.9042  -42.5590 C.3       9 UNK        -0.1800 
     29 N           0.8908  -20.6973  -42.7028 N.am      9 UNK        -0.5000 
     30 C           0.1523  -21.5341  -41.9654 C.2       8 UNK         0.5000 
     31 O           0.5747  -22.5958  -41.5057 O.2       8 UNK        -0.5000 
     32 CA         -1.2873  -21.0858  -41.6721 C.3       8 UNK         0.1400 
     33 CB         -2.0168  -21.9841  -40.6547 C.3       8 UNK        -0.1800 
     34 N          -1.2719  -19.7038  -41.2051 N.am      8 UNK        -0.5000 
     35 C          -2.2362  -18.8040  -41.4201 C.2       7 UNK         0.5000 
     36 O          -3.2822  -19.0675  -42.0159 O.2       7 UNK        -0.5000 
     37 CA         -2.0064  -17.3827  -40.8622 C.3       7 UNK         0.1400 
     38 CB         -0.6150  -17.1714  -40.2294 C.3       7 UNK        -0.1800 
     39 N          -2.1905  -16.3942  -41.9189 N.am      7 UNK        -0.5000 
     40 C          -3.3561  -15.8408  -42.2753 C.2       6 UNK         0.5000 
     41 O          -4.4181  -16.0269  -41.6788 O.2       6 UNK        -0.5000 
     42 CA         -3.3350  -14.9090  -43.5020 C.3       6 UNK         0.1400 
     43 CB         -3.1814  -13.4467  -43.0569 C.3       6 UNK        -0.1800 
     44 N          -2.2771  -15.2440  -44.4596 N.am      6 UNK        -0.5000 
     45 C          -2.2978  -16.3189  -45.2620 C.2       5 UNK         0.5000 
     46 O          -3.2490  -17.0972  -45.3297 O.2       5 UNK        -0.5000 
     47 CA         -1.0521  -16.5757  -46.1323 C.3       5 UNK         0.1400 
     48 CB         -1.1585  -15.8302  -47.4719 C.3       5 UNK        -0.1800 
     49 N           0.2011  -16.2143  -45.4726 N.am      5 UNK        -0.5000 
     50 C           0.7135  -16.8359  -44.4007 C.2       4 UNK         0.5000 
     51 O           0.1832  -17.7893  -43.8275 O.2       4 UNK        -0.5000 
     52 CA          2.0275  -16.2563  -43.8474 C.3       4 UNK         0.1400 
     53 CB          3.2226  -16.6725  -44.7210 C.3       4 UNK        -0.1800 
     54 N           1.9924  -14.7987  -43.7224 N.am      4 UNK        -0.5000 
     55 C           1.1511  -14.1236  -42.9258 C.2       3 UNK         0.5000 
     56 O           0.3346  -14.6606  -42.1788 O.2       3 UNK        -0.5000 
     57 CA          1.1963  -12.5887  -43.0119 C.3       3 UNK         0.1400 
     58 CB          2.3660  -12.0211  -42.1936 C.3       3 UNK        -0.1800 
     59 N           1.2848  -12.1194  -44.3939 N.am      3 UNK        -0.5000 
     60 C           0.3025  -12.2452  -45.2975 C.2       2 UNK         0.5000 
     61 O          -0.7948  -12.7424  -45.0524 O.2       2 UNK        -0.5000 
     62 CA          0.6153  -11.7775  -46.7289 C.3       2 UNK         0.1400 
     63 CB          0.3974  -10.2636  -46.8675 C.3       2 UNK        -0.1800 
     64 N           1.9760  -12.1144  -47.1465 N.am      2 UNK        -0.5000 
     65 C           2.4344  -13.3667  -47.2861 C.2       1 UNK         0.5000 
     66 O           1.7564  -14.3711  -47.0712 O.2       1 UNK        -0.5000 
     67 C          -0.6977  -22.5655  -48.1066 C.2       11 UNK         0.5000 
     68 O          -1.5710  -23.3990  -48.3578 O.2       11 UNK        -0.5000 
     69 N          -0.7730  -21.7290  -47.0605 N.am      12 UNK        -0.5000 
     70 CA         -1.8807  -21.7325  -46.1049 C.3       12 UNK         0.1400 
     71 CB         -2.0069  -20.3599  -45.4332 C.3       12 UNK        -0.1800 
     72 C          -1.7823  -22.8674  -45.0718 C.2       12 UNK         0.5000 
     73 O          -2.7854  -23.1690  -44.4271 O.2       12 UNK        -0.5000 
     74 N          -0.6143  -23.5196  -44.9591 N.am      13 UNK        -0.5000 
     75 CA         -0.3998  -24.6911  -44.1011 C.3       13 UNK         0.1400 
     76 CB          1.1002  -25.0123  -44.0371 C.3       13 UNK        -0.1800 
     77 C          -1.2000  -25.9293  -44.5548 C.2       13 UNK         0.5000 
     78 O          -1.4914  -26.7984  -43.7332 O.2       13 UNK        -0.5000 
     79 N          -1.5729  -25.9693  -45.8427 N.am      14 UNK        -0.5000 
     80 CA         -2.4741  -26.9641  -46.4272 C.3       14 UNK         0.1400 
     81 CB         -2.2987  -26.9389  -47.9546 C.3       14 UNK        -0.1800 
     82 C          -3.9562  -26.7367  -46.0558 C.2       14 UNK         0.5000 
     83 O          -4.7712  -27.6304  -46.2849 O.2       14 UNK        -0.5000 
     84 N          -4.2736  -25.5485  -45.5163 N.am      15 UNK        -0.5000 
     85 CA         -5.5986  -25.0314  -45.1635 C.3       15 UNK         0.1400 
     86 CB         -6.0913  -25.7155  -43.8717 C.3       15 UNK        -0.1800 
     87 C          -6.6290  -25.1117  -46.3188 C.2       15 UNK         0.5000 
     88 O          -7.6470  -25.7889  -46.1731 O.2       15 UNK        -0.5000 
     89 N          -6.4077  -24.4595  -47.4687 N.am      16 UNK        -0.5000 
     90 CA         -5.2883  -23.6110  -47.8688 C.3       16 UNK         0.1400 
     91 CB         -5.5480  -22.1572  -47.4378 C.3       16 UNK        -0.1800 
     92 C          -5.1627  -23.7149  -49.3932 C.2       16 UNK         0.5000 
     93 O          -6.1842  -23.7325  -50.0840 O.2       16 UNK        -0.5000 
     94 N          -3.9232  -23.7655  -49.8925 N.am      17 UNK        -0.5000 
     95 CA         -3.6126  -23.8586  -51.3207 C.3       17 UNK         0.1400 
     96 CB         -2.3430  -24.7066  -51.5012 C.3       17 UNK        -0.1800 
     97 C          -3.4622  -22.4788  -51.9898 C.2       17 UNK         0.5000 
     98 O          -3.2912  -22.4203  -53.2071 O.2       17 UNK        -0.5000 
     99 N          -3.5372  -21.3921  -51.2054 N.am      18 UNK        -0.5000 
    100 CA        -3.3869  -20.0027  -51.6520 C.3       18 UNK         0.1400 
    101 CB        -3.5374  -19.0627  -50.4451 C.3       18 UNK        -0.1800 
    102 C         -4.3700  -19.5976  -52.7668 C.2       18 UNK         0.5000 
    103 O         -3.9805  -18.9069  -53.7092 O.2       18 UNK        -0.5000 
    104 N         -5.6154  -20.0792  -52.6542 N.am      19 UNK        -0.5000 
    105 CA        -6.6898  -19.8601  -53.6231 C.3       19 UNK         0.1400 
    106 CB        -8.0188  -20.3171  -53.0026 C.3       19 UNK        -0.1800 
    107 C         -6.4544  -20.5650  -54.9730 C.2       19 UNK         0.5000 
    108 O         -6.9689  -20.0992  -55.9896 O.2       19 UNK        -0.5000 
    109 N         -5.6856  -21.6629  -54.9645 N.am      20 UNK        -0.5000 
    110 CA        -5.2537  -22.3692  -56.1681 C.3       20 UNK         0.1400 
    111 CB        -5.0153  -23.8531  -55.8455 C.3       20 UNK        -0.1800 
    112 C         -3.9904  -21.7171  -56.7517 C.2       20 UNK         0.5000 
    113 O         -3.9333  -21.4822  -57.9590 O.2       20 UNK        -0.5000 
    114 N         -3.0197  -21.4025  -55.8811 N.am      21 UNK        -0.5000 
    115 CA        -1.7346  -20.7875  -56.2220 C.3       21 UNK         0.1400 
    116 CB        -0.8717  -20.6871  -54.9558 C.3       21 UNK        -0.1800 
    117 C         -1.8636  -19.4167  -56.9146 C.2       21 UNK         0.5000 
    118 O         -1.1452  -19.1634  -57.8827 O.2       21 UNK        -0.5000 
    119 N         -2.7998  -18.5864  -56.4393 N.am      22 UNK        -0.5000 
    120 CA        -3.1927  -17.3125  -57.0691 C.3       22 UNK         0.1400 
    121 C         -4.4671  -17.4366  -57.9582 C.2       22 UNK         0.5000 
    122 N         -4.9152  -18.6301  -58.3285 N.am      22 UNK        -0.7600 
    123 O         -5.0568  -16.4307  -58.3442 O.2       22 UNK        -0.5000 
    124 C124       -3.3039  -16.1618  -56.0334 C.3       23 UNK        -0.0398 
    125 S125       -1.6846  -15.7700  -55.2853 S.3       23 UNK        -0.2404 
    126 C126       -2.0814  -15.7517  -53.5119 C.3       23 UNK        -0.0205 
    127 H127        6.3488  -10.9614  -45.7829 H         1 UNK         0.0600 
    128 H128        6.6851  -12.0968  -44.4722 H         1 UNK         0.0600 
    129 H129        5.3607  -10.9378  -44.3189 H         1 UNK         0.0600 
    130 H130        5.3262  -11.9519  -47.4974 H         1 UNK         0.3000 
    131 H131        4.2231  -14.5265  -47.4383 H         1 UNK         0.0600 
    132 H132        3.5690  -12.4472  -49.6018 H         1 UNK         0.0800 
    133 H133        5.1376  -13.1832  -49.4673 H         1 UNK         0.0800 
    134 H134        1.9293  -13.4966  -51.3567 H         1 UNK         0.0800 
    135 H135        1.3111  -14.0006  -49.8008 H         1 UNK         0.0800 
    136 H136       -0.3204  -14.0778  -52.2381 H         1 UNK         0.1150 
    137 H137       -1.1378  -18.2101  -52.9679 H         1 UNK         0.1150 
    138 H138        2.1884  -17.1168  -50.5187 H         1 UNK         0.1150 
    139 H139        0.6454  -19.8434  -52.4266 H         1 UNK         0.0800 
    140 H140        1.9791  -19.4123  -51.3775 H         1 UNK         0.0800 
    141 H141        1.0716  -21.8938  -51.0276 H         1 UNK         0.0800 
    142 H142       -0.6343  -22.1390  -50.8242 H         1 UNK         0.0800 
    143 H143        0.7949  -23.5131  -49.2813 H         1 UNK         0.0600 
    144 H144        2.0060  -21.0002  -48.6321 H         1 UNK         0.3000 
    145 H145        4.4446  -22.3606  -46.8088 H         1 UNK         0.0600 
    146 H146        4.1246  -20.5049  -48.4305 H         1 UNK         0.0600 
    147 H147        3.0274  -19.6792  -47.3246 H         1 UNK         0.0600 
    148 H148        4.7204  -19.8862  -46.9035 H         1 UNK         0.0600 
    149 H149        4.0344  -21.9851  -44.6643 H         1 UNK         0.3000 
    150 H150        2.5887  -21.9499  -42.8280 H         1 UNK         0.0600 
    151 H151        4.2113  -20.0235  -42.9220 H         1 UNK         0.0600 
    152 H152        3.2205  -19.9796  -41.4720 H         1 UNK         0.0600 
    153 H153        2.8643  -18.8971  -42.8101 H         1 UNK         0.0600 
    154 H154        0.4653  -19.8631  -43.0960 H         1 UNK         0.3000 
    155 H155       -1.8260  -21.1414  -42.6184 H         1 UNK         0.0600 
    156 H156       -1.5169  -21.9808  -39.6855 H         1 UNK         0.0600 
    157 H157       -2.0577  -23.0164  -41.0047 H         1 UNK         0.0600 
    158 H158       -3.0449  -21.6550  -40.5035 H         1 UNK         0.0600 
    159 H159       -0.4302  -19.4109  -40.7284 H         1 UNK         0.3000 
    160 H160       -2.7523  -17.2223  -40.0813 H         1 UNK         0.0600 
    161 H161        0.1888  -17.3292  -40.9502 H         1 UNK         0.0600 
    162 H162       -0.4528  -17.8420  -39.3847 H         1 UNK         0.0600 
    163 H163       -0.5143  -16.1548  -39.8484 H         1 UNK         0.0600 
    164 H164       -1.3667  -16.1645  -42.4603 H         1 UNK         0.3000 
    165 H165       -4.2983  -15.0083  -44.0067 H         1 UNK         0.0600 
    166 H166       -3.2726  -12.7659  -43.9032 H         1 UNK         0.0600 
    167 H167       -3.9534  -13.1723  -42.3369 H         1 UNK         0.0600 
    168 H168       -2.2138  -13.2706  -42.5854 H         1 UNK         0.0600 
    169 H169       -1.4946  -14.6009  -44.5141 H         1 UNK         0.3000 
    170 H170       -1.0079  -17.6438  -46.3477 H         1 UNK         0.0600 
    171 H171       -2.0745  -16.1000  -47.9989 H         1 UNK         0.0600 
    172 H172       -1.1642  -14.7488  -47.3296 H         1 UNK         0.0600 
    173 H173       -0.3230  -16.0767  -48.1283 H         1 UNK         0.0600 
    174 H174        0.7325  -15.4591  -45.8992 H         1 UNK         0.3000 
    175 H175        2.1737  -16.6659  -42.8464 H         1 UNK         0.0600 
    176 H176        3.1786  -16.2154  -45.7093 H         1 UNK         0.0600 
    177 H177        4.1663  -16.3792  -44.2610 H         1 UNK         0.0600 
    178 H178        3.2500  -17.7529  -44.8670 H         1 UNK         0.0600 
    179 H179        2.6610  -14.2765  -44.2813 H         1 UNK         0.3000 
    180 H180        0.2679  -12.2046  -42.5837 H         1 UNK         0.0600 
    181 H181        2.3625  -10.9311  -42.2047 H         1 UNK         0.0600 
    182 H182        3.3306  -12.3572  -42.5745 H         1 UNK         0.0600 
    183 H183        2.2988  -12.3354  -41.1513 H         1 UNK         0.0600 
    184 H184        2.1732  -11.7459  -44.6926 H         1 UNK         0.3000 
    185 H185       -0.0783  -12.2858  -47.4024 H         1 UNK         0.0600 
    186 H186        0.5384   -9.9377  -47.8982 H         1 UNK         0.0600 
    187 H187       -0.6173   -9.9880  -46.5767 H         1 UNK         0.0600 
    188 H188        1.0847   -9.6968  -46.2383 H         1 UNK         0.0600 
    189 H189        2.6042  -11.3436  -47.3209 H         1 UNK         0.3000 
    190 H190       -0.0075  -21.0923  -46.8676 H         1 UNK         0.3000 
    191 H191       -2.8056  -21.8994  -46.6566 H         1 UNK         0.0600 
    192 H192       -2.8454  -20.3376  -44.7359 H         1 UNK         0.0600 
    193 H193       -2.1948  -19.5878  -46.1774 H         1 UNK         0.0600 
    194 H194       -1.1129  -20.0849  -44.8762 H         1 UNK         0.0600 
    195 H195        0.1620  -23.2385  -45.5439 H         1 UNK         0.3000 
    196 H196       -0.7376  -24.4352  -43.0949 H         1 UNK         0.0600 
    197 H197        1.4804  -25.3559  -44.9994 H         1 UNK         0.0600 
    198 H198        1.6812  -24.1412  -43.7355 H         1 UNK         0.0600 
    199 H199        1.2965  -25.8007  -43.3095 H         1 UNK         0.0600 
    200 H200       -1.2735  -25.2213  -46.4524 H         1 UNK         0.3000 
    201 H201       -2.1888  -27.9533  -46.0630 H         1 UNK         0.0600 
    202 H202       -1.2646  -27.1361  -48.2377 H         1 UNK         0.0600 
    203 H203       -2.5835  -25.9753  -48.3773 H         1 UNK         0.0600 
    204 H204       -2.9159  -27.7005  -48.4329 H         1 UNK         0.0600 
    205 H205       -3.5163  -24.9045  -45.3232 H         1 UNK         0.3000 
    206 H206       -5.4691  -23.9733  -44.9351 H         1 UNK         0.0600 
    207 H207       -5.3783  -25.5773  -43.0588 H         1 UNK         0.0600 
    208 H208       -7.0423  -25.2944  -43.5433 H         1 UNK         0.0600 
    209 H209       -6.2360  -26.7875  -44.0104 H         1 UNK         0.0600 
    210 H210       -7.0800  -24.5766  -48.2159 H         1 UNK         0.3000 
    211 H211       -4.3489  -23.9499  -47.4376 H         1 UNK         0.0600 
    212 H212       -4.7931  -21.4828  -47.8433 H         1 UNK         0.0600 
    213 H213       -5.5284  -22.0512  -46.3535 H         1 UNK         0.0600 
    214 H214       -6.5180  -21.8036  -47.7896 H         1 UNK         0.0600 
    215 H215       -3.1197  -23.7216  -49.2674 H         1 UNK         0.3000 
    216 H216       -4.4249  -24.3714  -51.8402 H         1 UNK         0.0600 
    217 H217       -1.4894  -24.2847  -50.9729 H         1 UNK         0.0600 
    218 H218       -2.0706  -24.7910  -52.5541 H         1 UNK         0.0600 
    219 H219       -2.4948  -25.7187  -51.1258 H         1 UNK         0.0600 
    220 H220       -3.6801  -21.5345  -50.2178 H         1 UNK         0.3000 
    221 H221       -2.3755  -19.9016  -52.0447 H         1 UNK         0.0600 
    222 H222       -2.8388  -19.3169  -49.6485 H         1 UNK         0.0600 
    223 H223       -4.5437  -19.1005  -50.0264 H         1 UNK         0.0600 
    224 H224       -3.3376  -18.0292  -50.7315 H         1 UNK         0.0600 
    225 H225       -5.8379  -20.6509  -51.8525 H         1 UNK         0.3000 
    226 H226       -6.7535  -18.7878  -53.8202 H         1 UNK         0.0600 
    227 H227       -8.0052  -21.3808  -52.7608 H         1 UNK         0.0600 
    228 H228       -8.2372  -19.7667  -52.0873 H         1 UNK         0.0600 
    229 H229       -8.8496  -20.1468  -53.6887 H         1 UNK         0.0600 
    230 H230       -5.2562  -21.9495  -54.0953 H         1 UNK         0.3000 
    231 H231       -6.0417  -22.3168  -56.9226 H         1 UNK         0.0600 
    232 H232       -4.2213  -23.9926  -55.1119 H         1 UNK         0.0600 
    233 H233       -4.7296  -24.4031  -56.7429 H         1 UNK         0.0600 
    234 H234       -5.9188  -24.3197  -55.4527 H         1 UNK         0.0600 
    235 H235       -3.1468  -21.6608  -54.9059 H         1 UNK         0.3000 
    236 H236       -1.2300  -21.4580  -56.9205 H         1 UNK         0.0600 
    237 H237       -1.3685  -20.0980  -54.1876 H         1 UNK         0.0600 
    238 H238       -0.6674  -21.6730  -54.5378 H         1 UNK         0.0600 
    239 H239        0.0884  -20.2147  -55.1676 H         1 UNK         0.0600 
    240 H240       -3.3241  -18.8551  -55.6123 H         1 UNK         0.3000 
    241 H241       -2.4148  -17.0131  -57.7735 H         1 UNK         0.0600 
    242 H242       -5.7435  -18.6868  -58.8992 H         1 UNK         0.3800 
    243 H243       -4.4320  -19.4809  -58.0688 H         1 UNK         0.3800 
    244 H244       -3.6628  -15.2449  -56.5035 H         1 UNK         0.0800 
    245 H245       -4.0357  -16.4165  -55.2656 H         1 UNK         0.0800 
    246 H246       -2.8757  -16.4662  -53.2928 H         1 UNK         0.0800 
    247 H247       -2.4644  -14.7685  -53.2348 H         1 UNK         0.0800 
@<TRIPOS>BOND
     1    1    2 1    
     2    1  127 1    
     3    1  128 1    
     4    1  129 1    
     5    2    3 2    
     6    2    4 am   BACKBONE|DICT|INTERRES
     7    4    5 1    
     8    4  130 1    
     9    5    6 1    
    10    5   65 1    
    11    5  131 1    
    12    6    7 1    
    13    6  132 1    
    14    6  133 1    
    15    7    8 1    
    16    8    9 1    
    17    8  134 1    
    18    8  135 1    
    19    9   10 ar   
    20    9   14 ar   
    21   10   11 ar   
    22   10  136 1    
    23   11   12 ar   
    24   11  126 1    
    25   12   13 ar   
    26   12  137 1    
    27   13   14 ar   
    28   13   15 1    
    29   14  138 1    
    30   15   16 1    
    31   15  139 1    
    32   15  140 1    
    33   16   17 1    
    34   17   18 1    
    35   17  141 1    
    36   17  142 1    
    37   18   19 1    
    38   18   67 1    
    39   18  143 1    
    40   19   20 am   BACKBONE|DICT|INTERRES
    41   19  144 1    
    42   20   21 2    
    43   20   22 1    
    44   22   23 1    
    45   22   24 1    
    46   22  145 1    
    47   23  146 1    
    48   23  147 1    
    49   23  148 1    
    50   24   25 am   BACKBONE|DICT|INTERRES
    51   24  149 1    
    52   25   26 2    
    53   25   27 1    
    54   27   28 1    
    55   27   29 1    
    56   27  150 1    
    57   28  151 1    
    58   28  152 1    
    59   28  153 1    
    60   29   30 am   BACKBONE|DICT|INTERRES
    61   29  154 1    
    62   30   31 2    
    63   30   32 1    
    64   32   33 1    
    65   32   34 1    
    66   32  155 1    
    67   33  156 1    
    68   33  157 1    
    69   33  158 1    
    70   34   35 am   BACKBONE|DICT|INTERRES
    71   34  159 1    
    72   35   36 2    
    73   35   37 1    
    74   37   38 1    
    75   37   39 1    
    76   37  160 1    
    77   38  161 1    
    78   38  162 1    
    79   38  163 1    
    80   39   40 am   BACKBONE|DICT|INTERRES
    81   39  164 1    
    82   40   41 2    
    83   40   42 1    
    84   42   43 1    
    85   42   44 1    
    86   42  165 1    
    87   43  166 1    
    88   43  167 1    
    89   43  168 1    
    90   44   45 am   BACKBONE|DICT|INTERRES
    91   44  169 1    
    92   45   46 2    
    93   45   47 1    
    94   47   48 1    
    95   47   49 1    
    96   47  170 1    
    97   48  171 1    
    98   48  172 1    
    99   48  173 1    
   100   49   50 am   BACKBONE|DICT|INTERRES
   101   49  174 1    
   102   50   51 2    
   103   50   52 1    
   104   52   53 1    
   105   52   54 1    
   106   52  175 1    
   107   53  176 1    
   108   53  177 1    
   109   53  178 1    
   110   54   55 am   BACKBONE|DICT|INTERRES
   111   54  179 1    
   112   55   56 2    
   113   55   57 1    
   114   57   58 1    
   115   57   59 1    
   116   57  180 1    
   117   58  181 1    
   118   58  182 1    
   119   58  183 1    
   120   59   60 am   BACKBONE|DICT|INTERRES
   121   59  184 1    
   122   60   61 2    
   123   60   62 1    
   124   62   63 1    
   125   62   64 1    
   126   62  185 1    
   127   63  186 1    
   128   63  187 1    
   129   63  188 1    
   130   64   65 am   BACKBONE|DICT|INTERRES
   131   64  189 1    
   132   65   66 2    
   133   67   68 2    
   134   67   69 am   BACKBONE|DICT|INTERRES
   135   69   70 1    
   136   69  190 1    
   137   70   71 1    
   138   70   72 1    
   139   70  191 1    
   140   71  192 1    
   141   71  193 1    
   142   71  194 1    
   143   72   73 2    
   144   72   74 am   BACKBONE|DICT|INTERRES
   145   74   75 1    
   146   74  195 1    
   147   75   76 1    
   148   75   77 1    
   149   75  196 1    
   150   76  197 1    
   151   76  198 1    
   152   76  199 1    
   153   77   78 2    
   154   77   79 am   BACKBONE|DICT|INTERRES
   155   79   80 1    
   156   79  200 1    
   157   80   81 1    
   158   80   82 1    
   159   80  201 1    
   160   81  202 1    
   161   81  203 1    
   162   81  204 1    
   163   82   83 2    
   164   82   84 am   BACKBONE|DICT|INTERRES
   165   84   85 1    
   166   84  205 1    
   167   85   86 1    
   168   85   87 1    
   169   85  206 1    
   170   86  207 1    
   171   86  208 1    
   172   86  209 1    
   173   87   88 2    
   174   87   89 am   BACKBONE|DICT|INTERRES
   175   89   90 1    
   176   89  210 1    
   177   90   91 1    
   178   90   92 1    
   179   90  211 1    
   180   91  212 1    
   181   91  213 1    
   182   91  214 1    
   183   92   93 2    
   184   92   94 am   BACKBONE|DICT|INTERRES
   185   94   95 1    
   186   94  215 1    
   187   95   96 1    
   188   95   97 1    
   189   95  216 1    
   190   96  217 1    
   191   96  218 1    
   192   96  219 1    
   193   97   98 2    
   194   97   99 am   BACKBONE|DICT|INTERRES
   195   99  100 1    
   196   99  220 1    
   197  100  101 1    
   198  100  102 1    
   199  100  221 1    
   200  101  222 1    
   201  101  223 1    
   202  101  224 1    
   203  102  103 2    
   204  102  104 am   BACKBONE|DICT|INTERRES
   205  104  105 1    
   206  104  225 1    
   207  105  106 1    
   208  105  107 1    
   209  105  226 1    
   210  106  227 1    
   211  106  228 1    
   212  106  229 1    
   213  107  108 2    
   214  107  109 am   BACKBONE|DICT|INTERRES
   215  109  110 1    
   216  109  230 1    
   217  110  111 1    
   218  110  112 1    
   219  110  231 1    
   220  111  232 1    
   221  111  233 1    
   222  111  234 1    
   223  112  113 2    
   224  112  114 am   BACKBONE|DICT|INTERRES
   225  114  115 1    
   226  114  235 1    
   227  115  116 1    
   228  115  117 1    
   229  115  236 1    
   230  116  237 1    
   231  116  238 1    
   232  116  239 1    
   233  117  118 2    
   234  117  119 am   BACKBONE|DICT|INTERRES
   235  119  120 1    
   236  119  240 1    
   237  120  121 1    
   238  120  124 1    
   239  120  241 1    
   240  121  122 am   BACKBONE|DICT|INTERRES
   241  121  123 2    
   242  122  242 1    
   243  122  243 1    
   244  124  125 1    
   245  124  244 1    
   246  124  245 1    
   247  125  126 1    
   248  126  246 1    
   249  126  247 1    
@<TRIPOS>SUBSTRUCTURE
     1 UNK         1 GROUP             0       ****    0 ROOT    
