@<TRIPOS>MOLECULE
3R540
247   249    1
SMALL
USER_CHARGES


@<TRIPOS>ATOM
      1 CA          6.0438  -13.6557  -46.1368 C.3       0 UNK        -0.1800 
      2 C           4.7505  -13.2344  -46.8184 C.2       0 UNK         0.5000 
      3 O           4.6309  -12.0832  -47.2392 O.2       0 UNK        -0.5000 
      4 N           3.7818  -14.1555  -46.9193 N.am      1 UNK        -0.5000 
      5 CA          2.4624  -13.9726  -47.5408 C.3       1 UNK         0.1400 
      6 C6          2.5255  -13.7919  -49.0831 C.3       23 UNK        -0.0398 
      7 S7          3.3322  -15.2007  -49.9225 S.3       23 UNK        -0.2404 
      8 C8          2.0562  -15.7498  -51.0999 C.3       23 UNK        -0.0205 
      9 C9          1.1424  -16.8142  -50.5100 C.ar      23 UNK        -0.0193 
     10 C10        -0.0613  -16.4592  -49.8927 C.ar      23 UNK        -0.1150 
     11 C11        -0.9257  -17.4459  -49.4066 C.ar      23 UNK        -0.0193 
     12 C12        -0.5706  -18.7921  -49.5283 C.ar      23 UNK        -0.1150 
     13 C13         0.6303  -19.1606  -50.1410 C.ar      23 UNK        -0.0193 
     14 C14         1.4829  -18.1659  -50.6276 C.ar      23 UNK        -0.1150 
     15 C15         0.9803  -20.6324  -50.3221 C.3       23 UNK        -0.0205 
     16 S16         2.3294  -21.1956  -49.2296 S.3       23 UNK        -0.2404 
     17 C17         1.6274  -20.9532  -47.5624 C.3       23 UNK        -0.0398 
     18 CA          0.9883  -22.2210  -46.9419 C.3       11 UNK         0.1400 
     19 N           0.7690  -22.0572  -45.5027 N.am      11 UNK        -0.5000 
     20 C           0.3072  -22.9950  -44.6636 C.2       10 UNK         0.5000 
     21 O           0.0650  -24.1548  -44.9956 O.2       10 UNK        -0.5000 
     22 CA          0.0147  -22.5444  -43.2196 C.3       10 UNK         0.1400 
     23 CB          1.3030  -22.4861  -42.3855 C.3       10 UNK        -0.1800 
     24 N          -0.6705  -21.2513  -43.1646 N.am      10 UNK        -0.5000 
     25 C          -1.8984  -21.0285  -43.6566 C.2       9 UNK         0.5000 
     26 O          -2.6026  -21.9032  -44.1602 O.2       9 UNK        -0.5000 
     27 CA         -2.4063  -19.5762  -43.6307 C.3       9 UNK         0.1400 
     28 CB         -2.9330  -19.2028  -42.2373 C.3       9 UNK        -0.1800 
     29 N          -1.3835  -18.6167  -44.0458 N.am      9 UNK        -0.5000 
     30 C          -0.8161  -18.5884  -45.2599 C.2       8 UNK         0.5000 
     31 O          -1.1300  -19.3436  -46.1777 O.2       8 UNK        -0.5000 
     32 CA          0.3296  -17.5831  -45.4669 C.3       8 UNK         0.1400 
     33 CB         -0.2233  -16.1676  -45.6742 C.3       8 UNK        -0.1800 
     34 N           1.2694  -17.5773  -44.3456 N.am      8 UNK        -0.5000 
     35 C           2.0025  -18.6278  -43.9519 C.2       7 UNK         0.5000 
     36 O           2.0097  -19.7116  -44.5310 O.2       7 UNK        -0.5000 
     37 CA          2.8224  -18.4577  -42.6635 C.3       7 UNK         0.1400 
     38 CB          4.1846  -17.8116  -42.9577 C.3       7 UNK        -0.1800 
     39 N           2.0961  -17.6677  -41.6699 N.am      7 UNK        -0.5000 
     40 C           1.0277  -18.1124  -40.9930 C.2       6 UNK         0.5000 
     41 O           0.5820  -19.2562  -41.0958 O.2       6 UNK        -0.5000 
     42 CA          0.3155  -17.0934  -40.0829 C.3       6 UNK         0.1400 
     43 CB          1.0219  -16.9945  -38.7227 C.3       6 UNK        -0.1800 
     44 N           0.2338  -15.7608  -40.6863 N.am      6 UNK        -0.5000 
     45 C          -0.5044  -15.4682  -41.7664 C.2       5 UNK         0.5000 
     46 O          -1.2337  -16.2838  -42.3289 O.2       5 UNK        -0.5000 
     47 CA         -0.3790  -14.0430  -42.3432 C.3       5 UNK         0.1400 
     48 CB         -1.4327  -13.1162  -41.7198 C.3       5 UNK        -0.1800 
     49 N           0.9478  -13.4351  -42.1931 N.am      5 UNK        -0.5000 
     50 C           2.0896  -13.9564  -42.6604 C.2       4 UNK         0.5000 
     51 O           2.1621  -15.0534  -43.2159 O.2       4 UNK        -0.5000 
     52 CA          3.3447  -13.0922  -42.4948 C.3       4 UNK         0.1400 
     53 CB          4.6470  -13.8991  -42.6610 C.3       4 UNK        -0.1800 
     54 N           3.3026  -12.0032  -43.4679 N.am      4 UNK        -0.5000 
     55 C           3.8896  -10.8105  -43.2946 C.2       3 UNK         0.5000 
     56 O           4.4849  -10.4999  -42.2616 O.2       3 UNK        -0.5000 
     57 CA          3.8349   -9.7879  -44.4489 C.3       3 UNK         0.1400 
     58 CB          5.2448   -9.5279  -45.0050 C.3       3 UNK        -0.1800 
     59 N           2.9651  -10.2005  -45.5507 N.am      3 UNK        -0.5000 
     60 C           1.6518   -9.9399  -45.6217 C.2       2 UNK         0.5000 
     61 O           1.0394   -9.2947  -44.7701 O.2       2 UNK        -0.5000 
     62 CA          0.8818  -10.5035  -46.8368 C.3       2 UNK         0.1400 
     63 CB          0.7160   -9.4224  -47.9157 C.3       2 UNK        -0.1800 
     64 N           1.5003  -11.6872  -47.4424 N.am      2 UNK        -0.5000 
     65 C           1.6915  -12.8512  -46.8061 C.2       1 UNK         0.5000 
     66 O           1.3360  -13.0355  -45.6431 O.2       1 UNK        -0.5000 
     67 C          -0.3133  -22.6198  -47.6648 C.2       11 UNK         0.5000 
     68 O          -0.3236  -23.6154  -48.3881 O.2       11 UNK        -0.5000 
     69 N          -1.3934  -21.8618  -47.4264 N.am      12 UNK        -0.5000 
     70 CA         -2.7222  -22.1083  -47.9838 C.3       12 UNK         0.1400 
     71 CB         -3.6715  -20.9644  -47.5992 C.3       12 UNK        -0.1800 
     72 C          -3.3043  -23.4667  -47.5606 C.2       12 UNK         0.5000 
     73 O          -3.8571  -24.1681  -48.4064 O.2       12 UNK        -0.5000 
     74 N          -3.1379  -23.8324  -46.2819 N.am      13 UNK        -0.5000 
     75 CA         -3.5420  -25.1271  -45.7342 C.3       13 UNK         0.1400 
     76 CB         -3.3843  -25.1191  -44.2062 C.3       13 UNK        -0.1800 
     77 C          -2.7713  -26.3027  -46.3613 C.2       13 UNK         0.5000 
     78 O          -3.3936  -27.2901  -46.7533 O.2       13 UNK        -0.5000 
     79 N          -1.4431  -26.1629  -46.4810 N.am      14 UNK        -0.5000 
     80 CA         -0.5537  -27.1504  -47.0976 C.3       14 UNK         0.1400 
     81 CB          0.9083  -26.7477  -46.8519 C.3       14 UNK        -0.1800 
     82 C          -0.8182  -27.3432  -48.6025 C.2       14 UNK         0.5000 
     83 O          -0.7890  -28.4753  -49.0862 O.2       14 UNK        -0.5000 
     84 N          -1.0963  -26.2394  -49.3075 N.am      15 UNK        -0.5000 
     85 CA         -1.4349  -26.2179  -50.7310 C.3       15 UNK         0.1400 
     86 CB         -1.1743  -24.8038  -51.2740 C.3       15 UNK        -0.1800 
     87 C          -2.8884  -26.6378  -51.0292 C.2       15 UNK         0.5000 
     88 O          -3.2310  -26.7976  -52.2013 O.2       15 UNK        -0.5000 
     89 N          -3.7280  -26.7564  -49.9882 N.am      16 UNK        -0.5000 
     90 CA         -5.1779  -26.9877  -50.0359 C.3       16 UNK         0.1400 
     91 CB         -5.4861  -28.4169  -50.5270 C.3       16 UNK        -0.1800 
     92 C          -5.9113  -25.8928  -50.8431 C.2       16 UNK         0.5000 
     93 O          -6.7867  -26.1929  -51.6556 O.2       16 UNK        -0.5000 
     94 N          -5.4796  -24.6416  -50.6275 N.am      17 UNK        -0.5000 
     95 CA         -5.8491  -23.4001  -51.3163 C.3       17 UNK         0.1400 
     96 CB         -7.3546  -23.1034  -51.1660 C.3       17 UNK        -0.1800 
     97 C          -5.3910  -23.3111  -52.7887 C.2       17 UNK         0.5000 
     98 O          -5.6880  -22.3071  -53.4372 O.2       17 UNK        -0.5000 
     99 N          -4.6671  -24.3230  -53.2940 N.am      18 UNK        -0.5000 
    100 CA        -4.1773  -24.4600  -54.6694 C.3       18 UNK         0.1400 
    101 CB        -3.0069  -23.4816  -54.9154 C.3       18 UNK        -0.1800 
    102 C         -5.3237  -24.3444  -55.7009 C.2       18 UNK         0.5000 
    103 O         -6.3557  -24.9970  -55.5341 O.2       18 UNK        -0.5000 
    104 N         -5.1480  -23.4980  -56.7224 N.am      19 UNK        -0.5000 
    105 CA        -6.1619  -23.1400  -57.7145 C.3       19 UNK         0.1400 
    106 CB        -5.4840  -23.0294  -59.0928 C.3       19 UNK        -0.1800 
    107 C         -6.8825  -21.8409  -57.2956 C.2       19 UNK         0.5000 
    108 O         -6.9739  -20.9033  -58.0901 O.2       19 UNK        -0.5000 
    109 N         -7.3527  -21.8055  -56.0393 N.am      20 UNK        -0.5000 
    110 CA        -7.9699  -20.6682  -55.3458 C.3       20 UNK         0.1400 
    111 CB        -9.3203  -20.2890  -55.9898 C.3       20 UNK        -0.1800 
    112 C         -6.9961  -19.4783  -55.2113 C.2       20 UNK         0.5000 
    113 O         -7.3197  -18.3520  -55.5950 O.2       20 UNK        -0.5000 
    114 N         -5.8001  -19.7706  -54.6878 N.am      21 UNK        -0.5000 
    115 CA        -4.7424  -18.8010  -54.4146 C.3       21 UNK         0.1400 
    116 CB        -3.4184  -19.5562  -54.2152 C.3       21 UNK        -0.1800 
    117 C         -5.0561  -17.9319  -53.1823 C.2       21 UNK         0.5000 
    118 O         -5.7761  -18.3757  -52.2842 O.2       21 UNK        -0.5000 
    119 N         -4.4635  -16.7300  -53.1694 N.am      22 UNK        -0.5000 
    120 CA        -4.5235  -15.7007  -52.1167 C.3       22 UNK         0.1400 
    121 C         -5.9579  -15.3358  -51.6174 C.2       22 UNK         0.5000 
    122 N         -6.1547  -15.0263  -50.3422 N.am      22 UNK        -0.7600 
    123 O         -6.8953  -15.2563  -52.4086 O.2       22 UNK        -0.5000 
    124 C124       -3.4292  -15.8882  -51.0230 C.3       23 UNK        -0.0398 
    125 S125       -3.6540  -17.3052  -49.8930 S.3       23 UNK        -0.2404 
    126 C126       -2.2504  -17.0672  -48.7600 C.3       23 UNK        -0.0205 
    127 H127        6.8836  -13.5334  -46.8206 H         1 UNK         0.0600 
    128 H128        6.0141  -14.6978  -45.8177 H         1 UNK         0.0600 
    129 H129        6.2244  -13.0343  -45.2597 H         1 UNK         0.0600 
    130 H130        3.9406  -15.0726  -46.5280 H         1 UNK         0.3000 
    131 H131        1.9093  -14.8928  -47.3514 H         1 UNK         0.0600 
    132 H132        1.5200  -13.6623  -49.4857 H         1 UNK         0.0800 
    133 H133        3.0826  -12.8929  -49.3507 H         1 UNK         0.0800 
    134 H134        2.5570  -16.1549  -51.9805 H         1 UNK         0.0800 
    135 H135        1.4753  -14.8994  -51.4598 H         1 UNK         0.0800 
    136 H136       -0.3349  -15.4171  -49.8094 H         1 UNK         0.1150 
    137 H137       -1.2414  -19.5536  -49.1575 H         1 UNK         0.1150 
    138 H138        2.4076  -18.4469  -51.1120 H         1 UNK         0.1150 
    139 H139        0.1007  -21.2591  -50.1717 H         1 UNK         0.0800 
    140 H140        1.2846  -20.7961  -51.3567 H         1 UNK         0.0800 
    141 H141        0.9317  -20.1159  -47.5632 H         1 UNK         0.0800 
    142 H142        2.4612  -20.6327  -46.9376 H         1 UNK         0.0800 
    143 H143        1.6931  -23.0470  -47.0570 H         1 UNK         0.0600 
    144 H144        0.9949  -21.1416  -45.1212 H         1 UNK         0.3000 
    145 H145       -0.6449  -23.2885  -42.7683 H         1 UNK         0.0600 
    146 H146        1.0900  -22.2193  -41.3501 H         1 UNK         0.0600 
    147 H147        1.8045  -23.4545  -42.3764 H         1 UNK         0.0600 
    148 H148        2.0089  -21.7554  -42.7794 H         1 UNK         0.0600 
    149 H149       -0.1669  -20.4821  -42.7387 H         1 UNK         0.3000 
    150 H150       -3.2353  -19.5027  -44.3376 H         1 UNK         0.0600 
    151 H151       -3.7079  -19.8985  -41.9131 H         1 UNK         0.0600 
    152 H152       -3.3711  -18.2045  -42.2373 H         1 UNK         0.0600 
    153 H153       -2.1412  -19.2191  -41.4881 H         1 UNK         0.0600 
    154 H154       -1.1140  -17.9141  -43.3631 H         1 UNK         0.3000 
    155 H155        0.8872  -17.8700  -46.3609 H         1 UNK         0.0600 
    156 H156       -1.0344  -15.9340  -44.9849 H         1 UNK         0.0600 
    157 H157       -0.6065  -16.0434  -46.6850 H         1 UNK         0.0600 
    158 H158        0.5536  -15.4231  -45.5259 H         1 UNK         0.0600 
    159 H159        1.3784  -16.7023  -43.8405 H         1 UNK         0.3000 
    160 H160        3.0037  -19.4504  -42.2461 H         1 UNK         0.0600 
    161 H161        4.0798  -16.8346  -43.4287 H         1 UNK         0.0600 
    162 H162        4.7697  -18.4360  -43.6339 H         1 UNK         0.0600 
    163 H163        4.7679  -17.6846  -42.0457 H         1 UNK         0.0600 
    164 H164        2.3492  -16.6925  -41.5975 H         1 UNK         0.3000 
    165 H165       -0.7015  -17.4537  -39.9133 H         1 UNK         0.0600 
    166 H166        0.4810  -16.3339  -38.0449 H         1 UNK         0.0600 
    167 H167        1.0818  -17.9723  -38.2428 H         1 UNK         0.0600 
    168 H168        2.0394  -16.6145  -38.8220 H         1 UNK         0.0600 
    169 H169        0.8039  -15.0342  -40.2796 H         1 UNK         0.3000 
    170 H170       -0.5796  -14.1088  -43.4142 H         1 UNK         0.0600 
    171 H171       -2.4355  -13.5292  -41.8380 H         1 UNK         0.0600 
    172 H172       -1.2604  -12.9714  -40.6526 H         1 UNK         0.0600 
    173 H173       -1.4287  -12.1364  -42.1979 H         1 UNK         0.0600 
    174 H174        0.9746  -12.5203  -41.7667 H         1 UNK         0.3000 
    175 H175        3.3222  -12.6841  -41.4821 H         1 UNK         0.0600 
    176 H176        4.7188  -14.3437  -43.6532 H         1 UNK         0.0600 
    177 H177        5.5261  -13.2728  -42.5097 H         1 UNK         0.0600 
    178 H178        4.6975  -14.7104  -41.9340 H         1 UNK         0.0600 
    179 H179        2.7668  -12.1867  -44.3102 H         1 UNK         0.3000 
    180 H180        3.4662   -8.8489  -44.0309 H         1 UNK         0.0600 
    181 H181        5.7034  -10.4397  -45.3879 H         1 UNK         0.0600 
    182 H182        5.9039   -9.1322  -44.2312 H         1 UNK         0.0600 
    183 H183        5.2222   -8.7980  -45.8143 H         1 UNK         0.0600 
    184 H184        3.3995  -10.7559  -46.2814 H         1 UNK         0.3000 
    185 H185       -0.1114  -10.7911  -46.4857 H         1 UNK         0.0600 
    186 H186        0.2305   -8.5346  -47.5083 H         1 UNK         0.0600 
    187 H187        1.6785   -9.1117  -48.3242 H         1 UNK         0.0600 
    188 H188        0.0986   -9.7784  -48.7406 H         1 UNK         0.0600 
    189 H189        1.8639  -11.5708  -48.3765 H         1 UNK         0.3000 
    190 H190       -1.2978  -21.0391  -46.8335 H         1 UNK         0.3000 
    191 H191       -2.6254  -22.1161  -49.0714 H         1 UNK         0.0600 
    192 H192       -3.7714  -20.8706  -46.5175 H         1 UNK         0.0600 
    193 H193       -4.6685  -21.1281  -48.0101 H         1 UNK         0.0600 
    194 H194       -3.3164  -20.0093  -47.9847 H         1 UNK         0.0600 
    195 H195       -2.7156  -23.1745  -45.6327 H         1 UNK         0.3000 
    196 H196       -4.6008  -25.2669  -45.9621 H         1 UNK         0.0600 
    197 H197       -3.6899  -26.0737  -43.7763 H         1 UNK         0.0600 
    198 H198       -4.0023  -24.3448  -43.7515 H         1 UNK         0.0600 
    199 H199       -2.3514  -24.9391  -43.9075 H         1 UNK         0.0600 
    200 H200       -1.0003  -25.3281  -46.1056 H         1 UNK         0.3000 
    201 H201       -0.7284  -28.1094  -46.6057 H         1 UNK         0.0600 
    202 H202        1.1287  -26.6983  -45.7855 H         1 UNK         0.0600 
    203 H203        1.1351  -25.7727  -47.2848 H         1 UNK         0.0600 
    204 H204        1.5941  -27.4721  -47.2930 H         1 UNK         0.0600 
    205 H205       -1.0307  -25.3352  -48.8458 H         1 UNK         0.3000 
    206 H206       -0.7776  -26.9125  -51.2579 H         1 UNK         0.0600 
    207 H207       -0.1452  -24.4931  -51.0924 H         1 UNK         0.0600 
    208 H208       -1.3378  -24.7643  -52.3504 H         1 UNK         0.0600 
    209 H209       -1.8333  -24.0677  -50.8112 H         1 UNK         0.0600 
    210 H210       -3.3521  -26.5717  -49.0673 H         1 UNK         0.3000 
    211 H211       -5.5357  -26.9043  -49.0087 H         1 UNK         0.0600 
    212 H212       -5.1958  -28.5607  -51.5682 H         1 UNK         0.0600 
    213 H213       -6.5522  -28.6337  -50.4518 H         1 UNK         0.0600 
    214 H214       -4.9610  -29.1600  -49.9268 H         1 UNK         0.0600 
    215 H215       -4.7769  -24.5240  -49.8975 H         1 UNK         0.3000 
    216 H216       -5.3092  -22.6090  -50.7939 H         1 UNK         0.0600 
    217 H217       -7.5936  -22.1037  -51.5311 H         1 UNK         0.0600 
    218 H218       -7.6635  -23.1480  -50.1217 H         1 UNK         0.0600 
    219 H219       -7.9662  -23.8082  -51.7296 H         1 UNK         0.0600 
    220 H220       -4.4896  -25.1242  -52.7007 H         1 UNK         0.3000 
    221 H221       -3.7879  -25.4752  -54.7569 H         1 UNK         0.0600 
    222 H222       -3.3320  -22.4426  -54.8801 H         1 UNK         0.0600 
    223 H223       -2.2289  -23.6041  -54.1636 H         1 UNK         0.0600 
    224 H224       -2.5391  -23.6564  -55.8849 H         1 UNK         0.0600 
    225 H225       -4.2862  -22.9732  -56.7628 H         1 UNK         0.3000 
    226 H226       -6.9200  -23.9230  -57.7803 H         1 UNK         0.0600 
    227 H227       -4.9981  -23.9657  -59.3678 H         1 UNK         0.0600 
    228 H228       -6.2135  -22.8038  -59.8716 H         1 UNK         0.0600 
    229 H229       -4.7288  -22.2426  -59.1095 H         1 UNK         0.0600 
    230 H230       -7.1745  -22.6137  -55.4574 H         1 UNK         0.3000 
    231 H231       -8.1777  -21.0068  -54.3296 H         1 UNK         0.0600 
    232 H232       -9.9867  -21.1498  -56.0427 H         1 UNK         0.0600 
    233 H233       -9.1970  -19.8975  -56.9998 H         1 UNK         0.0600 
    234 H234       -9.8273  -19.5218  -55.4036 H         1 UNK         0.0600 
    235 H235       -5.6578  -20.7104  -54.3227 H         1 UNK         0.3000 
    236 H236       -4.6417  -18.1485  -55.2846 H         1 UNK         0.0600 
    237 H237       -3.4870  -20.2787  -53.4007 H         1 UNK         0.0600 
    238 H238       -3.1337  -20.0911  -55.1209 H         1 UNK         0.0600 
    239 H239       -2.6040  -18.8708  -53.9771 H         1 UNK         0.0600 
    240 H240       -3.9117  -16.4729  -53.9748 H         1 UNK         0.3000 
    241 H241       -4.2299  -14.7937  -52.6465 H         1 UNK         0.0600 
    242 H242       -7.0799  -14.7657  -50.0384 H         1 UNK         0.3800 
    243 H243       -5.4136  -15.1088  -49.6646 H         1 UNK         0.3800 
    244 H244       -2.4612  -16.0052  -51.5116 H         1 UNK         0.0800 
    245 H245       -3.3411  -14.9786  -50.4272 H         1 UNK         0.0800 
    246 H246       -2.4094  -17.6811  -47.8732 H         1 UNK         0.0800 
    247 H247       -2.2347  -16.0326  -48.4151 H         1 UNK         0.0800 
@<TRIPOS>BOND
     1    1    2 1    
     2    1  127 1    
     3    1  128 1    
     4    1  129 1    
     5    2    3 2    
     6    2    4 am   BACKBONE|DICT|INTERRES
     7    4    5 1    
     8    4  130 1    
     9    5    6 1    
    10    5   65 1    
    11    5  131 1    
    12    6    7 1    
    13    6  132 1    
    14    6  133 1    
    15    7    8 1    
    16    8    9 1    
    17    8  134 1    
    18    8  135 1    
    19    9   10 ar   
    20    9   14 ar   
    21   10   11 ar   
    22   10  136 1    
    23   11   12 ar   
    24   11  126 1    
    25   12   13 ar   
    26   12  137 1    
    27   13   14 ar   
    28   13   15 1    
    29   14  138 1    
    30   15   16 1    
    31   15  139 1    
    32   15  140 1    
    33   16   17 1    
    34   17   18 1    
    35   17  141 1    
    36   17  142 1    
    37   18   19 1    
    38   18   67 1    
    39   18  143 1    
    40   19   20 am   BACKBONE|DICT|INTERRES
    41   19  144 1    
    42   20   21 2    
    43   20   22 1    
    44   22   23 1    
    45   22   24 1    
    46   22  145 1    
    47   23  146 1    
    48   23  147 1    
    49   23  148 1    
    50   24   25 am   BACKBONE|DICT|INTERRES
    51   24  149 1    
    52   25   26 2    
    53   25   27 1    
    54   27   28 1    
    55   27   29 1    
    56   27  150 1    
    57   28  151 1    
    58   28  152 1    
    59   28  153 1    
    60   29   30 am   BACKBONE|DICT|INTERRES
    61   29  154 1    
    62   30   31 2    
    63   30   32 1    
    64   32   33 1    
    65   32   34 1    
    66   32  155 1    
    67   33  156 1    
    68   33  157 1    
    69   33  158 1    
    70   34   35 am   BACKBONE|DICT|INTERRES
    71   34  159 1    
    72   35   36 2    
    73   35   37 1    
    74   37   38 1    
    75   37   39 1    
    76   37  160 1    
    77   38  161 1    
    78   38  162 1    
    79   38  163 1    
    80   39   40 am   BACKBONE|DICT|INTERRES
    81   39  164 1    
    82   40   41 2    
    83   40   42 1    
    84   42   43 1    
    85   42   44 1    
    86   42  165 1    
    87   43  166 1    
    88   43  167 1    
    89   43  168 1    
    90   44   45 am   BACKBONE|DICT|INTERRES
    91   44  169 1    
    92   45   46 2    
    93   45   47 1    
    94   47   48 1    
    95   47   49 1    
    96   47  170 1    
    97   48  171 1    
    98   48  172 1    
    99   48  173 1    
   100   49   50 am   BACKBONE|DICT|INTERRES
   101   49  174 1    
   102   50   51 2    
   103   50   52 1    
   104   52   53 1    
   105   52   54 1    
   106   52  175 1    
   107   53  176 1    
   108   53  177 1    
   109   53  178 1    
   110   54   55 am   BACKBONE|DICT|INTERRES
   111   54  179 1    
   112   55   56 2    
   113   55   57 1    
   114   57   58 1    
   115   57   59 1    
   116   57  180 1    
   117   58  181 1    
   118   58  182 1    
   119   58  183 1    
   120   59   60 am   BACKBONE|DICT|INTERRES
   121   59  184 1    
   122   60   61 2    
   123   60   62 1    
   124   62   63 1    
   125   62   64 1    
   126   62  185 1    
   127   63  186 1    
   128   63  187 1    
   129   63  188 1    
   130   64   65 am   BACKBONE|DICT|INTERRES
   131   64  189 1    
   132   65   66 2    
   133   67   68 2    
   134   67   69 am   BACKBONE|DICT|INTERRES
   135   69   70 1    
   136   69  190 1    
   137   70   71 1    
   138   70   72 1    
   139   70  191 1    
   140   71  192 1    
   141   71  193 1    
   142   71  194 1    
   143   72   73 2    
   144   72   74 am   BACKBONE|DICT|INTERRES
   145   74   75 1    
   146   74  195 1    
   147   75   76 1    
   148   75   77 1    
   149   75  196 1    
   150   76  197 1    
   151   76  198 1    
   152   76  199 1    
   153   77   78 2    
   154   77   79 am   BACKBONE|DICT|INTERRES
   155   79   80 1    
   156   79  200 1    
   157   80   81 1    
   158   80   82 1    
   159   80  201 1    
   160   81  202 1    
   161   81  203 1    
   162   81  204 1    
   163   82   83 2    
   164   82   84 am   BACKBONE|DICT|INTERRES
   165   84   85 1    
   166   84  205 1    
   167   85   86 1    
   168   85   87 1    
   169   85  206 1    
   170   86  207 1    
   171   86  208 1    
   172   86  209 1    
   173   87   88 2    
   174   87   89 am   BACKBONE|DICT|INTERRES
   175   89   90 1    
   176   89  210 1    
   177   90   91 1    
   178   90   92 1    
   179   90  211 1    
   180   91  212 1    
   181   91  213 1    
   182   91  214 1    
   183   92   93 2    
   184   92   94 am   BACKBONE|DICT|INTERRES
   185   94   95 1    
   186   94  215 1    
   187   95   96 1    
   188   95   97 1    
   189   95  216 1    
   190   96  217 1    
   191   96  218 1    
   192   96  219 1    
   193   97   98 2    
   194   97   99 am   BACKBONE|DICT|INTERRES
   195   99  100 1    
   196   99  220 1    
   197  100  101 1    
   198  100  102 1    
   199  100  221 1    
   200  101  222 1    
   201  101  223 1    
   202  101  224 1    
   203  102  103 2    
   204  102  104 am   BACKBONE|DICT|INTERRES
   205  104  105 1    
   206  104  225 1    
   207  105  106 1    
   208  105  107 1    
   209  105  226 1    
   210  106  227 1    
   211  106  228 1    
   212  106  229 1    
   213  107  108 2    
   214  107  109 am   BACKBONE|DICT|INTERRES
   215  109  110 1    
   216  109  230 1    
   217  110  111 1    
   218  110  112 1    
   219  110  231 1    
   220  111  232 1    
   221  111  233 1    
   222  111  234 1    
   223  112  113 2    
   224  112  114 am   BACKBONE|DICT|INTERRES
   225  114  115 1    
   226  114  235 1    
   227  115  116 1    
   228  115  117 1    
   229  115  236 1    
   230  116  237 1    
   231  116  238 1    
   232  116  239 1    
   233  117  118 2    
   234  117  119 am   BACKBONE|DICT|INTERRES
   235  119  120 1    
   236  119  240 1    
   237  120  121 1    
   238  120  124 1    
   239  120  241 1    
   240  121  122 am   BACKBONE|DICT|INTERRES
   241  121  123 2    
   242  122  242 1    
   243  122  243 1    
   244  124  125 1    
   245  124  244 1    
   246  124  245 1    
   247  125  126 1    
   248  126  246 1    
   249  126  247 1    
@<TRIPOS>SUBSTRUCTURE
     1 UNK         1 GROUP             0       ****    0 ROOT    
