@<TRIPOS>MOLECULE
3R540
247   249    1
SMALL
USER_CHARGES


@<TRIPOS>ATOM
      1 CA         -3.4717  -17.1458  -46.0219 C.3       0 UNK        -0.1800 
      2 C          -3.2700  -15.6897  -46.4193 C.2       0 UNK         0.5000 
      3 O          -3.7624  -14.7980  -45.7292 O.2       0 UNK        -0.5000 
      4 N          -2.5739  -15.4459  -47.5388 N.am      1 UNK        -0.5000 
      5 CA         -2.3815  -14.1117  -48.1244 C.3       1 UNK         0.1400 
      6 C6         -1.8737  -14.1616  -49.5900 C.3       23 UNK        -0.0398 
      7 S7         -2.7536  -15.3480  -50.6690 S.3       23 UNK        -0.2404 
      8 C8         -1.4587  -15.7539  -51.8891 C.3       23 UNK        -0.0205 
      9 C9         -0.6815  -17.0158  -51.5300 C.ar      23 UNK        -0.0193 
     10 C10        -0.8310  -18.1759  -52.2969 C.ar      23 UNK        -0.1150 
     11 C11        -0.0939  -19.3268  -52.0024 C.ar      23 UNK        -0.0193 
     12 C12         0.7714  -19.3255  -50.9049 C.ar      23 UNK        -0.1150 
     13 C13         0.9359  -18.1744  -50.1300 C.ar      23 UNK        -0.0193 
     14 C14         0.2232  -17.0190  -50.4638 C.ar      23 UNK        -0.1150 
     15 C15         1.9167  -18.1774  -48.9615 C.3       23 UNK        -0.0205 
     16 S16         1.2460  -17.4393  -47.4324 S.3       23 UNK        -0.2404 
     17 C17        -0.3136  -18.3495  -47.1803 C.3       23 UNK        -0.0398 
     18 CA         -0.1950  -19.8907  -47.1461 C.3       11 UNK         0.1400 
     19 N           0.7077  -20.3820  -46.1026 N.am      11 UNK        -0.5000 
     20 C           1.0768  -21.6636  -45.9660 C.2       10 UNK         0.5000 
     21 O           0.7314  -22.5588  -46.7380 O.2       10 UNK        -0.5000 
     22 CA          1.9283  -22.0140  -44.7343 C.3       10 UNK         0.1400 
     23 CB          3.4122  -21.6992  -44.9770 C.3       10 UNK        -0.1800 
     24 N           1.4596  -21.3178  -43.5358 N.am      10 UNK        -0.5000 
     25 C           0.3278  -21.6223  -42.8848 C.2       9 UNK         0.5000 
     26 O          -0.4129  -22.5529  -43.2044 O.2       9 UNK        -0.5000 
     27 CA         -0.0621  -20.7121  -41.7028 C.3       9 UNK         0.1400 
     28 CB          0.6976  -21.1190  -40.4315 C.3       9 UNK        -0.1800 
     29 N           0.1693  -19.2916  -41.9688 N.am      9 UNK        -0.5000 
     30 C          -0.4234  -18.5960  -42.9490 C.2       8 UNK         0.5000 
     31 O          -1.2746  -19.0642  -43.6996 O.2       8 UNK        -0.5000 
     32 CA          0.0493  -17.1524  -43.1749 C.3       8 UNK         0.1400 
     33 CB         -0.7253  -16.1904  -42.2654 C.3       8 UNK        -0.1800 
     34 N           1.4884  -16.9762  -42.9801 N.am      8 UNK        -0.5000 
     35 C           2.4488  -17.6366  -43.6435 C.2       7 UNK         0.5000 
     36 O           2.2260  -18.5127  -44.4766 O.2       7 UNK        -0.5000 
     37 CA          3.9005  -17.2981  -43.2749 C.3       7 UNK         0.1400 
     38 CB          4.3434  -15.9762  -43.9181 C.3       7 UNK        -0.1800 
     39 N           4.0681  -17.2220  -41.8262 N.am      7 UNK        -0.5000 
     40 C           4.1369  -18.2908  -41.0213 C.2       6 UNK         0.5000 
     41 O           4.1475  -19.4545  -41.4242 O.2       6 UNK        -0.5000 
     42 CA          4.1713  -18.0087  -39.5079 C.3       6 UNK         0.1400 
     43 CB          5.6119  -17.7613  -39.0357 C.3       6 UNK        -0.1800 
     44 N           3.3337  -16.8708  -39.1219 N.am      6 UNK        -0.5000 
     45 C           1.9963  -16.8535  -39.2067 C.2       5 UNK         0.5000 
     46 O           1.3235  -17.7992  -39.6187 O.2       5 UNK        -0.5000 
     47 CA          1.2963  -15.5455  -38.7916 C.3       5 UNK         0.1400 
     48 CB          1.0752  -15.5145  -37.2718 C.3       5 UNK        -0.1800 
     49 N           1.9956  -14.3232  -39.2047 N.am      5 UNK        -0.5000 
     50 C           2.2883  -13.9951  -40.4699 C.2       4 UNK         0.5000 
     51 O           2.1185  -14.7450  -41.4312 O.2       4 UNK        -0.5000 
     52 CA          2.8927  -12.6048  -40.7128 C.3       4 UNK         0.1400 
     53 CB          4.3723  -12.7219  -41.1103 C.3       4 UNK        -0.1800 
     54 N           2.1606  -11.9168  -41.7759 N.am      4 UNK        -0.5000 
     55 C           0.9591  -11.3429  -41.6202 C.2       3 UNK         0.5000 
     56 O           0.3654  -11.2867  -40.5423 O.2       3 UNK        -0.5000 
     57 CA          0.3158  -10.7123  -42.8698 C.3       3 UNK         0.1400 
     58 CB          0.7372   -9.2404  -43.0030 C.3       3 UNK        -0.1800 
     59 N           0.6593  -11.4215  -44.1044 N.am      3 UNK        -0.5000 
     60 C           0.0339  -12.5237  -44.5369 C.2       2 UNK         0.5000 
     61 O          -0.9062  -13.0570  -43.9449 O.2       2 UNK        -0.5000 
     62 CA          0.5779  -13.1418  -45.8385 C.3       2 UNK         0.1400 
     63 CB          1.7059  -14.1350  -45.5272 C.3       2 UNK        -0.1800 
     64 N          -0.4541  -13.8269  -46.6178 N.am      2 UNK        -0.5000 
     65 C          -1.4388  -13.2139  -47.2906 C.2       1 UNK         0.5000 
     66 O          -1.5944  -11.9918  -47.3103 O.2       1 UNK        -0.5000 
     67 C          -1.5955  -20.5250  -47.0404 C.2       11 UNK         0.5000 
     68 O          -2.1402  -20.9404  -48.0586 O.2       11 UNK        -0.5000 
     69 N          -2.1405  -20.6241  -45.8201 N.am      12 UNK        -0.5000 
     70 CA         -3.4292  -21.2541  -45.5290 C.3       12 UNK         0.1400 
     71 CB         -3.8067  -21.0027  -44.0618 C.3       12 UNK        -0.1800 
     72 C          -3.4492  -22.7606  -45.8434 C.2       12 UNK         0.5000 
     73 O          -4.4701  -23.2639  -46.3122 O.2       12 UNK        -0.5000 
     74 N          -2.3198  -23.4443  -45.6077 N.am      13 UNK        -0.5000 
     75 CA         -2.1184  -24.8469  -45.9703 C.3       13 UNK         0.1400 
     76 CB         -0.8533  -25.3856  -45.2854 C.3       13 UNK        -0.1800 
     77 C          -2.0553  -25.0481  -47.4958 C.2       13 UNK         0.5000 
     78 O          -2.6610  -25.9904  -48.0067 O.2       13 UNK        -0.5000 
     79 N          -1.3587  -24.1439  -48.2006 N.am      14 UNK        -0.5000 
     80 CA         -1.2919  -24.1112  -49.6638 C.3       14 UNK         0.1400 
     81 CB         -0.2134  -23.1135  -50.1100 C.3       14 UNK        -0.1800 
     82 C          -2.6551  -23.7832  -50.3038 C.2       14 UNK         0.5000 
     83 O          -3.0467  -24.4311  -51.2746 O.2       14 UNK        -0.5000 
     84 N          -3.3894  -22.8398  -49.6988 N.am      15 UNK        -0.5000 
     85 CA         -4.7333  -22.3969  -50.0804 C.3       15 UNK         0.1400 
     86 CB         -5.0271  -21.0387  -49.4220 C.3       15 UNK        -0.1800 
     87 C          -5.8618  -23.4202  -49.8160 C.2       15 UNK         0.5000 
     88 O          -7.0372  -23.0666  -49.9254 O.2       15 UNK        -0.5000 
     89 N          -5.5079  -24.6802  -49.5258 N.am      16 UNK        -0.5000 
     90 CA         -6.3777  -25.8386  -49.7294 C.3       16 UNK         0.1400 
     91 CB         -5.7519  -27.0654  -49.0505 C.3       16 UNK        -0.1800 
     92 C          -6.6136  -26.1047  -51.2333 C.2       16 UNK         0.5000 
     93 O          -7.6829  -26.5913  -51.6037 O.2       16 UNK        -0.5000 
     94 N          -5.6267  -25.7477  -52.0693 N.am      17 UNK        -0.5000 
     95 CA         -5.7481  -25.6410  -53.5213 C.3       17 UNK         0.1400 
     96 CB         -4.3702  -25.9142  -54.1435 C.3       17 UNK        -0.1800 
     97 C          -6.2696  -24.2437  -53.9172 C.2       17 UNK         0.5000 
     98 O          -6.4427  -23.3751  -53.0598 O.2       17 UNK        -0.5000 
     99 N          -6.5213  -24.0461  -55.2164 N.am      18 UNK        -0.5000 
    100 CA        -7.0419  -22.8059  -55.7944 C.3       18 UNK         0.1400 
    101 CB        -7.5258  -23.0976  -57.2259 C.3       18 UNK        -0.1800 
    102 C         -6.0127  -21.6557  -55.7564 C.2       18 UNK         0.5000 
    103 O         -5.2852  -21.4498  -56.7286 O.2       18 UNK        -0.5000 
    104 N         -5.9561  -20.9426  -54.6252 N.am      19 UNK        -0.5000 
    105 CA        -5.1811  -19.7151  -54.4362 C.3       19 UNK         0.1400 
    106 CB        -5.1324  -19.3945  -52.9332 C.3       19 UNK        -0.1800 
    107 C         -5.8013  -18.5329  -55.2227 C.2       19 UNK         0.5000 
    108 O         -7.0176  -18.5257  -55.4219 O.2       19 UNK        -0.5000 
    109 N         -5.0370  -17.5087  -55.6324 N.am      20 UNK        -0.5000 
    110 CA        -3.5808  -17.3638  -55.5485 C.3       20 UNK         0.1400 
    111 CB        -3.2242  -15.8908  -55.8049 C.3       20 UNK        -0.1800 
    112 C         -2.8362  -18.2859  -56.5349 C.2       20 UNK         0.5000 
    113 O         -3.4607  -18.8925  -57.4048 O.2       20 UNK        -0.5000 
    114 N         -1.5168  -18.4115  -56.3410 N.am      21 UNK        -0.5000 
    115 CA        -0.5728  -19.3181  -57.0170 C.3       21 UNK         0.1400 
    116 CB        -0.6104  -19.1757  -58.5514 C.3       21 UNK        -0.1800 
    117 C         -0.6945  -20.7923  -56.5766 C.2       21 UNK         0.5000 
    118 O          0.3213  -21.4875  -56.5506 O.2       21 UNK        -0.5000 
    119 N         -1.8977  -21.2211  -56.1728 N.am      22 UNK        -0.5000 
    120 CA        -2.1933  -22.5112  -55.5225 C.3       22 UNK         0.1400 
    121 C         -2.0129  -23.7491  -56.4534 C.2       22 UNK         0.5000 
    122 N         -2.1527  -23.6016  -57.7652 N.am      22 UNK        -0.7600 
    123 O         -1.7590  -24.8580  -55.9924 O.2       22 UNK        -0.5000 
    124 C124       -1.4932  -22.6761  -54.1416 C.3       23 UNK        -0.0398 
    125 S125       -1.8189  -21.2928  -52.9882 S.3       23 UNK        -0.2404 
    126 C126       -0.1635  -20.5409  -52.9164 C.3       23 UNK        -0.0205 
    127 H127       -4.5132  -17.3203  -45.7523 H         1 UNK         0.0600 
    128 H128       -2.8551  -17.3900  -45.1575 H         1 UNK         0.0600 
    129 H129       -3.2229  -17.8274  -46.8347 H         1 UNK         0.0600 
    130 H130       -2.2359  -16.2133  -48.0999 H         1 UNK         0.3000 
    131 H131       -3.3591  -13.6245  -48.1361 H         1 UNK         0.0600 
    132 H132       -1.9721  -13.1740  -50.0444 H         1 UNK         0.0800 
    133 H133       -0.8081  -14.3821  -49.6118 H         1 UNK         0.0800 
    134 H134       -0.7691  -14.9162  -52.0023 H         1 UNK         0.0800 
    135 H135       -1.9393  -15.8745  -52.8608 H         1 UNK         0.0800 
    136 H136       -1.5023  -18.1826  -53.1416 H         1 UNK         0.1150 
    137 H137        1.3437  -20.2129  -50.6732 H         1 UNK         0.1150 
    138 H138        0.3817  -16.1256  -49.8824 H         1 UNK         0.1150 
    139 H139        2.2569  -19.1900  -48.7400 H         1 UNK         0.0800 
    140 H140        2.8054  -17.6173  -49.2544 H         1 UNK         0.0800 
    141 H141       -0.9992  -18.0457  -47.9727 H         1 UNK         0.0800 
    142 H142       -0.7442  -17.9896  -46.2469 H         1 UNK         0.0800 
    143 H143        0.2147  -20.2218  -48.1013 H         1 UNK         0.0600 
    144 H144        1.0879  -19.6917  -45.4596 H         1 UNK         0.3000 
    145 H145        1.8384  -23.0888  -44.5621 H         1 UNK         0.0600 
    146 H146        3.5781  -20.6418  -45.1824 H         1 UNK         0.0600 
    147 H147        4.0191  -21.9710  -44.1131 H         1 UNK         0.0600 
    148 H148        3.7920  -22.2603  -45.8316 H         1 UNK         0.0600 
    149 H149        1.9794  -20.4972  -43.2549 H         1 UNK         0.3000 
    150 H150       -1.1304  -20.8462  -41.5209 H         1 UNK         0.0600 
    151 H151        0.5402  -22.1735  -40.2014 H         1 UNK         0.0600 
    152 H152        0.3587  -20.5436  -39.5697 H         1 UNK         0.0600 
    153 H153        1.7717  -20.9602  -40.5368 H         1 UNK         0.0600 
    154 H154        0.8172  -18.8091  -41.3550 H         1 UNK         0.3000 
    155 H155       -0.1687  -16.8865  -44.2104 H         1 UNK         0.0600 
    156 H156       -0.3957  -15.1612  -42.4025 H         1 UNK         0.0600 
    157 H157       -1.7929  -16.2218  -42.4866 H         1 UNK         0.0600 
    158 H158       -0.6002  -16.4457  -41.2140 H         1 UNK         0.0600 
    159 H159        1.7634  -16.2431  -42.3285 H         1 UNK         0.3000 
    160 H160        4.5399  -18.0931  -43.6650 H         1 UNK         0.0600 
    161 H161        4.2101  -16.0056  -45.0004 H         1 UNK         0.0600 
    162 H162        5.3976  -15.7783  -43.7244 H         1 UNK         0.0600 
    163 H163        3.7702  -15.1309  -43.5387 H         1 UNK         0.0600 
    164 H164        4.0021  -16.3050  -41.4090 H         1 UNK         0.3000 
    165 H165        3.7919  -18.8966  -38.9974 H         1 UNK         0.0600 
    166 H166        5.6566  -17.6390  -37.9533 H         1 UNK         0.0600 
    167 H167        6.2566  -18.6027  -39.2934 H         1 UNK         0.0600 
    168 H168        6.0390  -16.8681  -39.4933 H         1 UNK         0.0600 
    169 H169        3.8058  -16.0482  -38.7766 H         1 UNK         0.3000 
    170 H170        0.3162  -15.5337  -39.2707 H         1 UNK         0.0600 
    171 H171        0.5385  -16.4032  -36.9367 H         1 UNK         0.0600 
    172 H172        2.0196  -15.4765  -36.7274 H         1 UNK         0.0600 
    173 H173        0.4818  -14.6489  -36.9767 H         1 UNK         0.0600 
    174 H174        2.1809  -13.6504  -38.4748 H         1 UNK         0.3000 
    175 H175        2.8275  -12.0148  -39.7961 H         1 UNK         0.0600 
    176 H176        4.5008  -13.2852  -42.0352 H         1 UNK         0.0600 
    177 H177        4.8199  -11.7382  -41.2535 H         1 UNK         0.0600 
    178 H178        4.9465  -13.2296  -40.3342 H         1 UNK         0.0600 
    179 H179        2.5596  -11.9609  -42.7007 H         1 UNK         0.3000 
    180 H180       -0.7677  -10.7388  -42.7338 H         1 UNK         0.0600 
    181 H181        1.8132   -9.1393  -43.1501 H         1 UNK         0.0600 
    182 H182        0.4742   -8.6767  -42.1069 H         1 UNK         0.0600 
    183 H183        0.2362   -8.7618  -43.8447 H         1 UNK         0.0600 
    184 H184        1.4177  -11.0376  -44.6496 H         1 UNK         0.3000 
    185 H185        0.9882  -12.3404  -46.4568 H         1 UNK         0.0600 
    186 H186        2.1390  -14.5438  -46.4403 H         1 UNK         0.0600 
    187 H187        2.5117  -13.6500  -44.9757 H         1 UNK         0.0600 
    188 H188        1.3483  -14.9681  -44.9233 H         1 UNK         0.0600 
    189 H189       -0.4202  -14.8349  -46.6270 H         1 UNK         0.3000 
    190 H190       -1.6618  -20.1999  -45.0271 H         1 UNK         0.3000 
    191 H191       -4.1818  -20.7734  -46.1561 H         1 UNK         0.0600 
    192 H192       -3.0599  -21.4104  -43.3795 H         1 UNK         0.0600 
    193 H193       -4.7641  -21.4648  -43.8182 H         1 UNK         0.0600 
    194 H194       -3.9001  -19.9359  -43.8575 H         1 UNK         0.0600 
    195 H195       -1.5369  -22.9632  -45.1833 H         1 UNK         0.3000 
    196 H196       -2.9709  -25.4172  -45.5953 H         1 UNK         0.0600 
    197 H197        0.0427  -24.8588  -45.6125 H         1 UNK         0.0600 
    198 H198       -0.7109  -26.4435  -45.5089 H         1 UNK         0.0600 
    199 H199       -0.9205  -25.2878  -44.2016 H         1 UNK         0.0600 
    200 H200       -0.8493  -23.4214  -47.7020 H         1 UNK         0.3000 
    201 H201       -0.9935  -25.1044  -50.0056 H         1 UNK         0.0600 
    202 H202        0.7469  -23.3306  -49.6421 H         1 UNK         0.0600 
    203 H203       -0.4822  -22.0862  -49.8630 H         1 UNK         0.0600 
    204 H204       -0.0685  -23.1656  -51.1889 H         1 UNK         0.0600 
    205 H205       -2.9578  -22.3188  -48.9383 H         1 UNK         0.3000 
    206 H206       -4.7203  -22.2419  -51.1606 H         1 UNK         0.0600 
    207 H207       -4.2610  -20.3047  -49.6732 H         1 UNK         0.0600 
    208 H208       -5.9810  -20.6325  -49.7599 H         1 UNK         0.0600 
    209 H209       -5.0708  -21.1251  -48.3368 H         1 UNK         0.0600 
    210 H210       -4.5242  -24.8772  -49.4048 H         1 UNK         0.3000 
    211 H211       -7.3441  -25.6387  -49.2621 H         1 UNK         0.0600 
    212 H212       -4.7812  -27.3125  -49.4825 H         1 UNK         0.0600 
    213 H213       -6.3934  -27.9408  -49.1584 H         1 UNK         0.0600 
    214 H214       -5.6085  -26.8948  -47.9832 H         1 UNK         0.0600 
    215 H215       -4.7965  -25.3146  -51.6767 H         1 UNK         0.3000 
    216 H216       -6.4538  -26.3888  -53.8883 H         1 UNK         0.0600 
    217 H217       -4.4164  -25.9173  -55.2329 H         1 UNK         0.0600 
    218 H218       -3.9839  -26.8859  -53.8356 H         1 UNK         0.0600 
    219 H219       -3.6420  -25.1590  -53.8485 H         1 UNK         0.0600 
    220 H220       -6.3352  -24.7939  -55.8685 H         1 UNK         0.3000 
    221 H221       -7.9119  -22.4937  -55.2126 H         1 UNK         0.0600 
    222 H222       -6.7197  -23.4734  -57.8575 H         1 UNK         0.0600 
    223 H223       -8.3264  -23.8375  -57.2286 H         1 UNK         0.0600 
    224 H224       -7.9176  -22.1947  -57.6962 H         1 UNK         0.0600 
    225 H225       -6.5394  -21.2338  -53.8520 H         1 UNK         0.3000 
    226 H226       -4.1673  -19.9149  -54.7780 H         1 UNK         0.0600 
    227 H227       -4.6579  -20.2014  -52.3764 H         1 UNK         0.0600 
    228 H228       -4.5571  -18.4896  -52.7360 H         1 UNK         0.0600 
    229 H229       -6.1306  -19.2439  -52.5203 H         1 UNK         0.0600 
    230 H230       -5.4987  -16.7728  -56.1450 H         1 UNK         0.3000 
    231 H231       -3.2660  -17.6188  -54.5366 H         1 UNK         0.0600 
    232 H232       -2.1528  -15.7157  -55.6998 H         1 UNK         0.0600 
    233 H233       -3.7260  -15.2345  -55.0932 H         1 UNK         0.0600 
    234 H234       -3.5103  -15.5767  -56.8096 H         1 UNK         0.0600 
    235 H235       -1.0998  -17.8668  -55.5996 H         1 UNK         0.3000 
    236 H236        0.4154  -18.9883  -56.6923 H         1 UNK         0.0600 
    237 H237       -1.5306  -19.5724  -58.9803 H         1 UNK         0.0600 
    238 H238        0.2161  -19.7213  -59.0081 H         1 UNK         0.0600 
    239 H239       -0.5182  -18.1327  -58.8544 H         1 UNK         0.0600 
    240 H240       -2.6912  -20.6131  -56.3299 H         1 UNK         0.3000 
    241 H241       -3.2613  -22.4928  -55.3132 H         1 UNK         0.0600 
    242 H242       -2.0387  -24.3995  -58.3701 H         1 UNK         0.3800 
    243 H243       -2.3771  -22.7006  -58.1569 H         1 UNK         0.3800 
    244 H244       -1.8409  -23.5855  -53.6504 H         1 UNK         0.0800 
    245 H245       -0.4186  -22.8075  -54.2742 H         1 UNK         0.0800 
    246 H246        0.1410  -20.2335  -53.9157 H         1 UNK         0.0800 
    247 H247        0.5560  -21.2971  -52.6002 H         1 UNK         0.0800 
@<TRIPOS>BOND
     1    1    2 1    
     2    1  127 1    
     3    1  128 1    
     4    1  129 1    
     5    2    3 2    
     6    2    4 am   BACKBONE|DICT|INTERRES
     7    4    5 1    
     8    4  130 1    
     9    5    6 1    
    10    5   65 1    
    11    5  131 1    
    12    6    7 1    
    13    6  132 1    
    14    6  133 1    
    15    7    8 1    
    16    8    9 1    
    17    8  134 1    
    18    8  135 1    
    19    9   10 ar   
    20    9   14 ar   
    21   10   11 ar   
    22   10  136 1    
    23   11   12 ar   
    24   11  126 1    
    25   12   13 ar   
    26   12  137 1    
    27   13   14 ar   
    28   13   15 1    
    29   14  138 1    
    30   15   16 1    
    31   15  139 1    
    32   15  140 1    
    33   16   17 1    
    34   17   18 1    
    35   17  141 1    
    36   17  142 1    
    37   18   19 1    
    38   18   67 1    
    39   18  143 1    
    40   19   20 am   BACKBONE|DICT|INTERRES
    41   19  144 1    
    42   20   21 2    
    43   20   22 1    
    44   22   23 1    
    45   22   24 1    
    46   22  145 1    
    47   23  146 1    
    48   23  147 1    
    49   23  148 1    
    50   24   25 am   BACKBONE|DICT|INTERRES
    51   24  149 1    
    52   25   26 2    
    53   25   27 1    
    54   27   28 1    
    55   27   29 1    
    56   27  150 1    
    57   28  151 1    
    58   28  152 1    
    59   28  153 1    
    60   29   30 am   BACKBONE|DICT|INTERRES
    61   29  154 1    
    62   30   31 2    
    63   30   32 1    
    64   32   33 1    
    65   32   34 1    
    66   32  155 1    
    67   33  156 1    
    68   33  157 1    
    69   33  158 1    
    70   34   35 am   BACKBONE|DICT|INTERRES
    71   34  159 1    
    72   35   36 2    
    73   35   37 1    
    74   37   38 1    
    75   37   39 1    
    76   37  160 1    
    77   38  161 1    
    78   38  162 1    
    79   38  163 1    
    80   39   40 am   BACKBONE|DICT|INTERRES
    81   39  164 1    
    82   40   41 2    
    83   40   42 1    
    84   42   43 1    
    85   42   44 1    
    86   42  165 1    
    87   43  166 1    
    88   43  167 1    
    89   43  168 1    
    90   44   45 am   BACKBONE|DICT|INTERRES
    91   44  169 1    
    92   45   46 2    
    93   45   47 1    
    94   47   48 1    
    95   47   49 1    
    96   47  170 1    
    97   48  171 1    
    98   48  172 1    
    99   48  173 1    
   100   49   50 am   BACKBONE|DICT|INTERRES
   101   49  174 1    
   102   50   51 2    
   103   50   52 1    
   104   52   53 1    
   105   52   54 1    
   106   52  175 1    
   107   53  176 1    
   108   53  177 1    
   109   53  178 1    
   110   54   55 am   BACKBONE|DICT|INTERRES
   111   54  179 1    
   112   55   56 2    
   113   55   57 1    
   114   57   58 1    
   115   57   59 1    
   116   57  180 1    
   117   58  181 1    
   118   58  182 1    
   119   58  183 1    
   120   59   60 am   BACKBONE|DICT|INTERRES
   121   59  184 1    
   122   60   61 2    
   123   60   62 1    
   124   62   63 1    
   125   62   64 1    
   126   62  185 1    
   127   63  186 1    
   128   63  187 1    
   129   63  188 1    
   130   64   65 am   BACKBONE|DICT|INTERRES
   131   64  189 1    
   132   65   66 2    
   133   67   68 2    
   134   67   69 am   BACKBONE|DICT|INTERRES
   135   69   70 1    
   136   69  190 1    
   137   70   71 1    
   138   70   72 1    
   139   70  191 1    
   140   71  192 1    
   141   71  193 1    
   142   71  194 1    
   143   72   73 2    
   144   72   74 am   BACKBONE|DICT|INTERRES
   145   74   75 1    
   146   74  195 1    
   147   75   76 1    
   148   75   77 1    
   149   75  196 1    
   150   76  197 1    
   151   76  198 1    
   152   76  199 1    
   153   77   78 2    
   154   77   79 am   BACKBONE|DICT|INTERRES
   155   79   80 1    
   156   79  200 1    
   157   80   81 1    
   158   80   82 1    
   159   80  201 1    
   160   81  202 1    
   161   81  203 1    
   162   81  204 1    
   163   82   83 2    
   164   82   84 am   BACKBONE|DICT|INTERRES
   165   84   85 1    
   166   84  205 1    
   167   85   86 1    
   168   85   87 1    
   169   85  206 1    
   170   86  207 1    
   171   86  208 1    
   172   86  209 1    
   173   87   88 2    
   174   87   89 am   BACKBONE|DICT|INTERRES
   175   89   90 1    
   176   89  210 1    
   177   90   91 1    
   178   90   92 1    
   179   90  211 1    
   180   91  212 1    
   181   91  213 1    
   182   91  214 1    
   183   92   93 2    
   184   92   94 am   BACKBONE|DICT|INTERRES
   185   94   95 1    
   186   94  215 1    
   187   95   96 1    
   188   95   97 1    
   189   95  216 1    
   190   96  217 1    
   191   96  218 1    
   192   96  219 1    
   193   97   98 2    
   194   97   99 am   BACKBONE|DICT|INTERRES
   195   99  100 1    
   196   99  220 1    
   197  100  101 1    
   198  100  102 1    
   199  100  221 1    
   200  101  222 1    
   201  101  223 1    
   202  101  224 1    
   203  102  103 2    
   204  102  104 am   BACKBONE|DICT|INTERRES
   205  104  105 1    
   206  104  225 1    
   207  105  106 1    
   208  105  107 1    
   209  105  226 1    
   210  106  227 1    
   211  106  228 1    
   212  106  229 1    
   213  107  108 2    
   214  107  109 am   BACKBONE|DICT|INTERRES
   215  109  110 1    
   216  109  230 1    
   217  110  111 1    
   218  110  112 1    
   219  110  231 1    
   220  111  232 1    
   221  111  233 1    
   222  111  234 1    
   223  112  113 2    
   224  112  114 am   BACKBONE|DICT|INTERRES
   225  114  115 1    
   226  114  235 1    
   227  115  116 1    
   228  115  117 1    
   229  115  236 1    
   230  116  237 1    
   231  116  238 1    
   232  116  239 1    
   233  117  118 2    
   234  117  119 am   BACKBONE|DICT|INTERRES
   235  119  120 1    
   236  119  240 1    
   237  120  121 1    
   238  120  124 1    
   239  120  241 1    
   240  121  122 am   BACKBONE|DICT|INTERRES
   241  121  123 2    
   242  122  242 1    
   243  122  243 1    
   244  124  125 1    
   245  124  244 1    
   246  124  245 1    
   247  125  126 1    
   248  126  246 1    
   249  126  247 1    
@<TRIPOS>SUBSTRUCTURE
     1 UNK         1 GROUP             0       ****    0 ROOT    
