@<TRIPOS>MOLECULE
3R540
247   249    1
SMALL
USER_CHARGES


@<TRIPOS>ATOM
      1 CA          3.9061  -13.9667  -42.6228 C.3       0 UNK        -0.1800 
      2 C           2.6692  -13.3285  -43.2386 C.2       0 UNK         0.5000 
      3 O           2.3503  -12.1795  -42.9315 O.2       0 UNK        -0.5000 
      4 N           1.9793  -14.0666  -44.1119 N.am      1 UNK        -0.5000 
      5 CA          0.8231  -13.6134  -44.8780 C.3       1 UNK         0.1400 
      6 C6         -0.1771  -14.7643  -45.1393 C.3       23 UNK        -0.0398 
      7 S7         -0.9486  -15.3819  -43.6069 S.3       23 UNK        -0.2404 
      8 C8         -2.7053  -14.9662  -43.8634 C.3       23 UNK        -0.0205 
      9 C9         -3.2897  -15.6061  -45.1175 C.ar      23 UNK        -0.0193 
     10 C10        -3.8831  -14.8063  -46.1008 C.ar      23 UNK        -0.1150 
     11 C11        -4.4176  -15.3834  -47.2560 C.ar      23 UNK        -0.0193 
     12 C12        -4.3464  -16.7672  -47.4291 C.ar      23 UNK        -0.1150 
     13 C13        -3.7457  -17.5753  -46.4620 C.ar      23 UNK        -0.0193 
     14 C14        -3.2345  -16.9925  -45.2993 C.ar      23 UNK        -0.1150 
     15 C15        -3.6322  -19.0709  -46.6979 C.3       23 UNK        -0.0205 
     16 S16        -2.0529  -19.4721  -47.5057 S.3       23 UNK        -0.2404 
     17 C17        -1.0175  -19.9426  -46.0803 C.3       23 UNK        -0.0398 
     18 CA         -0.7585  -21.4676  -46.0391 C.3       11 UNK         0.1400 
     19 N           0.4135  -21.7917  -45.2264 N.am      11 UNK        -0.5000 
     20 C           1.0061  -22.9917  -45.1812 C.2       10 UNK         0.5000 
     21 O           0.6435  -23.9623  -45.8439 O.2       10 UNK        -0.5000 
     22 CA          2.1647  -23.1458  -44.1835 C.3       10 UNK         0.1400 
     23 CB          3.4587  -22.5336  -44.7416 C.3       10 UNK        -0.1800 
     24 N           1.8455  -22.5439  -42.8887 N.am      10 UNK        -0.5000 
     25 C           0.9181  -23.0193  -42.0452 C.2       9 UNK         0.5000 
     26 O           0.2571  -24.0354  -42.2581 O.2       9 UNK        -0.5000 
     27 CA          0.6610  -22.2007  -40.7672 C.3       9 UNK         0.1400 
     28 CB          1.6788  -22.5657  -39.6765 C.3       9 UNK        -0.1800 
     29 N           0.6995  -20.7566  -41.0035 N.am      9 UNK        -0.5000 
     30 C          -0.1978  -20.0862  -41.7399 C.2       8 UNK         0.5000 
     31 O          -1.1621  -20.6124  -42.2934 O.2       8 UNK        -0.5000 
     32 CA          0.0630  -18.5826  -41.9382 C.3       8 UNK         0.1400 
     33 CB         -0.4154  -17.7829  -40.7170 C.3       8 UNK        -0.1800 
     34 N           1.4692  -18.2681  -42.2104 N.am      8 UNK        -0.5000 
     35 C           2.1573  -18.7432  -43.2560 C.2       7 UNK         0.5000 
     36 O           1.6967  -19.5514  -44.0656 O.2       7 UNK        -0.5000 
     37 CA          3.6163  -18.2754  -43.4021 C.3       7 UNK         0.1400 
     38 CB          4.5574  -19.2064  -42.6228 C.3       7 UNK        -0.1800 
     39 N           4.0134  -18.2637  -44.8104 N.am      7 UNK        -0.5000 
     40 C           3.5475  -17.3844  -45.7042 C.2       6 UNK         0.5000 
     41 O           2.8816  -16.3926  -45.3989 O.2       6 UNK        -0.5000 
     42 CA          3.8473  -17.6818  -47.1788 C.3       6 UNK         0.1400 
     43 CB          2.9613  -18.8329  -47.6923 C.3       6 UNK        -0.1800 
     44 N           3.5887  -16.4845  -47.9708 N.am      6 UNK        -0.5000 
     45 C           4.1693  -16.1760  -49.1360 C.2       5 UNK         0.5000 
     46 O           5.0350  -16.8699  -49.6732 O.2       5 UNK        -0.5000 
     47 CA          3.6780  -14.8762  -49.8070 C.3       5 UNK         0.1400 
     48 CB          4.1895  -14.6897  -51.2506 C.3       5 UNK        -0.1800 
     49 N           2.2200  -14.7533  -49.7348 N.am      5 UNK        -0.5000 
     50 C           1.2957  -15.5474  -50.2970 C.2       4 UNK         0.5000 
     51 O           1.5478  -16.4579  -51.0859 O.2       4 UNK        -0.5000 
     52 CA         -0.1652  -15.2894  -49.8872 C.3       4 UNK         0.1400 
     53 CB         -0.5619  -16.2212  -48.7323 C.3       4 UNK        -0.1800 
     54 N          -0.3862  -13.9008  -49.4817 N.am      4 UNK        -0.5000 
     55 C          -0.6889  -12.9054  -50.3265 C.2       3 UNK         0.5000 
     56 O          -0.8432  -13.0579  -51.5388 O.2       3 UNK        -0.5000 
     57 CA         -0.8405  -11.4979  -49.7154 C.3       3 UNK         0.1400 
     58 CB         -2.2887  -11.2588  -49.2613 C.3       3 UNK        -0.1800 
     59 N           0.0581  -11.2670  -48.5830 N.am      3 UNK        -0.5000 
     60 C           1.3862  -11.1168  -48.6847 C.2       2 UNK         0.5000 
     61 O           1.9931  -11.0994  -49.7555 O.2       2 UNK        -0.5000 
     62 CA          2.1760  -10.9952  -47.3656 C.3       2 UNK         0.1400 
     63 CB          2.3564   -9.5192  -46.9808 C.3       2 UNK        -0.1800 
     64 N           1.5826  -11.7169  -46.2337 N.am      2 UNK        -0.5000 
     65 C           1.3605  -13.0372  -46.1966 C.2       1 UNK         0.5000 
     66 O           1.5887  -13.7923  -47.1433 O.2       1 UNK        -0.5000 
     67 C          -2.0094  -22.2625  -45.6019 C.2       11 UNK         0.5000 
     68 O          -2.7746  -22.6982  -46.4594 O.2       11 UNK        -0.5000 
     69 N          -2.1845  -22.4689  -44.2882 N.am      12 UNK        -0.5000 
     70 CA         -3.2506  -23.2989  -43.7251 C.3       12 UNK         0.1400 
     71 CB         -3.3302  -23.0795  -42.2070 C.3       12 UNK        -0.1800 
     72 C          -3.0796  -24.7950  -44.0504 C.2       12 UNK         0.5000 
     73 O          -4.0730  -25.4712  -44.3185 O.2       12 UNK        -0.5000 
     74 N          -1.8323  -25.2857  -44.0273 N.am      13 UNK        -0.5000 
     75 CA         -1.4827  -26.6632  -44.3735 C.3       13 UNK         0.1400 
     76 CB         -0.0525  -26.9680  -43.9013 C.3       13 UNK        -0.1800 
     77 C          -1.6389  -26.9437  -45.8789 C.2       13 UNK         0.5000 
     78 O          -2.2785  -27.9268  -46.2539 O.2       13 UNK        -0.5000 
     79 N          -1.0755  -26.0627  -46.7136 N.am      14 UNK        -0.5000 
     80 CA         -1.0942  -26.1442  -48.1737 C.3       14 UNK         0.1400 
     81 CB          0.2986  -25.7600  -48.7060 C.3       14 UNK        -0.1800 
     82 C          -2.2146  -25.2670  -48.7661 C.2       14 UNK         0.5000 
     83 O          -1.9793  -24.5345  -49.7263 O.2       14 UNK        -0.5000 
     84 N          -3.4189  -25.3548  -48.1854 N.am      15 UNK        -0.5000 
     85 CA         -4.5854  -24.5418  -48.5461 C.3       15 UNK         0.1400 
     86 CB         -5.6132  -24.6177  -47.4062 C.3       15 UNK        -0.1800 
     87 C          -5.2413  -24.9240  -49.8882 C.2       15 UNK         0.5000 
     88 O          -6.0749  -24.1640  -50.3852 O.2       15 UNK        -0.5000 
     89 N          -4.8746  -26.0877  -50.4455 N.am      16 UNK        -0.5000 
     90 CA         -5.3432  -26.6088  -51.7313 C.3       16 UNK         0.1400 
     91 CB         -4.6609  -27.9579  -52.0026 C.3       16 UNK        -0.1800 
     92 C          -5.0838  -25.6290  -52.8915 C.2       16 UNK         0.5000 
     93 O          -4.0100  -25.0257  -52.9511 O.2       16 UNK        -0.5000 
     94 N          -6.0866  -25.4697  -53.7677 N.am      17 UNK        -0.5000 
     95 CA         -6.1254  -24.5252  -54.8941 C.3       17 UNK         0.1400 
     96 CB         -5.1256  -24.9477  -55.9914 C.3       17 UNK        -0.1800 
     97 C          -5.9423  -23.0548  -54.4531 C.2       17 UNK         0.5000 
     98 O          -5.2942  -22.2752  -55.1536 O.2       17 UNK        -0.5000 
     99 N          -6.4747  -22.7198  -53.2659 N.am      18 UNK        -0.5000 
    100 CA        -6.3538  -21.4312  -52.5693 C.3       18 UNK         0.1400 
    101 CB        -7.1043  -20.3298  -53.3475 C.3       18 UNK        -0.1800 
    102 C         -4.8887  -21.0487  -52.2576 C.2       18 UNK         0.5000 
    103 O         -4.5488  -19.8637  -52.2419 O.2       18 UNK        -0.5000 
    104 N         -4.0327  -22.0679  -52.0801 N.am      19 UNK        -0.5000 
    105 CA        -2.5733  -21.9947  -51.9428 C.3       19 UNK         0.1400 
    106 CB        -2.1867  -21.2936  -50.6243 C.3       19 UNK        -0.1800 
    107 C         -1.8728  -21.3713  -53.1721 C.2       19 UNK         0.5000 
    108 O         -0.7501  -20.8797  -53.0495 O.2       19 UNK        -0.5000 
    109 N         -2.5590  -21.3822  -54.3280 N.am      20 UNK        -0.5000 
    110 CA        -2.2227  -20.6917  -55.5763 C.3       20 UNK         0.1400 
    111 CB        -0.9544  -21.2942  -56.2157 C.3       20 UNK        -0.1800 
    112 C         -2.1534  -19.1549  -55.4187 C.2       20 UNK         0.5000 
    113 O         -1.4217  -18.4968  -56.1613 O.2       20 UNK        -0.5000 
    114 N         -2.9099  -18.6070  -54.4581 N.am      21 UNK        -0.5000 
    115 CA        -2.9293  -17.1927  -54.1056 C.3       21 UNK         0.1400 
    116 CB        -1.7969  -16.8954  -53.0987 C.3       21 UNK        -0.1800 
    117 C         -4.3365  -16.8001  -53.6173 C.2       21 UNK         0.5000 
    118 O         -5.3258  -17.1731  -54.2506 O.2       21 UNK        -0.5000 
    119 N         -4.4030  -16.0292  -52.5270 N.am      22 UNK        -0.5000 
    120 CA        -5.6253  -15.4786  -51.9219 C.3       22 UNK         0.1400 
    121 C         -6.4890  -16.4817  -51.0991 C.2       22 UNK         0.5000 
    122 N         -6.0871  -17.7313  -50.9100 N.am      22 UNK        -0.7600 
    123 O         -7.5602  -16.1161  -50.6226 O.2       22 UNK        -0.5000 
    124 C124       -5.3077  -14.1886  -51.1164 C.3       23 UNK        -0.0398 
    125 S125       -4.0455  -14.4344  -49.8170 S.3       23 UNK        -0.2404 
    126 C126       -5.0790  -14.5282  -48.3233 C.3       23 UNK        -0.0205 
    127 H127        4.7479  -13.2756  -42.6663 H         1 UNK         0.0600 
    128 H128        3.7201  -14.2159  -41.5782 H         1 UNK         0.0600 
    129 H129        4.1920  -14.8776  -43.1490 H         1 UNK         0.0600 
    130 H130        2.3340  -14.9777  -44.3982 H         1 UNK         0.3000 
    131 H131        0.2954  -12.8234  -44.3392 H         1 UNK         0.0600 
    132 H132       -0.9510  -14.4401  -45.8358 H         1 UNK         0.0800 
    133 H133        0.3208  -15.6106  -45.6141 H         1 UNK         0.0800 
    134 H134       -3.2764  -15.3035  -42.9977 H         1 UNK         0.0800 
    135 H135       -2.8070  -13.8804  -43.8958 H         1 UNK         0.0800 
    136 H136       -3.9308  -13.7346  -45.9679 H         1 UNK         0.1150 
    137 H137       -4.7422  -17.2121  -48.3317 H         1 UNK         0.1150 
    138 H138       -2.7696  -17.6126  -44.5462 H         1 UNK         0.1150 
    139 H139       -3.7424  -19.6198  -45.7617 H         1 UNK         0.0800 
    140 H140       -4.4458  -19.4083  -47.3419 H         1 UNK         0.0800 
    141 H141       -1.4453  -19.5848  -45.1426 H         1 UNK         0.0800 
    142 H142       -0.0727  -19.4094  -46.1945 H         1 UNK         0.0800 
    143 H143       -0.5183  -21.7918  -47.0546 H         1 UNK         0.0600 
    144 H144        0.8062  -21.0323  -44.6735 H         1 UNK         0.3000 
    145 H145        2.3344  -24.2136  -44.0294 H         1 UNK         0.0600 
    146 H146        3.3560  -21.4652  -44.9311 H         1 UNK         0.0600 
    147 H147        4.2914  -22.6751  -44.0526 H         1 UNK         0.0600 
    148 H148        3.7345  -23.0060  -45.6852 H         1 UNK         0.0600 
    149 H149        2.3036  -21.6741  -42.6643 H         1 UNK         0.3000 
    150 H150       -0.3359  -22.4581  -40.4029 H         1 UNK         0.0600 
    151 H151        1.6595  -23.6362  -39.4680 H         1 UNK         0.0600 
    152 H152        1.4571  -22.0500  -38.7420 H         1 UNK         0.0600 
    153 H153        2.6969  -22.3067  -39.9703 H         1 UNK         0.0600 
    154 H154        1.4659  -20.2447  -40.5923 H         1 UNK         0.3000 
    155 H155       -0.5195  -18.2644  -42.8052 H         1 UNK         0.0600 
    156 H156       -1.4706  -17.9734  -40.5163 H         1 UNK         0.0600 
    157 H157       -0.3065  -16.7106  -40.8791 H         1 UNK         0.0600 
    158 H158        0.1434  -18.0442  -39.8177 H         1 UNK         0.0600 
    159 H159        1.9146  -17.6179  -41.5796 H         1 UNK         0.3000 
    160 H160        3.7068  -17.2650  -42.9994 H         1 UNK         0.0600 
    161 H161        5.5928  -18.8744  -42.7022 H         1 UNK         0.0600 
    162 H162        4.5068  -20.2327  -42.9875 H         1 UNK         0.0600 
    163 H163        4.3041  -19.2223  -41.5620 H         1 UNK         0.0600 
    164 H164        4.5284  -19.0675  -45.1370 H         1 UNK         0.3000 
    165 H165        4.9003  -17.9583  -47.2624 H         1 UNK         0.0600 
    166 H166        3.1878  -19.0731  -48.7311 H         1 UNK         0.0600 
    167 H167        3.1115  -19.7422  -47.1090 H         1 UNK         0.0600 
    168 H168        1.9023  -18.5774  -47.6334 H         1 UNK         0.0600 
    169 H169        2.9279  -15.8387  -47.5523 H         1 UNK         0.3000 
    170 H170        4.0787  -14.0558  -49.2100 H         1 UNK         0.0600 
    171 H171        5.2787  -14.6405  -51.2731 H         1 UNK         0.0600 
    172 H172        3.8880  -15.5110  -51.9009 H         1 UNK         0.0600 
    173 H173        3.8137  -13.7626  -51.6836 H         1 UNK         0.0600 
    174 H174        1.8878  -14.1019  -49.0313 H         1 UNK         0.3000 
    175 H175       -0.8052  -15.5214  -50.7387 H         1 UNK         0.0600 
    176 H176       -1.5862  -16.0403  -48.4061 H         1 UNK         0.0600 
    177 H177       -0.4994  -17.2653  -49.0408 H         1 UNK         0.0600 
    178 H178        0.0942  -16.0986  -47.8715 H         1 UNK         0.0600 
    179 H179       -0.2270  -13.6841  -48.5086 H         1 UNK         0.3000 
    180 H180       -0.6044  -10.7706  -50.4952 H         1 UNK         0.0600 
    181 H181       -2.4261  -10.2406  -48.8973 H         1 UNK         0.0600 
    182 H182       -2.9853  -11.4043  -50.0881 H         1 UNK         0.0600 
    183 H183       -2.5800  -11.9441  -48.4641 H         1 UNK         0.0600 
    184 H184       -0.3582  -11.2503  -47.6640 H         1 UNK         0.3000 
    185 H185        3.1647  -11.4238  -47.5421 H         1 UNK         0.0600 
    186 H186        2.9990   -9.4148  -46.1064 H         1 UNK         0.0600 
    187 H187        2.8210   -8.9571  -47.7922 H         1 UNK         0.0600 
    188 H188        1.4015   -9.0426  -46.7558 H         1 UNK         0.0600 
    189 H189        1.4060  -11.1743  -45.3995 H         1 UNK         0.3000 
    190 H190       -1.5628  -22.0149  -43.6264 H         1 UNK         0.3000 
    191 H191       -4.1967  -22.9725  -44.1620 H         1 UNK         0.0600 
    192 H192       -2.3982  -23.3515  -41.7111 H         1 UNK         0.0600 
    193 H193       -4.1255  -23.6816  -41.7660 H         1 UNK         0.0600 
    194 H194       -3.5434  -22.0369  -41.9706 H         1 UNK         0.0600 
    195 H195       -1.0719  -24.6806  -43.7382 H         1 UNK         0.3000 
    196 H196       -2.1607  -27.3311  -43.8379 H         1 UNK         0.0600 
    197 H197        0.6786  -26.3073  -44.3680 H         1 UNK         0.0600 
    198 H198        0.2289  -27.9936  -44.1434 H         1 UNK         0.0600 
    199 H199        0.0371  -26.8525  -42.8210 H         1 UNK         0.0600 
    200 H200       -0.5727  -25.2677  -46.3233 H         1 UNK         0.3000 
    201 H201       -1.2929  -27.1708  -48.4875 H         1 UNK         0.0600 
    202 H202        0.5403  -24.7198  -48.4840 H         1 UNK         0.0600 
    203 H203        0.3543  -25.8872  -49.7878 H         1 UNK         0.0600 
    204 H204        1.0755  -26.3851  -48.2657 H         1 UNK         0.0600 
    205 H205       -3.5248  -25.9728  -47.3932 H         1 UNK         0.3000 
    206 H206       -4.2602  -23.5035  -48.6392 H         1 UNK         0.0600 
    207 H207       -5.1987  -24.2202  -46.4801 H         1 UNK         0.0600 
    208 H208       -6.5023  -24.0293  -47.6364 H         1 UNK         0.0600 
    209 H209       -5.9344  -25.6431  -47.2200 H         1 UNK         0.0600 
    210 H210       -4.1684  -26.6288  -49.9710 H         1 UNK         0.3000 
    211 H211       -6.4187  -26.7748  -51.6431 H         1 UNK         0.0600 
    212 H212       -3.5768  -27.8535  -52.0655 H         1 UNK         0.0600 
    213 H213       -5.0044  -28.3872  -52.9447 H         1 UNK         0.0600 
    214 H214       -4.8844  -28.6798  -51.2169 H         1 UNK         0.0600 
    215 H215       -6.9309  -26.0085  -53.6303 H         1 UNK         0.3000 
    216 H216       -7.1281  -24.5903  -55.3187 H         1 UNK         0.0600 
    217 H217       -5.2809  -25.9849  -56.2882 H         1 UNK         0.0600 
    218 H218       -5.2437  -24.3347  -56.8856 H         1 UNK         0.0600 
    219 H219       -4.0917  -24.8448  -55.6601 H         1 UNK         0.0600 
    220 H220       -6.9409  -23.4465  -52.7395 H         1 UNK         0.3000 
    221 H221       -6.8477  -21.5549  -51.6046 H         1 UNK         0.0600 
    222 H222       -6.6023  -20.0796  -54.2828 H         1 UNK         0.0600 
    223 H223       -8.1228  -20.6368  -53.5843 H         1 UNK         0.0600 
    224 H224       -7.1736  -19.4120  -52.7651 H         1 UNK         0.0600 
    225 H225       -4.3995  -23.0098  -52.1530 H         1 UNK         0.3000 
    226 H226       -2.2236  -23.0259  -51.8904 H         1 UNK         0.0600 
    227 H227       -2.7024  -21.7397  -49.7737 H         1 UNK         0.0600 
    228 H228       -1.1172  -21.3834  -50.4316 H         1 UNK         0.0600 
    229 H229       -2.4267  -20.2301  -50.6428 H         1 UNK         0.0600 
    230 H230       -3.4790  -21.8105  -54.3269 H         1 UNK         0.3000 
    231 H231       -3.0538  -20.8837  -56.2560 H         1 UNK         0.0600 
    232 H232       -1.0373  -22.3769  -56.3104 H         1 UNK         0.0600 
    233 H233       -0.0610  -21.0750  -55.6305 H         1 UNK         0.0600 
    234 H234       -0.7938  -20.8940  -57.2173 H         1 UNK         0.0600 
    235 H235       -3.5108  -19.1989  -53.8926 H         1 UNK         0.3000 
    236 H236       -2.7511  -16.5985  -55.0040 H         1 UNK         0.0600 
    237 H237       -1.7193  -15.8267  -52.8963 H         1 UNK         0.0600 
    238 H238       -1.9514  -17.4151  -52.1517 H         1 UNK         0.0600 
    239 H239       -0.8290  -17.2104  -53.4894 H         1 UNK         0.0600 
    240 H240       -3.5472  -15.7907  -52.0475 H         1 UNK         0.3000 
    241 H241       -6.2719  -15.1751  -52.7472 H         1 UNK         0.0600 
    242 H242       -6.6705  -18.3478  -50.3703 H         1 UNK         0.3800 
    243 H243       -5.2614  -18.1009  -51.3646 H         1 UNK         0.3800 
    244 H244       -4.9253  -13.4279  -51.7982 H         1 UNK         0.0800 
    245 H245       -6.2128  -13.7571  -50.6856 H         1 UNK         0.0800 
    246 H246       -5.2707  -13.5190  -47.9560 H         1 UNK         0.0800 
    247 H247       -6.0513  -14.9609  -48.5608 H         1 UNK         0.0800 
@<TRIPOS>BOND
     1    1    2 1    
     2    1  127 1    
     3    1  128 1    
     4    1  129 1    
     5    2    3 2    
     6    2    4 am   BACKBONE|DICT|INTERRES
     7    4    5 1    
     8    4  130 1    
     9    5    6 1    
    10    5   65 1    
    11    5  131 1    
    12    6    7 1    
    13    6  132 1    
    14    6  133 1    
    15    7    8 1    
    16    8    9 1    
    17    8  134 1    
    18    8  135 1    
    19    9   10 ar   
    20    9   14 ar   
    21   10   11 ar   
    22   10  136 1    
    23   11   12 ar   
    24   11  126 1    
    25   12   13 ar   
    26   12  137 1    
    27   13   14 ar   
    28   13   15 1    
    29   14  138 1    
    30   15   16 1    
    31   15  139 1    
    32   15  140 1    
    33   16   17 1    
    34   17   18 1    
    35   17  141 1    
    36   17  142 1    
    37   18   19 1    
    38   18   67 1    
    39   18  143 1    
    40   19   20 am   BACKBONE|DICT|INTERRES
    41   19  144 1    
    42   20   21 2    
    43   20   22 1    
    44   22   23 1    
    45   22   24 1    
    46   22  145 1    
    47   23  146 1    
    48   23  147 1    
    49   23  148 1    
    50   24   25 am   BACKBONE|DICT|INTERRES
    51   24  149 1    
    52   25   26 2    
    53   25   27 1    
    54   27   28 1    
    55   27   29 1    
    56   27  150 1    
    57   28  151 1    
    58   28  152 1    
    59   28  153 1    
    60   29   30 am   BACKBONE|DICT|INTERRES
    61   29  154 1    
    62   30   31 2    
    63   30   32 1    
    64   32   33 1    
    65   32   34 1    
    66   32  155 1    
    67   33  156 1    
    68   33  157 1    
    69   33  158 1    
    70   34   35 am   BACKBONE|DICT|INTERRES
    71   34  159 1    
    72   35   36 2    
    73   35   37 1    
    74   37   38 1    
    75   37   39 1    
    76   37  160 1    
    77   38  161 1    
    78   38  162 1    
    79   38  163 1    
    80   39   40 am   BACKBONE|DICT|INTERRES
    81   39  164 1    
    82   40   41 2    
    83   40   42 1    
    84   42   43 1    
    85   42   44 1    
    86   42  165 1    
    87   43  166 1    
    88   43  167 1    
    89   43  168 1    
    90   44   45 am   BACKBONE|DICT|INTERRES
    91   44  169 1    
    92   45   46 2    
    93   45   47 1    
    94   47   48 1    
    95   47   49 1    
    96   47  170 1    
    97   48  171 1    
    98   48  172 1    
    99   48  173 1    
   100   49   50 am   BACKBONE|DICT|INTERRES
   101   49  174 1    
   102   50   51 2    
   103   50   52 1    
   104   52   53 1    
   105   52   54 1    
   106   52  175 1    
   107   53  176 1    
   108   53  177 1    
   109   53  178 1    
   110   54   55 am   BACKBONE|DICT|INTERRES
   111   54  179 1    
   112   55   56 2    
   113   55   57 1    
   114   57   58 1    
   115   57   59 1    
   116   57  180 1    
   117   58  181 1    
   118   58  182 1    
   119   58  183 1    
   120   59   60 am   BACKBONE|DICT|INTERRES
   121   59  184 1    
   122   60   61 2    
   123   60   62 1    
   124   62   63 1    
   125   62   64 1    
   126   62  185 1    
   127   63  186 1    
   128   63  187 1    
   129   63  188 1    
   130   64   65 am   BACKBONE|DICT|INTERRES
   131   64  189 1    
   132   65   66 2    
   133   67   68 2    
   134   67   69 am   BACKBONE|DICT|INTERRES
   135   69   70 1    
   136   69  190 1    
   137   70   71 1    
   138   70   72 1    
   139   70  191 1    
   140   71  192 1    
   141   71  193 1    
   142   71  194 1    
   143   72   73 2    
   144   72   74 am   BACKBONE|DICT|INTERRES
   145   74   75 1    
   146   74  195 1    
   147   75   76 1    
   148   75   77 1    
   149   75  196 1    
   150   76  197 1    
   151   76  198 1    
   152   76  199 1    
   153   77   78 2    
   154   77   79 am   BACKBONE|DICT|INTERRES
   155   79   80 1    
   156   79  200 1    
   157   80   81 1    
   158   80   82 1    
   159   80  201 1    
   160   81  202 1    
   161   81  203 1    
   162   81  204 1    
   163   82   83 2    
   164   82   84 am   BACKBONE|DICT|INTERRES
   165   84   85 1    
   166   84  205 1    
   167   85   86 1    
   168   85   87 1    
   169   85  206 1    
   170   86  207 1    
   171   86  208 1    
   172   86  209 1    
   173   87   88 2    
   174   87   89 am   BACKBONE|DICT|INTERRES
   175   89   90 1    
   176   89  210 1    
   177   90   91 1    
   178   90   92 1    
   179   90  211 1    
   180   91  212 1    
   181   91  213 1    
   182   91  214 1    
   183   92   93 2    
   184   92   94 am   BACKBONE|DICT|INTERRES
   185   94   95 1    
   186   94  215 1    
   187   95   96 1    
   188   95   97 1    
   189   95  216 1    
   190   96  217 1    
   191   96  218 1    
   192   96  219 1    
   193   97   98 2    
   194   97   99 am   BACKBONE|DICT|INTERRES
   195   99  100 1    
   196   99  220 1    
   197  100  101 1    
   198  100  102 1    
   199  100  221 1    
   200  101  222 1    
   201  101  223 1    
   202  101  224 1    
   203  102  103 2    
   204  102  104 am   BACKBONE|DICT|INTERRES
   205  104  105 1    
   206  104  225 1    
   207  105  106 1    
   208  105  107 1    
   209  105  226 1    
   210  106  227 1    
   211  106  228 1    
   212  106  229 1    
   213  107  108 2    
   214  107  109 am   BACKBONE|DICT|INTERRES
   215  109  110 1    
   216  109  230 1    
   217  110  111 1    
   218  110  112 1    
   219  110  231 1    
   220  111  232 1    
   221  111  233 1    
   222  111  234 1    
   223  112  113 2    
   224  112  114 am   BACKBONE|DICT|INTERRES
   225  114  115 1    
   226  114  235 1    
   227  115  116 1    
   228  115  117 1    
   229  115  236 1    
   230  116  237 1    
   231  116  238 1    
   232  116  239 1    
   233  117  118 2    
   234  117  119 am   BACKBONE|DICT|INTERRES
   235  119  120 1    
   236  119  240 1    
   237  120  121 1    
   238  120  124 1    
   239  120  241 1    
   240  121  122 am   BACKBONE|DICT|INTERRES
   241  121  123 2    
   242  122  242 1    
   243  122  243 1    
   244  124  125 1    
   245  124  244 1    
   246  124  245 1    
   247  125  126 1    
   248  126  246 1    
   249  126  247 1    
@<TRIPOS>SUBSTRUCTURE
     1 UNK         1 GROUP             0       ****    0 ROOT    
