@<TRIPOS>MOLECULE
3R540
247   249    1
SMALL
USER_CHARGES


@<TRIPOS>ATOM
      1 CA         -0.5022  -11.8303  -50.4396 C.3       0 UNK        -0.1800 
      2 C          -0.7141  -12.6883  -49.2020 C.2       0 UNK         0.5000 
      3 O           0.1493  -12.7213  -48.3261 O.2       0 UNK        -0.5000 
      4 N          -1.8647  -13.3695  -49.1159 N.am      1 UNK        -0.5000 
      5 CA         -2.2137  -14.3037  -48.0356 C.3       1 UNK         0.1400 
      6 C6         -3.4896  -15.1210  -48.3768 C.3       23 UNK        -0.0398 
      7 S7         -3.4132  -16.8575  -47.8067 S.3       23 UNK        -0.2404 
      8 C8         -3.3851  -17.7865  -49.3801 C.3       23 UNK        -0.0205 
      9 C9         -1.9756  -18.0711  -49.8867 C.ar      23 UNK        -0.0193 
     10 C10        -1.1062  -17.0241  -50.2023 C.ar      23 UNK        -0.1150 
     11 C11         0.1842  -17.2794  -50.6703 C.ar      23 UNK        -0.0193 
     12 C12         0.5915  -18.6021  -50.8680 C.ar      23 UNK        -0.1150 
     13 C13        -0.2769  -19.6623  -50.5902 C.ar      23 UNK        -0.0193 
     14 C14        -1.5514  -19.3889  -50.0833 C.ar      23 UNK        -0.1150 
     15 C15         0.1412  -21.1030  -50.8659 C.3       23 UNK        -0.0205 
     16 S16         1.6394  -21.6268  -49.9653 S.3       23 UNK        -0.2404 
     17 C17         1.1742  -21.3316  -48.2297 C.3       23 UNK        -0.0398 
     18 CA          0.6441  -22.5852  -47.4954 C.3       11 UNK         0.1400 
     19 N           0.8142  -22.4601  -46.0453 N.am      11 UNK        -0.5000 
     20 C           0.5188  -23.4049  -45.1417 C.2       10 UNK         0.5000 
     21 O           0.1386  -24.5387  -45.4316 O.2       10 UNK        -0.5000 
     22 CA          0.6072  -22.9876  -43.6636 C.3       10 UNK         0.1400 
     23 CB          2.0440  -23.1166  -43.1366 C.3       10 UNK        -0.1800 
     24 N           0.1237  -21.6208  -43.4595 N.am      10 UNK        -0.5000 
     25 C          -1.1644  -21.2588  -43.5529 C.2       9 UNK         0.5000 
     26 O          -2.0819  -22.0527  -43.7628 O.2       9 UNK        -0.5000 
     27 CA         -1.4700  -19.7523  -43.4441 C.3       9 UNK         0.1400 
     28 CB         -1.5427  -19.3198  -41.9729 C.3       9 UNK        -0.1800 
     29 N          -0.4928  -18.9275  -44.1618 N.am      9 UNK        -0.5000 
     30 C          -0.3421  -18.9586  -45.4948 C.2       8 UNK         0.5000 
     31 O          -1.0577  -19.6285  -46.2342 O.2       8 UNK        -0.5000 
     32 CA          0.8266  -18.1791  -46.1206 C.3       8 UNK         0.1400 
     33 CB          0.3630  -16.8302  -46.6743 C.3       8 UNK        -0.1800 
     34 N           1.9704  -17.9979  -45.2319 N.am      8 UNK        -0.5000 
     35 C           2.7499  -18.9940  -44.7898 C.2       7 UNK         0.5000 
     36 O           2.5200  -20.1833  -45.0155 O.2       7 UNK        -0.5000 
     37 CA          3.9800  -18.5993  -43.9575 C.3       7 UNK         0.1400 
     38 CB          5.1406  -18.2011  -44.8820 C.3       7 UNK        -0.1800 
     39 N           3.6717  -17.4795  -43.0694 N.am      7 UNK        -0.5000 
     40 C           3.5405  -17.5688  -41.7397 C.2       6 UNK         0.5000 
     41 O           3.7551  -18.5967  -41.0960 O.2       6 UNK        -0.5000 
     42 CA          3.0725  -16.2998  -40.9954 C.3       6 UNK         0.1400 
     43 CB          4.2818  -15.4939  -40.4974 C.3       6 UNK        -0.1800 
     44 N           2.2094  -15.4205  -41.7898 N.am      6 UNK        -0.5000 
     45 C           1.0270  -15.7723  -42.3136 C.2       5 UNK         0.5000 
     46 O           0.5230  -16.8863  -42.1763 O.2       5 UNK        -0.5000 
     47 CA          0.3007  -14.7265  -43.1787 C.3       5 UNK         0.1400 
     48 CB         -0.6017  -13.8463  -42.3018 C.3       5 UNK        -0.1800 
     49 N           1.1476  -13.8622  -44.0132 N.am      5 UNK        -0.5000 
     50 C           2.1790  -14.2212  -44.7937 C.2       4 UNK         0.5000 
     51 O           2.6745  -15.3488  -44.7940 O.2       4 UNK        -0.5000 
     52 CA          2.7480  -13.1520  -45.7465 C.3       4 UNK         0.1400 
     53 CB          3.2157  -13.7687  -47.0773 C.3       4 UNK        -0.1800 
     54 N           1.7710  -12.1038  -46.0424 N.am      4 UNK        -0.5000 
     55 C           1.7195  -10.9033  -45.4541 C.2       3 UNK         0.5000 
     56 O           2.4729  -10.5499  -44.5469 O.2       3 UNK        -0.5000 
     57 CA          0.6246   -9.9473  -45.9531 C.3       3 UNK         0.1400 
     58 CB          1.0214   -9.3199  -47.2990 C.3       3 UNK        -0.1800 
     59 N          -0.6669  -10.6197  -46.0941 N.am      3 UNK        -0.5000 
     60 C          -1.5052  -10.8731  -45.0799 C.2       2 UNK         0.5000 
     61 O          -1.2591  -10.5911  -43.9073 O.2       2 UNK        -0.5000 
     62 CA         -2.8516  -11.5354  -45.4303 C.3       2 UNK         0.1400 
     63 CB         -3.9363  -10.4655  -45.6281 C.3       2 UNK        -0.1800 
     64 N          -2.7759  -12.3625  -46.6353 N.am      2 UNK        -0.5000 
     65 C          -2.3193  -13.6223  -46.6533 C.2       1 UNK         0.5000 
     66 O          -1.9660  -14.2305  -45.6445 O.2       1 UNK        -0.5000 
     67 C          -0.8243  -22.8801  -47.8699 C.2       11 UNK         0.5000 
     68 O          -1.0876  -23.8272  -48.6092 O.2       11 UNK        -0.5000 
     69 N          -1.7548  -22.0921  -47.3143 N.am      12 UNK        -0.5000 
     70 CA         -3.1961  -22.2391  -47.4938 C.3       12 UNK         0.1400 
     71 CB         -3.9187  -21.0514  -46.8403 C.3       12 UNK        -0.1800 
     72 C          -3.7367  -23.5718  -46.9493 C.2       12 UNK         0.5000 
     73 O          -4.5686  -24.1985  -47.6061 O.2       12 UNK        -0.5000 
     74 N          -3.2317  -23.9991  -45.7831 N.am      13 UNK        -0.5000 
     75 CA         -3.5473  -25.2908  -45.1723 C.3       13 UNK         0.1400 
     76 CB         -2.9627  -25.3517  -43.7533 C.3       13 UNK        -0.1800 
     77 C          -3.0620  -26.4811  -46.0206 C.2       13 UNK         0.5000 
     78 O          -3.8024  -27.4526  -46.1745 O.2       13 UNK        -0.5000 
     79 N          -1.8504  -26.3697  -46.5845 N.am      14 UNK        -0.5000 
     80 CA         -1.2689  -27.3486  -47.5049 C.3       14 UNK         0.1400 
     81 CB          0.2219  -27.0394  -47.7110 C.3       14 UNK        -0.1800 
     82 C          -2.0100  -27.4105  -48.8543 C.2       14 UNK         0.5000 
     83 O          -2.2082  -28.5035  -49.3863 O.2       14 UNK        -0.5000 
     84 N          -2.4257  -26.2448  -49.3705 N.am      15 UNK        -0.5000 
     85 CA         -3.2287  -26.1058  -50.5877 C.3       15 UNK         0.1400 
     86 CB         -3.2519  -24.6291  -51.0156 C.3       15 UNK        -0.1800 
     87 C          -4.6670  -26.6370  -50.4326 C.2       15 UNK         0.5000 
     88 O          -5.2734  -27.0306  -51.4295 O.2       15 UNK        -0.5000 
     89 N          -5.1930  -26.6116  -49.1986 N.am      16 UNK        -0.5000 
     90 CA         -6.5158  -27.0487  -48.7283 C.3       16 UNK         0.1400 
     91 CB         -6.7633  -28.5378  -49.0322 C.3       16 UNK        -0.1800 
     92 C          -7.6822  -26.1699  -49.2214 C.2       16 UNK         0.5000 
     93 O          -8.5650  -25.8328  -48.4325 O.2       16 UNK        -0.5000 
     94 N          -7.6425  -25.7721  -50.4977 N.am      17 UNK        -0.5000 
     95 CA         -8.5450  -24.8084  -51.1320 C.3       17 UNK         0.1400 
     96 CB         -8.5646  -25.0908  -52.6433 C.3       17 UNK        -0.1800 
     97 C          -8.1454  -23.3416  -50.8570 C.2       17 UNK         0.5000 
     98 O          -8.8040  -22.4314  -51.3629 O.2       17 UNK        -0.5000 
     99 N          -7.0636  -23.1398  -50.0906 N.am      18 UNK        -0.5000 
    100 CA        -6.3951  -21.8860  -49.7388 C.3       18 UNK         0.1400 
    101 CB        -7.3298  -20.8959  -49.0170 C.3       18 UNK        -0.1800 
    102 C         -5.6654  -21.2439  -50.9288 C.2       18 UNK         0.5000 
    103 O         -4.4396  -21.1422  -50.8946 O.2       18 UNK        -0.5000 
    104 N         -6.4289  -20.8559  -51.9592 N.am      19 UNK        -0.5000 
    105 CA        -5.9871  -20.1972  -53.1914 C.3       19 UNK         0.1400 
    106 CB        -5.2088  -21.2007  -54.0743 C.3       19 UNK        -0.1800 
    107 C         -5.2245  -18.8797  -52.9131 C.2       19 UNK         0.5000 
    108 O         -5.5845  -18.1531  -51.9847 O.2       19 UNK        -0.5000 
    109 N         -4.2015  -18.5921  -53.7236 N.am      20 UNK        -0.5000 
    110 CA        -3.2695  -17.4748  -53.5806 C.3       20 UNK         0.1400 
    111 CB        -3.9313  -16.1469  -54.0018 C.3       20 UNK        -0.1800 
    112 C         -1.9969  -17.7985  -54.3819 C.2       20 UNK         0.5000 
    113 O         -1.4954  -16.9565  -55.1290 O.2       20 UNK        -0.5000 
    114 N         -1.5213  -19.0454  -54.2560 N.am      21 UNK        -0.5000 
    115 CA        -0.4027  -19.6138  -55.0121 C.3       21 UNK         0.1400 
    116 CB        -0.5783  -21.1426  -55.0702 C.3       21 UNK        -0.1800 
    117 C          0.9690  -19.1829  -54.4502 C.2       21 UNK         0.5000 
    118 O          1.7951  -20.0299  -54.1055 O.2       21 UNK        -0.5000 
    119 N          1.1719  -17.8666  -54.3435 N.am      22 UNK        -0.5000 
    120 CA         2.3972  -17.2273  -53.8493 C.3       22 UNK         0.1400 
    121 C          3.6121  -17.4338  -54.7967 C.2       22 UNK         0.5000 
    122 N          4.8163  -17.5563  -54.2546 N.am      22 UNK        -0.7600 
    123 O          3.4808  -17.4390  -56.0191 O.2       22 UNK        -0.5000 
    124 C124        2.1856  -15.7174  -53.5638 C.3       23 UNK        -0.0398 
    125 S125        0.7263  -15.3177  -52.5371 S.3       23 UNK        -0.2404 
    126 C126        1.1229  -16.1152  -50.9496 C.3       23 UNK        -0.0205 
    127 H127        0.3905  -12.1597  -50.9713 H         1 UNK         0.0600 
    128 H128       -1.3474  -11.8912  -51.1255 H         1 UNK         0.0600 
    129 H129       -0.3666  -10.7870  -50.1553 H         1 UNK         0.0600 
    130 H130       -2.5420  -13.2789  -49.8597 H         1 UNK         0.3000 
    131 H131       -1.3702  -14.9903  -47.9687 H         1 UNK         0.0600 
    132 H132       -3.6565  -15.1249  -49.4541 H         1 UNK         0.0800 
    133 H133       -4.3862  -14.6577  -47.9606 H         1 UNK         0.0800 
    134 H134       -3.9424  -17.2495  -50.1467 H         1 UNK         0.0800 
    135 H135       -3.9247  -18.7226  -49.2312 H         1 UNK         0.0800 
    136 H136       -1.4283  -16.0022  -50.0840 H         1 UNK         0.1150 
    137 H137        1.5815  -18.8158  -51.2426 H         1 UNK         0.1150 
    138 H138       -2.2236  -20.2050  -49.8594 H         1 UNK         0.1150 
    139 H139       -0.6722  -21.7939  -50.6392 H         1 UNK         0.0800 
    140 H140        0.3357  -21.2065  -51.9329 H         1 UNK         0.0800 
    141 H141        0.4627  -20.5100  -48.1722 H         1 UNK         0.0800 
    142 H142        2.0786  -20.9734  -47.7357 H         1 UNK         0.0800 
    143 H143        1.2425  -23.4454  -47.8029 H         1 UNK         0.0600 
    144 H144        1.1702  -21.5743  -45.7032 H         1 UNK         0.3000 
    145 H145       -0.0256  -23.6647  -43.0860 H         1 UNK         0.0600 
    146 H146        2.1004  -22.8594  -42.0788 H         1 UNK         0.0600 
    147 H147        2.4046  -24.1406  -43.2417 H         1 UNK         0.0600 
    148 H148        2.7363  -22.4701  -43.6761 H         1 UNK         0.0600 
    149 H149        0.8240  -20.9031  -43.3392 H         1 UNK         0.3000 
    150 H150       -2.4501  -19.5810  -43.8944 H         1 UNK         0.0600 
    151 H151       -2.2621  -19.9264  -41.4215 H         1 UNK         0.0600 
    152 H152       -1.8602  -18.2807  -41.8845 H         1 UNK         0.0600 
    153 H153       -0.5773  -19.4189  -41.4751 H         1 UNK         0.0600 
    154 H154        0.1038  -18.3290  -43.6005 H         1 UNK         0.3000 
    155 H155        1.1844  -18.7567  -46.9720 H         1 UNK         0.0600 
    156 H156       -0.0257  -16.1799  -45.8940 H         1 UNK         0.0600 
    157 H157       -0.4316  -16.9833  -47.4028 H         1 UNK         0.0600 
    158 H158        1.1724  -16.3086  -47.1840 H         1 UNK         0.0600 
    159 H159        2.2328  -17.0358  -45.0280 H         1 UNK         0.3000 
    160 H160        4.2873  -19.4769  -43.3851 H         1 UNK         0.0600 
    161 H161        6.0379  -17.9707  -44.3075 H         1 UNK         0.0600 
    162 H162        4.8953  -17.3250  -45.4842 H         1 UNK         0.0600 
    163 H163        5.3915  -19.0125  -45.5665 H         1 UNK         0.0600 
    164 H164        3.4404  -16.5991  -43.5196 H         1 UNK         0.3000 
    165 H165        2.4975  -16.6264  -40.1266 H         1 UNK         0.0600 
    166 H166        3.9681  -14.6452  -39.8895 H         1 UNK         0.0600 
    167 H167        4.9351  -16.1110  -39.8789 H         1 UNK         0.0600 
    168 H168        4.8789  -15.1123  -41.3267 H         1 UNK         0.0600 
    169 H169        2.5556  -14.4909  -41.9760 H         1 UNK         0.3000 
    170 H170       -0.3464  -15.2859  -43.8533 H         1 UNK         0.0600 
    171 H171       -1.2401  -14.4540  -41.6590 H         1 UNK         0.0600 
    172 H172       -0.0185  -13.1857  -41.6593 H         1 UNK         0.0600 
    173 H173       -1.2592  -13.2282  -42.9127 H         1 UNK         0.0600 
    174 H174        0.8366  -12.9057  -44.0961 H         1 UNK         0.3000 
    175 H175        3.6221  -12.7222  -45.2538 H         1 UNK         0.0600 
    176 H176        2.3936  -14.2509  -47.6071 H         1 UNK         0.0600 
    177 H177        3.6339  -13.0080  -47.7365 H         1 UNK         0.0600 
    178 H178        3.9915  -14.5186  -46.9179 H         1 UNK         0.0600 
    179 H179        1.1103  -12.3141  -46.7888 H         1 UNK         0.3000 
    180 H180        0.5244   -9.1401  -45.2241 H         1 UNK         0.0600 
    181 H181        1.1372  -10.0723  -48.0799 H         1 UNK         0.0600 
    182 H182        1.9693   -8.7868  -47.2153 H         1 UNK         0.0600 
    183 H183        0.2735   -8.6012  -47.6344 H         1 UNK         0.0600 
    184 H184       -0.9157  -10.9353  -47.0195 H         1 UNK         0.3000 
    185 H185       -3.1449  -12.1603  -44.5837 H         1 UNK         0.0600 
    186 H186       -4.0379   -9.8433  -44.7379 H         1 UNK         0.0600 
    187 H187       -3.7051   -9.8055  -46.4652 H         1 UNK         0.0600 
    188 H188       -4.9087  -10.9206  -45.8173 H         1 UNK         0.0600 
    189 H189       -3.0511  -11.9327  -47.5065 H         1 UNK         0.3000 
    190 H190       -1.4560  -21.2893  -46.7624 H         1 UNK         0.3000 
    191 H191       -3.3864  -22.2128  -48.5673 H         1 UNK         0.0600 
    192 H192       -3.7053  -20.9905  -45.7729 H         1 UNK         0.0600 
    193 H193       -4.9999  -21.1316  -46.9523 H         1 UNK         0.0600 
    194 H194       -3.6120  -20.1086  -47.2921 H         1 UNK         0.0600 
    195 H195       -2.5910  -23.3978  -45.2766 H         1 UNK         0.3000 
    196 H196       -4.6340  -25.3627  -45.0924 H         1 UNK         0.0600 
    197 H197       -3.2181  -26.2937  -43.2666 H         1 UNK         0.0600 
    198 H198       -3.3545  -24.5471  -43.1309 H         1 UNK         0.0600 
    199 H199       -1.8760  -25.2702  -43.7597 H         1 UNK         0.0600 
    200 H200       -1.2803  -25.5583  -46.3649 H         1 UNK         0.3000 
    201 H201       -1.3469  -28.3332  -47.0393 H         1 UNK         0.0600 
    202 H202        0.7637  -27.0680  -46.7655 H         1 UNK         0.0600 
    203 H203        0.3738  -26.0540  -48.1518 H         1 UNK         0.0600 
    204 H204        0.6846  -27.7712  -48.3741 H         1 UNK         0.0600 
    205 H205       -2.1386  -25.3824  -48.9141 H         1 UNK         0.3000 
    206 H206       -2.7472  -26.6836  -51.3791 H         1 UNK         0.0600 
    207 H207       -2.2445  -24.2540  -51.1972 H         1 UNK         0.0600 
    208 H208       -3.8195  -24.4944  -51.9372 H         1 UNK         0.0600 
    209 H209       -3.7098  -23.9964  -50.2552 H         1 UNK         0.0600 
    210 H210       -4.6268  -26.1712  -48.4825 H         1 UNK         0.3000 
    211 H211       -6.4826  -26.9400  -47.6430 H         1 UNK         0.0600 
    212 H212       -6.8403  -28.7313  -50.1023 H         1 UNK         0.0600 
    213 H213       -7.6928  -28.8772  -48.5736 H         1 UNK         0.0600 
    214 H214       -5.9591  -29.1577  -48.6354 H         1 UNK         0.0600 
    215 H215       -6.8797  -26.1298  -51.0675 H         1 UNK         0.3000 
    216 H216       -9.5542  -24.9522  -50.7410 H         1 UNK         0.0600 
    217 H217       -9.2638  -24.4312  -53.1590 H         1 UNK         0.0600 
    218 H218       -8.8766  -26.1150  -52.8487 H         1 UNK         0.0600 
    219 H219       -7.5811  -24.9434  -53.0916 H         1 UNK         0.0600 
    220 H220       -6.6039  -23.9691  -49.7432 H         1 UNK         0.3000 
    221 H221       -5.6295  -22.1716  -49.0226 H         1 UNK         0.0600 
    222 H222       -8.1398  -20.5455  -49.6563 H         1 UNK         0.0600 
    223 H223       -7.7744  -21.3512  -48.1321 H         1 UNK         0.0600 
    224 H224       -6.7762  -20.0160  -48.6868 H         1 UNK         0.0600 
    225 H225       -7.4250  -21.0315  -51.8804 H         1 UNK         0.3000 
    226 H226       -6.8942  -19.9156  -53.7275 H         1 UNK         0.0600 
    227 H227       -5.7742  -22.1237  -54.2039 H         1 UNK         0.0600 
    228 H228       -5.0279  -20.8002  -55.0723 H         1 UNK         0.0600 
    229 H229       -4.2446  -21.4654  -53.6382 H         1 UNK         0.0600 
    230 H230       -3.9907  -19.2326  -54.4766 H         1 UNK         0.3000 
    231 H231       -2.9709  -17.3968  -52.5343 H         1 UNK         0.0600 
    232 H232       -4.8009  -15.9201  -53.3853 H         1 UNK         0.0600 
    233 H233       -4.2559  -16.1747  -55.0424 H         1 UNK         0.0600 
    234 H234       -3.2367  -15.3129  -53.8933 H         1 UNK         0.0600 
    235 H235       -1.9472  -19.6531  -53.5714 H         1 UNK         0.3000 
    236 H236       -0.4508  -19.2431  -56.0382 H         1 UNK         0.0600 
    237 H237        0.2199  -21.6076  -55.6501 H         1 UNK         0.0600 
    238 H238       -0.5682  -21.5911  -54.0770 H         1 UNK         0.0600 
    239 H239       -1.5208  -21.4117  -55.5473 H         1 UNK         0.0600 
    240 H240        0.4244  -17.2459  -54.6350 H         1 UNK         0.3000 
    241 H241        2.6467  -17.7135  -52.9065 H         1 UNK         0.0600 
    242 H242        5.6142  -17.6751  -54.8598 H         1 UNK         0.3800 
    243 H243        4.9539  -17.5491  -53.2557 H         1 UNK         0.3800 
    244 H244        3.0674  -15.2968  -53.0774 H         1 UNK         0.0800 
    245 H245        2.0736  -15.1727  -54.5031 H         1 UNK         0.0800 
    246 H246        2.1631  -16.4414  -50.9260 H         1 UNK         0.0800 
    247 H247        1.0243  -15.3755  -50.1531 H         1 UNK         0.0800 
@<TRIPOS>BOND
     1    1    2 1    
     2    1  127 1    
     3    1  128 1    
     4    1  129 1    
     5    2    3 2    
     6    2    4 am   BACKBONE|DICT|INTERRES
     7    4    5 1    
     8    4  130 1    
     9    5    6 1    
    10    5   65 1    
    11    5  131 1    
    12    6    7 1    
    13    6  132 1    
    14    6  133 1    
    15    7    8 1    
    16    8    9 1    
    17    8  134 1    
    18    8  135 1    
    19    9   10 ar   
    20    9   14 ar   
    21   10   11 ar   
    22   10  136 1    
    23   11   12 ar   
    24   11  126 1    
    25   12   13 ar   
    26   12  137 1    
    27   13   14 ar   
    28   13   15 1    
    29   14  138 1    
    30   15   16 1    
    31   15  139 1    
    32   15  140 1    
    33   16   17 1    
    34   17   18 1    
    35   17  141 1    
    36   17  142 1    
    37   18   19 1    
    38   18   67 1    
    39   18  143 1    
    40   19   20 am   BACKBONE|DICT|INTERRES
    41   19  144 1    
    42   20   21 2    
    43   20   22 1    
    44   22   23 1    
    45   22   24 1    
    46   22  145 1    
    47   23  146 1    
    48   23  147 1    
    49   23  148 1    
    50   24   25 am   BACKBONE|DICT|INTERRES
    51   24  149 1    
    52   25   26 2    
    53   25   27 1    
    54   27   28 1    
    55   27   29 1    
    56   27  150 1    
    57   28  151 1    
    58   28  152 1    
    59   28  153 1    
    60   29   30 am   BACKBONE|DICT|INTERRES
    61   29  154 1    
    62   30   31 2    
    63   30   32 1    
    64   32   33 1    
    65   32   34 1    
    66   32  155 1    
    67   33  156 1    
    68   33  157 1    
    69   33  158 1    
    70   34   35 am   BACKBONE|DICT|INTERRES
    71   34  159 1    
    72   35   36 2    
    73   35   37 1    
    74   37   38 1    
    75   37   39 1    
    76   37  160 1    
    77   38  161 1    
    78   38  162 1    
    79   38  163 1    
    80   39   40 am   BACKBONE|DICT|INTERRES
    81   39  164 1    
    82   40   41 2    
    83   40   42 1    
    84   42   43 1    
    85   42   44 1    
    86   42  165 1    
    87   43  166 1    
    88   43  167 1    
    89   43  168 1    
    90   44   45 am   BACKBONE|DICT|INTERRES
    91   44  169 1    
    92   45   46 2    
    93   45   47 1    
    94   47   48 1    
    95   47   49 1    
    96   47  170 1    
    97   48  171 1    
    98   48  172 1    
    99   48  173 1    
   100   49   50 am   BACKBONE|DICT|INTERRES
   101   49  174 1    
   102   50   51 2    
   103   50   52 1    
   104   52   53 1    
   105   52   54 1    
   106   52  175 1    
   107   53  176 1    
   108   53  177 1    
   109   53  178 1    
   110   54   55 am   BACKBONE|DICT|INTERRES
   111   54  179 1    
   112   55   56 2    
   113   55   57 1    
   114   57   58 1    
   115   57   59 1    
   116   57  180 1    
   117   58  181 1    
   118   58  182 1    
   119   58  183 1    
   120   59   60 am   BACKBONE|DICT|INTERRES
   121   59  184 1    
   122   60   61 2    
   123   60   62 1    
   124   62   63 1    
   125   62   64 1    
   126   62  185 1    
   127   63  186 1    
   128   63  187 1    
   129   63  188 1    
   130   64   65 am   BACKBONE|DICT|INTERRES
   131   64  189 1    
   132   65   66 2    
   133   67   68 2    
   134   67   69 am   BACKBONE|DICT|INTERRES
   135   69   70 1    
   136   69  190 1    
   137   70   71 1    
   138   70   72 1    
   139   70  191 1    
   140   71  192 1    
   141   71  193 1    
   142   71  194 1    
   143   72   73 2    
   144   72   74 am   BACKBONE|DICT|INTERRES
   145   74   75 1    
   146   74  195 1    
   147   75   76 1    
   148   75   77 1    
   149   75  196 1    
   150   76  197 1    
   151   76  198 1    
   152   76  199 1    
   153   77   78 2    
   154   77   79 am   BACKBONE|DICT|INTERRES
   155   79   80 1    
   156   79  200 1    
   157   80   81 1    
   158   80   82 1    
   159   80  201 1    
   160   81  202 1    
   161   81  203 1    
   162   81  204 1    
   163   82   83 2    
   164   82   84 am   BACKBONE|DICT|INTERRES
   165   84   85 1    
   166   84  205 1    
   167   85   86 1    
   168   85   87 1    
   169   85  206 1    
   170   86  207 1    
   171   86  208 1    
   172   86  209 1    
   173   87   88 2    
   174   87   89 am   BACKBONE|DICT|INTERRES
   175   89   90 1    
   176   89  210 1    
   177   90   91 1    
   178   90   92 1    
   179   90  211 1    
   180   91  212 1    
   181   91  213 1    
   182   91  214 1    
   183   92   93 2    
   184   92   94 am   BACKBONE|DICT|INTERRES
   185   94   95 1    
   186   94  215 1    
   187   95   96 1    
   188   95   97 1    
   189   95  216 1    
   190   96  217 1    
   191   96  218 1    
   192   96  219 1    
   193   97   98 2    
   194   97   99 am   BACKBONE|DICT|INTERRES
   195   99  100 1    
   196   99  220 1    
   197  100  101 1    
   198  100  102 1    
   199  100  221 1    
   200  101  222 1    
   201  101  223 1    
   202  101  224 1    
   203  102  103 2    
   204  102  104 am   BACKBONE|DICT|INTERRES
   205  104  105 1    
   206  104  225 1    
   207  105  106 1    
   208  105  107 1    
   209  105  226 1    
   210  106  227 1    
   211  106  228 1    
   212  106  229 1    
   213  107  108 2    
   214  107  109 am   BACKBONE|DICT|INTERRES
   215  109  110 1    
   216  109  230 1    
   217  110  111 1    
   218  110  112 1    
   219  110  231 1    
   220  111  232 1    
   221  111  233 1    
   222  111  234 1    
   223  112  113 2    
   224  112  114 am   BACKBONE|DICT|INTERRES
   225  114  115 1    
   226  114  235 1    
   227  115  116 1    
   228  115  117 1    
   229  115  236 1    
   230  116  237 1    
   231  116  238 1    
   232  116  239 1    
   233  117  118 2    
   234  117  119 am   BACKBONE|DICT|INTERRES
   235  119  120 1    
   236  119  240 1    
   237  120  121 1    
   238  120  124 1    
   239  120  241 1    
   240  121  122 am   BACKBONE|DICT|INTERRES
   241  121  123 2    
   242  122  242 1    
   243  122  243 1    
   244  124  125 1    
   245  124  244 1    
   246  124  245 1    
   247  125  126 1    
   248  126  246 1    
   249  126  247 1    
@<TRIPOS>SUBSTRUCTURE
     1 UNK         1 GROUP             0       ****    0 ROOT    
