@<TRIPOS>MOLECULE
3R540
247   249    1
SMALL
USER_CHARGES


@<TRIPOS>ATOM
      1 CA          4.6133  -15.2895  -42.2737 C.3       0 UNK        -0.1800 
      2 C           3.5436  -14.5265  -43.0413 C.2       0 UNK         0.5000 
      3 O           2.5658  -14.0762  -42.4452 O.2       0 UNK        -0.5000 
      4 N           3.7224  -14.3853  -44.3616 N.am      1 UNK        -0.5000 
      5 CA          2.7884  -13.6996  -45.2633 C.3       1 UNK         0.1400 
      6 C6          3.0433  -14.0591  -46.7458 C.3       23 UNK        -0.0398 
      7 S7          2.3416  -15.6875  -47.1483 S.3       23 UNK        -0.2404 
      8 C8          3.3421  -16.1537  -48.5890 C.3       23 UNK        -0.0205 
      9 C9          2.8029  -17.4295  -49.2111 C.ar      23 UNK        -0.0193 
     10 C10         1.7673  -17.3669  -50.1459 C.ar      23 UNK        -0.1150 
     11 C11         1.2362  -18.5351  -50.6987 C.ar      23 UNK        -0.0193 
     12 C12         1.7577  -19.7744  -50.3133 C.ar      23 UNK        -0.1150 
     13 C13         2.8061  -19.8519  -49.3899 C.ar      23 UNK        -0.0193 
     14 C14         3.3263  -18.6722  -48.8456 C.ar      23 UNK        -0.1150 
     15 C15         3.3879  -21.2131  -49.0190 C.3       23 UNK        -0.0205 
     16 S16         3.6817  -21.4453  -47.2308 S.3       23 UNK        -0.2404 
     17 C17         2.0197  -21.2102  -46.5174 C.3       23 UNK        -0.0398 
     18 CA          1.2455  -22.5396  -46.3285 C.3       11 UNK         0.1400 
     19 N           0.2563  -22.4319  -45.2557 N.am      11 UNK        -0.5000 
     20 C          -0.3699  -23.4628  -44.6731 C.2       10 UNK         0.5000 
     21 O          -0.3007  -24.6216  -45.0789 O.2       10 UNK        -0.5000 
     22 CA         -1.2067  -23.1473  -43.4237 C.3       10 UNK         0.1400 
     23 CB         -0.3069  -22.7132  -42.2550 C.3       10 UNK        -0.1800 
     24 N          -2.1671  -22.0879  -43.7114 N.am      10 UNK        -0.5000 
     25 C          -3.4979  -22.2379  -43.7121 C.2       9 UNK         0.5000 
     26 O          -4.0724  -23.2599  -43.3360 O.2       9 UNK        -0.5000 
     27 CA         -4.3448  -21.0564  -44.2330 C.3       9 UNK         0.1400 
     28 CB         -5.0167  -20.3177  -43.0658 C.3       9 UNK        -0.1800 
     29 N          -3.6061  -20.0832  -45.0412 N.am      9 UNK        -0.5000 
     30 C          -2.9732  -20.3498  -46.1907 C.2       8 UNK         0.5000 
     31 O          -2.9098  -21.4677  -46.6989 O.2       8 UNK        -0.5000 
     32 CA         -2.2214  -19.1832  -46.8509 C.3       8 UNK         0.1400 
     33 CB         -3.1846  -18.4170  -47.7639 C.3       8 UNK        -0.1800 
     34 N          -1.5637  -18.2610  -45.9135 N.am      8 UNK        -0.5000 
     35 C          -0.6954  -18.6202  -44.9505 C.2       7 UNK         0.5000 
     36 O          -0.4322  -19.7956  -44.6888 O.2       7 UNK        -0.5000 
     37 CA          0.0212  -17.5168  -44.1479 C.3       7 UNK         0.1400 
     38 CB          1.5427  -17.7373  -44.1826 C.3       7 UNK        -0.1800 
     39 N          -0.2815  -16.1690  -44.6338 N.am      7 UNK        -0.5000 
     40 C          -1.2113  -15.3588  -44.1075 C.2       6 UNK         0.5000 
     41 O          -1.8874  -15.6507  -43.1206 O.2       6 UNK        -0.5000 
     42 CA         -1.4591  -14.0054  -44.8104 C.3       6 UNK         0.1400 
     43 CB         -0.8598  -12.8462  -44.0001 C.3       6 UNK        -0.1800 
     44 N          -0.9947  -13.9457  -46.2050 N.am      6 UNK        -0.5000 
     45 C          -1.5409  -14.6744  -47.1888 C.2       5 UNK         0.5000 
     46 O          -2.4046  -15.5222  -46.9670 O.2       5 UNK        -0.5000 
     47 CA         -1.0670  -14.4842  -48.6467 C.3       5 UNK         0.1400 
     48 CB         -2.2576  -14.1539  -49.5679 C.3       5 UNK        -0.1800 
     49 N           0.0344  -13.5453  -48.9022 N.am      5 UNK        -0.5000 
     50 C           0.0823  -12.2260  -48.6782 C.2       4 UNK         0.5000 
     51 O          -0.7416  -11.5978  -48.0114 O.2       4 UNK        -0.5000 
     52 CA          1.2358  -11.4771  -49.3595 C.3       4 UNK         0.1400 
     53 CB          0.7759  -10.9290  -50.7246 C.3       4 UNK        -0.1800 
     54 N           1.6864  -10.3944  -48.4921 N.am      4 UNK        -0.5000 
     55 C           2.8201   -9.6972  -48.6454 C.2       3 UNK         0.5000 
     56 O           3.6227   -9.8841  -49.5605 O.2       3 UNK        -0.5000 
     57 CA          3.1393   -8.6550  -47.5657 C.3       3 UNK         0.1400 
     58 CB          2.1045   -7.5175  -47.5410 C.3       3 UNK        -0.1800 
     59 N           3.1752   -9.3254  -46.2727 N.am      3 UNK        -0.5000 
     60 C           4.1352   -9.2276  -45.3514 C.2       2 UNK         0.5000 
     61 O           5.0910   -8.4552  -45.4345 O.2       2 UNK        -0.5000 
     62 CA          4.0235  -10.1730  -44.1370 C.3       2 UNK         0.1400 
     63 CB          2.9605   -9.6736  -43.1394 C.3       2 UNK        -0.1800 
     64 N           3.8102  -11.5899  -44.4765 N.am      2 UNK        -0.5000 
     65 C           2.7559  -12.1692  -45.0729 C.2       1 UNK         0.5000 
     66 O           1.7735  -11.5514  -45.4859 O.2       1 UNK        -0.5000 
     67 C           0.6225  -23.0336  -47.6465 C.2       11 UNK         0.5000 
     68 O           0.9984  -24.0937  -48.1464 O.2       11 UNK        -0.5000 
     69 N          -0.3313  -22.2608  -48.1803 N.am      12 UNK        -0.5000 
     70 CA         -1.0141  -22.5489  -49.4424 C.3       12 UNK         0.1400 
     71 CB         -1.7547  -21.2939  -49.9138 C.3       12 UNK        -0.1800 
     72 C          -1.9665  -23.7508  -49.3261 C.2       12 UNK         0.5000 
     73 O          -2.1398  -24.4897  -50.2972 O.2       12 UNK        -0.5000 
     74 N          -2.5268  -23.9468  -48.1253 N.am      13 UNK        -0.5000 
     75 CA         -3.3049  -25.1146  -47.7257 C.3       13 UNK         0.1400 
     76 CB         -3.8301  -24.9090  -46.2985 C.3       13 UNK        -0.1800 
     77 C          -2.4952  -26.4207  -47.8255 C.2       13 UNK         0.5000 
     78 O          -2.9917  -27.3972  -48.3846 O.2       13 UNK        -0.5000 
     79 N          -1.2539  -26.4106  -47.3216 N.am      14 UNK        -0.5000 
     80 CA         -0.3293  -27.5387  -47.4282 C.3       14 UNK         0.1400 
     81 CB          0.8286  -27.3544  -46.4356 C.3       14 UNK        -0.1800 
     82 C           0.2082  -27.7265  -48.8580 C.2       14 UNK         0.5000 
     83 O           0.3188  -28.8638  -49.3175 O.2       14 UNK        -0.5000 
     84 N           0.5462  -26.6149  -49.5258 N.am      15 UNK        -0.5000 
     85 CA          1.1790  -26.6104  -50.8433 C.3       15 UNK         0.1400 
     86 CB          1.7686  -25.2205  -51.1284 C.3       15 UNK        -0.1800 
     87 C           0.2481  -27.0416  -51.9899 C.2       15 UNK         0.5000 
     88 O           0.6856  -27.8036  -52.8539 O.2       15 UNK        -0.5000 
     89 N          -0.9902  -26.5281  -52.0094 N.am      16 UNK        -0.5000 
     90 CA         -1.8858  -26.6438  -53.1653 C.3       16 UNK         0.1400 
     91 CB         -1.6263  -25.4511  -54.1073 C.3       16 UNK        -0.1800 
     92 C          -3.3769  -26.7455  -52.7970 C.2       16 UNK         0.5000 
     93 O          -4.2111  -26.6925  -53.7019 O.2       16 UNK        -0.5000 
     94 N          -3.7029  -26.8618  -51.4995 N.am      17 UNK        -0.5000 
     95 CA         -5.0629  -26.8214  -50.9359 C.3       17 UNK         0.1400 
     96 CB         -5.9033  -28.0263  -51.4091 C.3       17 UNK        -0.1800 
     97 C          -5.7743  -25.4672  -51.1589 C.2       17 UNK         0.5000 
     98 O          -7.0044  -25.4053  -51.1477 O.2       17 UNK        -0.5000 
     99 N          -4.9887  -24.3980  -51.3387 N.am      18 UNK        -0.5000 
    100 CA        -5.4445  -23.0511  -51.6752 C.3       18 UNK         0.1400 
    101 CB        -4.5238  -22.4882  -52.7713 C.3       18 UNK        -0.1800 
    102 C         -5.5017  -22.1656  -50.4174 C.2       18 UNK         0.5000 
    103 O         -4.9743  -21.0529  -50.4120 O.2       18 UNK        -0.5000 
    104 N         -6.1426  -22.6874  -49.3618 N.am      19 UNK        -0.5000 
    105 CA        -6.2561  -22.0684  -48.0372 C.3       19 UNK         0.1400 
    106 CB        -7.0154  -23.0268  -47.1070 C.3       19 UNK        -0.1800 
    107 C         -6.9362  -20.6855  -48.0395 C.2       19 UNK         0.5000 
    108 O         -6.6159  -19.8443  -47.1986 O.2       19 UNK        -0.5000 
    109 N         -7.8508  -20.4731  -48.9943 N.am      20 UNK        -0.5000 
    110 CA        -8.5698  -19.2250  -49.2326 C.3       20 UNK         0.1400 
    111 CB        -9.8377  -19.5386  -50.0471 C.3       20 UNK        -0.1800 
    112 C         -7.6705  -18.1766  -49.9190 C.2       20 UNK         0.5000 
    113 O         -7.8517  -17.8851  -51.1033 O.2       20 UNK        -0.5000 
    114 N         -6.7020  -17.6470  -49.1582 N.am      21 UNK        -0.5000 
    115 CA        -5.8009  -16.5402  -49.5059 C.3       21 UNK         0.1400 
    116 CB        -6.5816  -15.2097  -49.5079 C.3       21 UNK        -0.1800 
    117 C         -5.0025  -16.7639  -50.8091 C.2       21 UNK         0.5000 
    118 O         -4.8232  -15.8246  -51.5862 O.2       21 UNK        -0.5000 
    119 N         -4.5565  -18.0085  -51.0288 N.am      22 UNK        -0.5000 
    120 CA        -3.8280  -18.4688  -52.2247 C.3       22 UNK         0.1400 
    121 C         -4.7094  -18.5760  -53.5078 C.2       22 UNK         0.5000 
    122 N         -6.0313  -18.4649  -53.4292 N.am      22 UNK        -0.7600 
    123 O         -4.1905  -18.7991  -54.5981 O.2       22 UNK        -0.5000 
    124 C124       -2.4960  -17.7042  -52.4846 C.3       23 UNK        -0.0398 
    125 S125       -1.3812  -17.6885  -51.0380 S.3       23 UNK        -0.2404 
    126 C126        0.1195  -18.4501  -51.7298 C.3       23 UNK        -0.0205 
    127 H127        4.1757  -16.1639  -41.7919 H         1 UNK         0.0600 
    128 H128        5.0465  -14.6539  -41.5014 H         1 UNK         0.0600 
    129 H129        5.4177  -15.6285  -42.9269 H         1 UNK         0.0600 
    130 H130        4.5369  -14.7949  -44.7969 H         1 UNK         0.3000 
    131 H131        1.7860  -14.0442  -45.0071 H         1 UNK         0.0600 
    132 H132        4.1105  -14.0400  -46.9731 H         1 UNK         0.0800 
    133 H133        2.5791  -13.3404  -47.4205 H         1 UNK         0.0800 
    134 H134        3.3311  -15.3471  -49.3236 H         1 UNK         0.0800 
    135 H135        4.3817  -16.2868  -48.2855 H         1 UNK         0.0800 
    136 H136        1.3634  -16.4078  -50.4372 H         1 UNK         0.1150 
    137 H137        1.3565  -20.6804  -50.7450 H         1 UNK         0.1150 
    138 H138        4.1351  -18.7206  -48.1302 H         1 UNK         0.1150 
    139 H139        2.7458  -22.0184  -49.3780 H         1 UNK         0.0800 
    140 H140        4.3381  -21.3309  -49.5410 H         1 UNK         0.0800 
    141 H141        1.4500  -20.4751  -47.0878 H         1 UNK         0.0800 
    142 H142        2.1828  -20.7450  -45.5440 H         1 UNK         0.0800 
    143 H143        1.9599  -23.3010  -46.0067 H         1 UNK         0.0600 
    144 H144        0.0952  -21.4932  -44.8971 H         1 UNK         0.3000 
    145 H145       -1.7171  -24.0676  -43.1322 H         1 UNK         0.0600 
    146 H146       -0.8912  -22.5671  -41.3464 H         1 UNK         0.0600 
    147 H147        0.4466  -23.4717  -42.0388 H         1 UNK         0.0600 
    148 H148        0.2156  -21.7794  -42.4674 H         1 UNK         0.0600 
    149 H149       -1.7829  -21.2152  -44.0550 H         1 UNK         0.3000 
    150 H150       -5.1268  -21.4786  -44.8669 H         1 UNK         0.0600 
    151 H151       -5.6063  -21.0030  -42.4553 H         1 UNK         0.0600 
    152 H152       -5.6940  -19.5435  -43.4270 H         1 UNK         0.0600 
    153 H153       -4.2812  -19.8456  -42.4133 H         1 UNK         0.0600 
    154 H154       -3.5798  -19.1359  -44.6938 H         1 UNK         0.3000 
    155 H155       -1.4356  -19.6105  -47.4748 H         1 UNK         0.0600 
    156 H156       -3.7141  -19.0922  -48.4372 H         1 UNK         0.0600 
    157 H157       -2.6528  -17.6973  -48.3840 H         1 UNK         0.0600 
    158 H158       -3.9346  -17.8792  -47.1834 H         1 UNK         0.0600 
    159 H159       -1.7490  -17.2751  -46.0628 H         1 UNK         0.3000 
    160 H160       -0.3013  -17.6183  -43.1099 H         1 UNK         0.0600 
    161 H161        1.9234  -17.7865  -45.2024 H         1 UNK         0.0600 
    162 H162        1.8129  -18.6735  -43.6925 H         1 UNK         0.0600 
    163 H163        2.0695  -16.9403  -43.6611 H         1 UNK         0.0600 
    164 H164        0.2177  -15.8632  -45.4571 H         1 UNK         0.3000 
    165 H165       -2.5409  -13.8561  -44.8320 H         1 UNK         0.0600 
    166 H166       -0.9554  -11.8963  -44.5265 H         1 UNK         0.0600 
    167 H167       -1.3752  -12.7407  -43.0448 H         1 UNK         0.0600 
    168 H168        0.1927  -13.0050  -43.7735 H         1 UNK         0.0600 
    169 H169       -0.3476  -13.2088  -46.4510 H         1 UNK         0.3000 
    170 H170       -0.6871  -15.4615  -48.9481 H         1 UNK         0.0600 
    171 H171       -3.0477  -14.8983  -49.4716 H         1 UNK         0.0600 
    172 H172       -2.6941  -13.1826  -49.3333 H         1 UNK         0.0600 
    173 H173       -1.9559  -14.1449  -50.6153 H         1 UNK         0.0600 
    174 H174        0.7950  -13.9483  -49.4300 H         1 UNK         0.3000 
    175 H175        2.0664  -12.1693  -49.5128 H         1 UNK         0.0600 
    176 H176       -0.0144  -10.1859  -50.6106 H         1 UNK         0.0600 
    177 H177        1.5964  -10.4631  -51.2697 H         1 UNK         0.0600 
    178 H178        0.3859  -11.7283  -51.3562 H         1 UNK         0.0600 
    179 H179        1.0705  -10.2057  -47.7108 H         1 UNK         0.3000 
    180 H180        4.1175   -8.2285  -47.7982 H         1 UNK         0.0600 
    181 H181        2.3839   -6.7524  -46.8166 H         1 UNK         0.0600 
    182 H182        1.1090   -7.8763  -47.2772 H         1 UNK         0.0600 
    183 H183        2.0340   -7.0331  -48.5157 H         1 UNK         0.0600 
    184 H184        2.4710  -10.0435  -46.1117 H         1 UNK         0.3000 
    185 H185        4.9870  -10.1367  -43.6261 H         1 UNK         0.0600 
    186 H186        3.1786   -8.6548  -42.8169 H         1 UNK         0.0600 
    187 H187        1.9600   -9.6695  -43.5730 H         1 UNK         0.0600 
    188 H188        2.9349  -10.2991  -42.2471 H         1 UNK         0.0600 
    189 H189        4.5663  -12.2036  -44.2074 H         1 UNK         0.3000 
    190 H190       -0.6515  -21.4556  -47.6657 H         1 UNK         0.3000 
    191 H191       -0.2560  -22.7888  -50.1888 H         1 UNK         0.0600 
    192 H192       -1.1059  -20.4205  -49.8918 H         1 UNK         0.0600 
    193 H193       -2.1072  -21.4085  -50.9373 H         1 UNK         0.0600 
    194 H194       -2.6207  -21.0790  -49.2906 H         1 UNK         0.0600 
    195 H195       -2.4022  -23.2219  -47.4254 H         1 UNK         0.3000 
    196 H196       -4.1608  -25.1833  -48.3982 H         1 UNK         0.0600 
    197 H197       -4.5206  -25.7049  -46.0178 H         1 UNK         0.0600 
    198 H198       -4.3623  -23.9635  -46.2038 H         1 UNK         0.0600 
    199 H199       -3.0227  -24.9030  -45.5663 H         1 UNK         0.0600 
    200 H200       -0.9123  -25.5869  -46.8383 H         1 UNK         0.3000 
    201 H201       -0.8645  -28.4496  -47.1514 H         1 UNK         0.0600 
    202 H202        0.4632  -27.3135  -45.4093 H         1 UNK         0.0600 
    203 H203        1.3836  -26.4356  -46.6291 H         1 UNK         0.0600 
    204 H204        1.5333  -28.1846  -46.4968 H         1 UNK         0.0600 
    205 H205        0.4863  -25.7208  -49.0462 H         1 UNK         0.3000 
    206 H206        2.0097  -27.3188  -50.8125 H         1 UNK         0.0600 
    207 H207        2.4855  -24.9287  -50.3606 H         1 UNK         0.0600 
    208 H208        2.2939  -25.2079  -52.0842 H         1 UNK         0.0600 
    209 H209        0.9930  -24.4570  -51.1726 H         1 UNK         0.0600 
    210 H210       -1.2744  -25.8772  -51.2815 H         1 UNK         0.3000 
    211 H211       -1.6656  -27.5638  -53.7104 H         1 UNK         0.0600 
    212 H212       -1.8519  -24.5027  -53.6179 H         1 UNK         0.0600 
    213 H213       -2.2395  -25.5118  -55.0072 H         1 UNK         0.0600 
    214 H214       -0.5862  -25.4210  -54.4320 H         1 UNK         0.0600 
    215 H215       -2.9562  -26.9175  -50.8202 H         1 UNK         0.3000 
    216 H216       -4.9615  -26.9188  -49.8575 H         1 UNK         0.0600 
    217 H217       -6.8423  -28.0870  -50.8580 H         1 UNK         0.0600 
    218 H218       -5.3728  -28.9644  -51.2457 H         1 UNK         0.0600 
    219 H219       -6.1538  -27.9611  -52.4680 H         1 UNK         0.0600 
    220 H220       -3.9862  -24.5201  -51.2450 H         1 UNK         0.3000 
    221 H221       -6.4561  -23.0871  -52.0845 H         1 UNK         0.0600 
    222 H222       -3.4887  -22.4241  -52.4386 H         1 UNK         0.0600 
    223 H223       -4.5455  -23.1188  -53.6604 H         1 UNK         0.0600 
    224 H224       -4.8415  -21.4918  -53.0768 H         1 UNK         0.0600 
    225 H225       -6.5643  -23.5989  -49.4718 H         1 UNK         0.3000 
    226 H226       -5.2450  -21.9394  -47.6523 H         1 UNK         0.0600 
    227 H227       -6.5531  -24.0130  -47.0831 H         1 UNK         0.0600 
    228 H228       -7.0305  -22.6484  -46.0842 H         1 UNK         0.0600 
    229 H229       -8.0510  -23.1561  -47.4241 H         1 UNK         0.0600 
    230 H230       -8.0199  -21.2172  -49.6544 H         1 UNK         0.3000 
    231 H231       -8.8860  -18.8112  -48.2727 H         1 UNK         0.0600 
    232 H232       -9.5986  -19.9884  -51.0116 H         1 UNK         0.0600 
    233 H233      -10.4117  -18.6315  -50.2403 H         1 UNK         0.0600 
    234 H234      -10.4909  -20.2263  -49.5097 H         1 UNK         0.0600 
    235 H235       -6.5870  -18.0386  -48.2291 H         1 UNK         0.3000 
    236 H236       -5.0620  -16.4758  -48.7075 H         1 UNK         0.0600 
    237 H237       -7.1076  -15.0598  -48.5650 H         1 UNK         0.0600 
    238 H238       -5.9100  -14.3605  -49.6401 H         1 UNK         0.0600 
    239 H239       -7.3175  -15.1757  -50.3121 H         1 UNK         0.0600 
    240 H240       -4.7955  -18.7412  -50.3734 H         1 UNK         0.3000 
    241 H241       -3.5511  -19.4993  -52.0041 H         1 UNK         0.0600 
    242 H242       -6.4935  -18.2666  -52.5480 H         1 UNK         0.3800 
    243 H243       -6.5820  -18.5470  -54.2685 H         1 UNK         0.3800 
    244 H244       -1.9676  -18.1522  -53.3273 H         1 UNK         0.0800 
    245 H245       -2.6907  -16.6722  -52.7772 H         1 UNK         0.0800 
    246 H246        0.4659  -17.8602  -52.5795 H         1 UNK         0.0800 
    247 H247       -0.1278  -19.4406  -52.1150 H         1 UNK         0.0800 
@<TRIPOS>BOND
     1    1    2 1    
     2    1  127 1    
     3    1  128 1    
     4    1  129 1    
     5    2    3 2    
     6    2    4 am   BACKBONE|DICT|INTERRES
     7    4    5 1    
     8    4  130 1    
     9    5    6 1    
    10    5   65 1    
    11    5  131 1    
    12    6    7 1    
    13    6  132 1    
    14    6  133 1    
    15    7    8 1    
    16    8    9 1    
    17    8  134 1    
    18    8  135 1    
    19    9   10 ar   
    20    9   14 ar   
    21   10   11 ar   
    22   10  136 1    
    23   11   12 ar   
    24   11  126 1    
    25   12   13 ar   
    26   12  137 1    
    27   13   14 ar   
    28   13   15 1    
    29   14  138 1    
    30   15   16 1    
    31   15  139 1    
    32   15  140 1    
    33   16   17 1    
    34   17   18 1    
    35   17  141 1    
    36   17  142 1    
    37   18   19 1    
    38   18   67 1    
    39   18  143 1    
    40   19   20 am   BACKBONE|DICT|INTERRES
    41   19  144 1    
    42   20   21 2    
    43   20   22 1    
    44   22   23 1    
    45   22   24 1    
    46   22  145 1    
    47   23  146 1    
    48   23  147 1    
    49   23  148 1    
    50   24   25 am   BACKBONE|DICT|INTERRES
    51   24  149 1    
    52   25   26 2    
    53   25   27 1    
    54   27   28 1    
    55   27   29 1    
    56   27  150 1    
    57   28  151 1    
    58   28  152 1    
    59   28  153 1    
    60   29   30 am   BACKBONE|DICT|INTERRES
    61   29  154 1    
    62   30   31 2    
    63   30   32 1    
    64   32   33 1    
    65   32   34 1    
    66   32  155 1    
    67   33  156 1    
    68   33  157 1    
    69   33  158 1    
    70   34   35 am   BACKBONE|DICT|INTERRES
    71   34  159 1    
    72   35   36 2    
    73   35   37 1    
    74   37   38 1    
    75   37   39 1    
    76   37  160 1    
    77   38  161 1    
    78   38  162 1    
    79   38  163 1    
    80   39   40 am   BACKBONE|DICT|INTERRES
    81   39  164 1    
    82   40   41 2    
    83   40   42 1    
    84   42   43 1    
    85   42   44 1    
    86   42  165 1    
    87   43  166 1    
    88   43  167 1    
    89   43  168 1    
    90   44   45 am   BACKBONE|DICT|INTERRES
    91   44  169 1    
    92   45   46 2    
    93   45   47 1    
    94   47   48 1    
    95   47   49 1    
    96   47  170 1    
    97   48  171 1    
    98   48  172 1    
    99   48  173 1    
   100   49   50 am   BACKBONE|DICT|INTERRES
   101   49  174 1    
   102   50   51 2    
   103   50   52 1    
   104   52   53 1    
   105   52   54 1    
   106   52  175 1    
   107   53  176 1    
   108   53  177 1    
   109   53  178 1    
   110   54   55 am   BACKBONE|DICT|INTERRES
   111   54  179 1    
   112   55   56 2    
   113   55   57 1    
   114   57   58 1    
   115   57   59 1    
   116   57  180 1    
   117   58  181 1    
   118   58  182 1    
   119   58  183 1    
   120   59   60 am   BACKBONE|DICT|INTERRES
   121   59  184 1    
   122   60   61 2    
   123   60   62 1    
   124   62   63 1    
   125   62   64 1    
   126   62  185 1    
   127   63  186 1    
   128   63  187 1    
   129   63  188 1    
   130   64   65 am   BACKBONE|DICT|INTERRES
   131   64  189 1    
   132   65   66 2    
   133   67   68 2    
   134   67   69 am   BACKBONE|DICT|INTERRES
   135   69   70 1    
   136   69  190 1    
   137   70   71 1    
   138   70   72 1    
   139   70  191 1    
   140   71  192 1    
   141   71  193 1    
   142   71  194 1    
   143   72   73 2    
   144   72   74 am   BACKBONE|DICT|INTERRES
   145   74   75 1    
   146   74  195 1    
   147   75   76 1    
   148   75   77 1    
   149   75  196 1    
   150   76  197 1    
   151   76  198 1    
   152   76  199 1    
   153   77   78 2    
   154   77   79 am   BACKBONE|DICT|INTERRES
   155   79   80 1    
   156   79  200 1    
   157   80   81 1    
   158   80   82 1    
   159   80  201 1    
   160   81  202 1    
   161   81  203 1    
   162   81  204 1    
   163   82   83 2    
   164   82   84 am   BACKBONE|DICT|INTERRES
   165   84   85 1    
   166   84  205 1    
   167   85   86 1    
   168   85   87 1    
   169   85  206 1    
   170   86  207 1    
   171   86  208 1    
   172   86  209 1    
   173   87   88 2    
   174   87   89 am   BACKBONE|DICT|INTERRES
   175   89   90 1    
   176   89  210 1    
   177   90   91 1    
   178   90   92 1    
   179   90  211 1    
   180   91  212 1    
   181   91  213 1    
   182   91  214 1    
   183   92   93 2    
   184   92   94 am   BACKBONE|DICT|INTERRES
   185   94   95 1    
   186   94  215 1    
   187   95   96 1    
   188   95   97 1    
   189   95  216 1    
   190   96  217 1    
   191   96  218 1    
   192   96  219 1    
   193   97   98 2    
   194   97   99 am   BACKBONE|DICT|INTERRES
   195   99  100 1    
   196   99  220 1    
   197  100  101 1    
   198  100  102 1    
   199  100  221 1    
   200  101  222 1    
   201  101  223 1    
   202  101  224 1    
   203  102  103 2    
   204  102  104 am   BACKBONE|DICT|INTERRES
   205  104  105 1    
   206  104  225 1    
   207  105  106 1    
   208  105  107 1    
   209  105  226 1    
   210  106  227 1    
   211  106  228 1    
   212  106  229 1    
   213  107  108 2    
   214  107  109 am   BACKBONE|DICT|INTERRES
   215  109  110 1    
   216  109  230 1    
   217  110  111 1    
   218  110  112 1    
   219  110  231 1    
   220  111  232 1    
   221  111  233 1    
   222  111  234 1    
   223  112  113 2    
   224  112  114 am   BACKBONE|DICT|INTERRES
   225  114  115 1    
   226  114  235 1    
   227  115  116 1    
   228  115  117 1    
   229  115  236 1    
   230  116  237 1    
   231  116  238 1    
   232  116  239 1    
   233  117  118 2    
   234  117  119 am   BACKBONE|DICT|INTERRES
   235  119  120 1    
   236  119  240 1    
   237  120  121 1    
   238  120  124 1    
   239  120  241 1    
   240  121  122 am   BACKBONE|DICT|INTERRES
   241  121  123 2    
   242  122  242 1    
   243  122  243 1    
   244  124  125 1    
   245  124  244 1    
   246  124  245 1    
   247  125  126 1    
   248  126  246 1    
   249  126  247 1    
@<TRIPOS>SUBSTRUCTURE
     1 UNK         1 GROUP             0       ****    0 ROOT    
