@<TRIPOS>MOLECULE
3R540
247   249    1
SMALL
USER_CHARGES


@<TRIPOS>ATOM
      1 CA          0.5181  -11.4552  -43.0221 C.3       0 UNK        -0.1800 
      2 C          -0.2121  -10.8747  -44.2251 C.2       0 UNK         0.5000 
      3 O           0.0498   -9.7361  -44.6129 O.2       0 UNK        -0.5000 
      4 N          -1.1256  -11.6538  -44.8181 N.am      1 UNK        -0.5000 
      5 CA         -1.8969  -11.2943  -46.0166 C.3       1 UNK         0.1400 
      6 C6         -3.1727  -12.1615  -46.1564 C.3       23 UNK        -0.0398 
      7 S7         -2.8655  -13.9651  -46.1748 S.3       23 UNK        -0.2404 
      8 C8         -3.0267  -14.3212  -47.9502 C.3       23 UNK        -0.0205 
      9 C9         -3.0475  -15.8170  -48.2101 C.ar      23 UNK        -0.0193 
     10 C10        -4.2525  -16.5177  -48.1239 C.ar      23 UNK        -0.1150 
     11 C11        -4.2998  -17.8892  -48.3842 C.ar      23 UNK        -0.0193 
     12 C12        -3.1211  -18.5627  -48.7193 C.ar      23 UNK        -0.1150 
     13 C13        -1.9030  -17.8771  -48.7901 C.ar      23 UNK        -0.0193 
     14 C14        -1.8747  -16.5006  -48.5439 C.ar      23 UNK        -0.1150 
     15 C15        -0.6248  -18.6259  -49.1496 C.3       23 UNK        -0.0205 
     16 S16         0.6624  -18.5562  -47.8564 S.3       23 UNK        -0.2404 
     17 C17        -0.2042  -19.1531  -46.3662 C.3       23 UNK        -0.0398 
     18 CA         -0.1276  -20.6878  -46.1631 C.3       11 UNK         0.1400 
     19 N          -0.2333  -21.0470  -44.7485 N.am      11 UNK        -0.5000 
     20 C          -0.1304  -22.2790  -44.2328 C.2       10 UNK         0.5000 
     21 O           0.1605  -23.2776  -44.8889 O.2       10 UNK        -0.5000 
     22 CA         -0.4768  -22.4258  -42.7409 C.3       10 UNK         0.1400 
     23 CB          0.7282  -22.1014  -41.8453 C.3       10 UNK        -0.1800 
     24 N          -1.6108  -21.5814  -42.3638 N.am      10 UNK        -0.5000 
     25 C          -2.8783  -21.8174  -42.7275 C.2       9 UNK         0.5000 
     26 O          -3.2273  -22.8038  -43.3765 O.2       9 UNK        -0.5000 
     27 CA         -3.9228  -20.7593  -42.3231 C.3       9 UNK         0.1400 
     28 CB         -4.4032  -20.9971  -40.8837 C.3       9 UNK        -0.1800 
     29 N          -3.4259  -19.3862  -42.4477 N.am      9 UNK        -0.5000 
     30 C          -3.1652  -18.7842  -43.6166 C.2       8 UNK         0.5000 
     31 O          -3.3190  -19.3266  -44.7098 O.2       8 UNK        -0.5000 
     32 CA         -2.5848  -17.3561  -43.5551 C.3       8 UNK         0.1400 
     33 CB         -3.7119  -16.3277  -43.3808 C.3       8 UNK        -0.1800 
     34 N          -1.5674  -17.1441  -42.5150 N.am      8 UNK        -0.5000 
     35 C          -0.4680  -17.8917  -42.3508 C.2       7 UNK         0.5000 
     36 O          -0.2580  -18.9314  -42.9760 O.2       7 UNK        -0.5000 
     37 CA          0.5558  -17.4327  -41.2950 C.3       7 UNK         0.1400 
     38 CB          0.0896  -17.8395  -39.8885 C.3       7 UNK        -0.1800 
     39 N           1.8618  -18.0455  -41.5519 N.am      7 UNK        -0.5000 
     40 C           2.6583  -17.7218  -42.5786 C.2       6 UNK         0.5000 
     41 O           2.4879  -16.7340  -43.2972 O.2       6 UNK        -0.5000 
     42 CA          3.7881  -18.7182  -42.8954 C.3       6 UNK         0.1400 
     43 CB          3.2959  -19.7649  -43.9099 C.3       6 UNK        -0.1800 
     44 N           4.9556  -18.0504  -43.4609 N.am      6 UNK        -0.5000 
     45 C           5.8439  -17.3209  -42.7738 C.2       5 UNK         0.5000 
     46 O           5.8194  -17.1852  -41.5498 O.2       5 UNK        -0.5000 
     47 CA          6.9520  -16.6337  -43.5987 C.3       5 UNK         0.1400 
     48 CB          8.2276  -17.4904  -43.6064 C.3       5 UNK        -0.1800 
     49 N           6.5383  -16.3782  -44.9823 N.am      5 UNK        -0.5000 
     50 C           5.7004  -15.3971  -45.3392 C.2       4 UNK         0.5000 
     51 O           5.2794  -14.5403  -44.5575 O.2       4 UNK        -0.5000 
     52 CA          5.2244  -15.4096  -46.8013 C.3       4 UNK         0.1400 
     53 CB          4.0314  -16.3675  -46.9637 C.3       4 UNK        -0.1800 
     54 N           4.7988  -14.0725  -47.1980 N.am      4 UNK        -0.5000 
     55 C           5.5697  -13.1475  -47.7811 C.2       3 UNK         0.5000 
     56 O           6.7297  -13.3644  -48.1456 O.2       3 UNK        -0.5000 
     57 CA          4.9340  -11.7518  -47.9965 C.3       3 UNK         0.1400 
     58 CB          5.7267  -10.8905  -48.9973 C.3       3 UNK        -0.1800 
     59 N           3.5323  -11.8039  -48.4323 N.am      3 UNK        -0.5000 
     60 C           2.4808  -12.0726  -47.6494 C.2       2 UNK         0.5000 
     61 O           2.5788  -12.3505  -46.4502 O.2       2 UNK        -0.5000 
     62 CA          1.1013  -12.0742  -48.3225 C.3       2 UNK         0.1400 
     63 CB          0.8858  -13.3586  -49.1418 C.3       2 UNK        -0.1800 
     64 N           0.0947  -11.9979  -47.2732 N.am      2 UNK        -0.5000 
     65 C          -1.0514  -11.3119  -47.3120 C.2       1 UNK         0.5000 
     66 O          -1.4517  -10.7072  -48.3079 O.2       1 UNK        -0.5000 
     67 C          -1.1915  -21.4268  -46.9988 C.2       11 UNK         0.5000 
     68 O          -0.8458  -22.0595  -47.9961 O.2       11 UNK        -0.5000 
     69 N          -2.4536  -21.3825  -46.5424 N.am      12 UNK        -0.5000 
     70 CA         -3.5859  -22.0956  -47.1331 C.3       12 UNK         0.1400 
     71 CB         -4.8771  -21.7525  -46.3745 C.3       12 UNK        -0.1800 
     72 C          -3.3753  -23.6164  -47.1714 C.2       12 UNK         0.5000 
     73 O          -3.6071  -24.2243  -48.2149 O.2       12 UNK        -0.5000 
     74 N          -2.9070  -24.1924  -46.0555 N.am      13 UNK        -0.5000 
     75 CA         -2.5864  -25.6143  -45.9332 C.3       13 UNK         0.1400 
     76 CB         -2.2626  -25.9468  -44.4689 C.3       13 UNK        -0.1800 
     77 C          -1.4418  -26.0534  -46.8656 C.2       13 UNK         0.5000 
     78 O          -1.5676  -27.0811  -47.5319 O.2       13 UNK        -0.5000 
     79 N          -0.3650  -25.2569  -46.9199 N.am      14 UNK        -0.5000 
     80 CA          0.8049  -25.4902  -47.7689 C.3       14 UNK         0.1400 
     81 CB          1.9229  -24.5109  -47.3788 C.3       14 UNK        -0.1800 
     82 C           0.4906  -25.3823  -49.2721 C.2       14 UNK         0.5000 
     83 O           0.9640  -26.2075  -50.0541 O.2       14 UNK        -0.5000 
     84 N          -0.3130  -24.3786  -49.6453 N.am      15 UNK        -0.5000 
     85 CA         -0.7464  -24.1260  -51.0201 C.3       15 UNK         0.1400 
     86 CB         -1.1928  -22.6588  -51.1227 C.3       15 UNK        -0.1800 
     87 C          -1.8881  -25.0471  -51.4914 C.2       15 UNK         0.5000 
     88 O          -2.2061  -25.0428  -52.6826 O.2       15 UNK        -0.5000 
     89 N          -2.5347  -25.7491  -50.5462 N.am      16 UNK        -0.5000 
     90 CA         -3.8032  -26.4766  -50.6928 C.3       16 UNK         0.1400 
     91 CB         -3.6120  -27.7351  -51.5631 C.3       16 UNK        -0.1800 
     92 C          -4.9341  -25.5544  -51.2036 C.2       16 UNK         0.5000 
     93 O          -5.7663  -25.9729  -52.0107 O.2       16 UNK        -0.5000 
     94 N          -4.8789  -24.2851  -50.7709 N.am      17 UNK        -0.5000 
     95 CA         -5.5952  -23.0895  -51.2285 C.3       17 UNK         0.1400 
     96 CB         -7.1014  -23.2001  -50.9367 C.3       17 UNK        -0.1800 
     97 C          -5.3386  -22.7086  -52.7033 C.2       17 UNK         0.5000 
     98 O          -5.0924  -21.5363  -52.9932 O.2       17 UNK        -0.5000 
     99 N          -5.4063  -23.6964  -53.6022 N.am      18 UNK        -0.5000 
    100 CA        -5.3580  -23.5758  -55.0567 C.3       18 UNK         0.1400 
    101 CB        -5.5253  -24.9697  -55.6796 C.3       18 UNK        -0.1800 
    102 C         -4.0981  -22.8885  -55.6058 C.2       18 UNK         0.5000 
    103 O         -4.2240  -22.0273  -56.4769 O.2       18 UNK        -0.5000 
    104 N         -2.9138  -23.2416  -55.0826 N.am      19 UNK        -0.5000 
    105 CA        -1.6329  -22.6967  -55.5541 C.3       19 UNK         0.1400 
    106 CB        -0.4745  -23.5554  -55.0258 C.3       19 UNK        -0.1800 
    107 C         -1.4227  -21.2122  -55.1930 C.2       19 UNK         0.5000 
    108 O         -0.6208  -20.5391  -55.8411 O.2       19 UNK        -0.5000 
    109 N         -2.1579  -20.7281  -54.1845 N.am      20 UNK        -0.5000 
    110 CA        -2.1838  -19.3313  -53.7538 C.3       20 UNK         0.1400 
    111 CB        -2.2886  -19.3070  -52.2206 C.3       20 UNK        -0.1800 
    112 C         -3.3495  -18.5465  -54.3872 C.2       20 UNK         0.5000 
    113 O         -3.4548  -17.3429  -54.1494 O.2       20 UNK        -0.5000 
    114 N         -4.2190  -19.2373  -55.1446 N.am      21 UNK        -0.5000 
    115 CA        -5.5001  -18.7654  -55.6844 C.3       21 UNK         0.1400 
    116 CB        -5.2846  -17.6733  -56.7525 C.3       21 UNK        -0.1800 
    117 C         -6.4920  -18.3462  -54.5750 C.2       21 UNK         0.5000 
    118 O         -7.3015  -17.4385  -54.7738 O.2       21 UNK        -0.5000 
    119 N         -6.3991  -19.0180  -53.4207 N.am      22 UNK        -0.5000 
    120 CA        -7.1965  -18.7663  -52.2131 C.3       22 UNK         0.1400 
    121 C         -8.5591  -19.5247  -52.1946 C.2       22 UNK         0.5000 
    122 N         -8.8343  -20.4213  -53.1352 N.am      22 UNK        -0.7600 
    123 O         -9.3939  -19.2860  -51.3271 O.2       22 UNK        -0.5000 
    124 C124       -6.3401  -19.0474  -50.9486 C.3       23 UNK        -0.0398 
    125 S125       -6.8535  -18.0876  -49.4877 S.3       23 UNK        -0.2404 
    126 C126       -5.6207  -18.6373  -48.2651 C.3       23 UNK        -0.0205 
    127 H127        0.1608  -12.4551  -42.7744 H         1 UNK         0.0600 
    128 H128        1.5869  -11.5183  -43.2290 H         1 UNK         0.0600 
    129 H129        0.3743  -10.8166  -42.1502 H         1 UNK         0.0600 
    130 H130       -1.3015  -12.5817  -44.4585 H         1 UNK         0.3000 
    131 H131       -2.2292  -10.2614  -45.8902 H         1 UNK         0.0600 
    132 H132       -3.7433  -11.8685  -47.0396 H         1 UNK         0.0800 
    133 H133       -3.8327  -11.9566  -45.3123 H         1 UNK         0.0800 
    134 H134       -3.9453  -13.8743  -48.3341 H         1 UNK         0.0800 
    135 H135       -2.2050  -13.8541  -48.4939 H         1 UNK         0.0800 
    136 H136       -5.1595  -15.9934  -47.8574 H         1 UNK         0.1150 
    137 H137       -3.1486  -19.6232  -48.9201 H         1 UNK         0.1150 
    138 H138       -0.9380  -15.9650  -48.6053 H         1 UNK         0.1150 
    139 H139       -0.8388  -19.6710  -49.3754 H         1 UNK         0.0800 
    140 H140       -0.2164  -18.1979  -50.0658 H         1 UNK         0.0800 
    141 H141        0.2935  -18.6536  -45.5343 H         1 UNK         0.0800 
    142 H142       -1.2309  -18.7869  -46.3418 H         1 UNK         0.0800 
    143 H143        0.8539  -21.0338  -46.4939 H         1 UNK         0.0600 
    144 H144       -0.4185  -20.2794  -44.1045 H         1 UNK         0.3000 
    145 H145       -0.7500  -23.4690  -42.5687 H         1 UNK         0.0600 
    146 H146        0.5232  -22.3626  -40.8071 H         1 UNK         0.0600 
    147 H147        1.6102  -22.6642  -42.1539 H         1 UNK         0.0600 
    148 H148        0.9831  -21.0430  -41.8745 H         1 UNK         0.0600 
    149 H149       -1.3937  -20.7105  -41.9015 H         1 UNK         0.3000 
    150 H150       -4.7806  -20.8716  -42.9897 H         1 UNK         0.0600 
    151 H151       -4.7954  -22.0082  -40.7657 H         1 UNK         0.0600 
    152 H152       -5.2030  -20.3064  -40.6161 H         1 UNK         0.0600 
    153 H153       -3.5951  -20.8719  -40.1620 H         1 UNK         0.0600 
    154 H154       -3.2590  -18.8764  -41.5928 H         1 UNK         0.3000 
    155 H155       -2.1026  -17.1634  -44.5159 H         1 UNK         0.0600 
    156 H156       -3.3273  -15.3086  -43.4186 H         1 UNK         0.0600 
    157 H157       -4.2316  -16.4549  -42.4304 H         1 UNK         0.0600 
    158 H158       -4.4515  -16.4224  -44.1774 H         1 UNK         0.0600 
    159 H159       -1.6830  -16.3201  -41.9432 H         1 UNK         0.3000 
    160 H160        0.6538  -16.3462  -41.3437 H         1 UNK         0.0600 
    161 H161        0.8056  -17.5228  -39.1297 H         1 UNK         0.0600 
    162 H162       -0.0354  -18.9198  -39.8013 H         1 UNK         0.0600 
    163 H163       -0.8670  -17.3774  -39.6418 H         1 UNK         0.0600 
    164 H164        2.0606  -18.8882  -41.0341 H         1 UNK         0.3000 
    165 H165        4.0845  -19.2283  -41.9763 H         1 UNK         0.0600 
    166 H166        4.0653  -20.5085  -44.1177 H         1 UNK         0.0600 
    167 H167        2.4236  -20.2983  -43.5350 H         1 UNK         0.0600 
    168 H168        3.0078  -19.3046  -44.8564 H         1 UNK         0.0600 
    169 H169        5.0362  -18.0696  -44.4652 H         1 UNK         0.3000 
    170 H170        7.1847  -15.6817  -43.1164 H         1 UNK         0.0600 
    171 H171        8.5770  -17.6786  -42.5902 H         1 UNK         0.0600 
    172 H172        8.0612  -18.4585  -44.0805 H         1 UNK         0.0600 
    173 H173        9.0362  -16.9893  -44.1389 H         1 UNK         0.0600 
    174 H174        6.8616  -17.0333  -45.6801 H         1 UNK         0.3000 
    175 H175        6.0404  -15.7493  -47.4427 H         1 UNK         0.0600 
    176 H176        3.2023  -16.0950  -46.3082 H         1 UNK         0.0600 
    177 H177        3.6595  -16.3656  -47.9886 H         1 UNK         0.0600 
    178 H178        4.3130  -17.3935  -46.7246 H         1 UNK         0.0600 
    179 H179        3.9008  -13.7634  -46.8363 H         1 UNK         0.3000 
    180 H180        4.9708  -11.2449  -47.0296 H         1 UNK         0.0600 
    181 H181        5.7558  -11.3491  -49.9868 H         1 UNK         0.0600 
    182 H182        6.7574  -10.7506  -48.6679 H         1 UNK         0.0600 
    183 H183        5.2865   -9.8982  -49.0993 H         1 UNK         0.0600 
    184 H184        3.3722  -11.6317  -49.4147 H         1 UNK         0.3000 
    185 H185        1.0350  -11.2006  -48.9744 H         1 UNK         0.0600 
    186 H186        1.6379  -13.4583  -49.9254 H         1 UNK         0.0600 
    187 H187        0.9445  -14.2493  -48.5145 H         1 UNK         0.0600 
    188 H188       -0.0889  -13.3553  -49.6297 H         1 UNK         0.0600 
    189 H189        0.3875  -12.4008  -46.3919 H         1 UNK         0.3000 
    190 H190       -2.6648  -20.7954  -45.7395 H         1 UNK         0.3000 
    191 H191       -3.6914  -21.7507  -48.1628 H         1 UNK         0.0600 
    192 H192       -5.7482  -22.1669  -46.8832 H         1 UNK         0.0600 
    193 H193       -5.0233  -20.6765  -46.2977 H         1 UNK         0.0600 
    194 H194       -4.8709  -22.1515  -45.3605 H         1 UNK         0.0600 
    195 H195       -2.7796  -23.6215  -45.2267 H         1 UNK         0.3000 
    196 H196       -3.4776  -26.1780  -46.2169 H         1 UNK         0.0600 
    197 H197       -2.0552  -27.0106  -44.3470 H         1 UNK         0.0600 
    198 H198       -3.0995  -25.7010  -43.8149 H         1 UNK         0.0600 
    199 H199       -1.3897  -25.3994  -44.1134 H         1 UNK         0.0600 
    200 H200       -0.3241  -24.4450  -46.3084 H         1 UNK         0.3000 
    201 H201        1.1605  -26.5045  -47.5765 H         1 UNK         0.0600 
    202 H202        2.2178  -24.6450  -46.3379 H         1 UNK         0.0600 
    203 H203        1.6110  -23.4734  -47.5057 H         1 UNK         0.0600 
    204 H204        2.8117  -24.6657  -47.9916 H         1 UNK         0.0600 
    205 H205       -0.6150  -23.7043  -48.9456 H         1 UNK         0.3000 
    206 H206        0.1010  -24.2788  -51.6910 H         1 UNK         0.0600 
    207 H207       -0.3794  -21.9799  -50.8662 H         1 UNK         0.0600 
    208 H208       -1.5134  -22.4147  -52.1337 H         1 UNK         0.0600 
    209 H209       -2.0304  -22.4452  -50.4572 H         1 UNK         0.0600 
    210 H210       -2.2100  -25.6442  -49.5939 H         1 UNK         0.3000 
    211 H211       -4.0934  -26.7988  -49.6918 H         1 UNK         0.0600 
    212 H212       -3.3780  -27.4815  -52.5975 H         1 UNK         0.0600 
    213 H213       -4.5164  -28.3445  -51.5724 H         1 UNK         0.0600 
    214 H214       -2.8046  -28.3588  -51.1797 H         1 UNK         0.0600 
    215 H215       -4.1945  -24.1131  -50.0393 H         1 UNK         0.3000 
    216 H216       -5.2019  -22.2701  -50.6253 H         1 UNK         0.0600 
    217 H217       -7.5686  -24.0065  -51.5024 H         1 UNK         0.0600 
    218 H218       -7.6195  -22.2776  -51.1984 H         1 UNK         0.0600 
    219 H219       -7.2833  -23.3846  -49.8779 H         1 UNK         0.0600 
    220 H220       -5.5906  -24.6269  -53.2341 H         1 UNK         0.3000 
    221 H221       -6.2146  -22.9678  -55.3545 H         1 UNK         0.0600 
    222 H222       -4.7275  -25.6459  -55.3691 H         1 UNK         0.0600 
    223 H223       -6.4753  -25.4192  -55.3895 H         1 UNK         0.0600 
    224 H224       -5.5097  -24.9182  -56.7691 H         1 UNK         0.0600 
    225 H225       -2.8749  -23.9379  -54.3444 H         1 UNK         0.3000 
    226 H226       -1.6240  -22.7666  -56.6440 H         1 UNK         0.0600 
    227 H227       -0.6180  -24.6087  -55.2675 H         1 UNK         0.0600 
    228 H228        0.4721  -23.2454  -55.4700 H         1 UNK         0.0600 
    229 H229       -0.3679  -23.4693  -53.9461 H         1 UNK         0.0600 
    230 H230       -2.8188  -21.3459  -53.7327 H         1 UNK         0.3000 
    231 H231       -1.2574  -18.8296  -54.0405 H         1 UNK         0.0600 
    232 H232       -3.1801  -19.8250  -51.8662 H         1 UNK         0.0600 
    233 H233       -2.3291  -18.2849  -51.8417 H         1 UNK         0.0600 
    234 H234       -1.4216  -19.7855  -51.7675 H         1 UNK         0.0600 
    235 H235       -4.0249  -20.2172  -55.3103 H         1 UNK         0.3000 
    236 H236       -5.9514  -19.6251  -56.1817 H         1 UNK         0.0600 
    237 H237       -4.5790  -18.0028  -57.5152 H         1 UNK         0.0600 
    238 H238       -6.2198  -17.4333  -57.2594 H         1 UNK         0.0600 
    239 H239       -4.9031  -16.7488  -56.3185 H         1 UNK         0.0600 
    240 H240       -5.7469  -19.7954  -53.3599 H         1 UNK         0.3000 
    241 H241       -7.4477  -17.7040  -52.2088 H         1 UNK         0.0600 
    242 H242       -8.1707  -20.6154  -53.8667 H         1 UNK         0.3800 
    243 H243       -9.7237  -20.8951  -53.1230 H         1 UNK         0.3800 
    244 H244       -6.3396  -20.1099  -50.7047 H         1 UNK         0.0800 
    245 H245       -5.2990  -18.7820  -51.1391 H         1 UNK         0.0800 
    246 H246       -5.4718  -19.7117  -48.3711 H         1 UNK         0.0800 
    247 H247       -6.0226  -18.4784  -47.2634 H         1 UNK         0.0800 
@<TRIPOS>BOND
     1    1    2 1    
     2    1  127 1    
     3    1  128 1    
     4    1  129 1    
     5    2    3 2    
     6    2    4 am   BACKBONE|DICT|INTERRES
     7    4    5 1    
     8    4  130 1    
     9    5    6 1    
    10    5   65 1    
    11    5  131 1    
    12    6    7 1    
    13    6  132 1    
    14    6  133 1    
    15    7    8 1    
    16    8    9 1    
    17    8  134 1    
    18    8  135 1    
    19    9   10 ar   
    20    9   14 ar   
    21   10   11 ar   
    22   10  136 1    
    23   11   12 ar   
    24   11  126 1    
    25   12   13 ar   
    26   12  137 1    
    27   13   14 ar   
    28   13   15 1    
    29   14  138 1    
    30   15   16 1    
    31   15  139 1    
    32   15  140 1    
    33   16   17 1    
    34   17   18 1    
    35   17  141 1    
    36   17  142 1    
    37   18   19 1    
    38   18   67 1    
    39   18  143 1    
    40   19   20 am   BACKBONE|DICT|INTERRES
    41   19  144 1    
    42   20   21 2    
    43   20   22 1    
    44   22   23 1    
    45   22   24 1    
    46   22  145 1    
    47   23  146 1    
    48   23  147 1    
    49   23  148 1    
    50   24   25 am   BACKBONE|DICT|INTERRES
    51   24  149 1    
    52   25   26 2    
    53   25   27 1    
    54   27   28 1    
    55   27   29 1    
    56   27  150 1    
    57   28  151 1    
    58   28  152 1    
    59   28  153 1    
    60   29   30 am   BACKBONE|DICT|INTERRES
    61   29  154 1    
    62   30   31 2    
    63   30   32 1    
    64   32   33 1    
    65   32   34 1    
    66   32  155 1    
    67   33  156 1    
    68   33  157 1    
    69   33  158 1    
    70   34   35 am   BACKBONE|DICT|INTERRES
    71   34  159 1    
    72   35   36 2    
    73   35   37 1    
    74   37   38 1    
    75   37   39 1    
    76   37  160 1    
    77   38  161 1    
    78   38  162 1    
    79   38  163 1    
    80   39   40 am   BACKBONE|DICT|INTERRES
    81   39  164 1    
    82   40   41 2    
    83   40   42 1    
    84   42   43 1    
    85   42   44 1    
    86   42  165 1    
    87   43  166 1    
    88   43  167 1    
    89   43  168 1    
    90   44   45 am   BACKBONE|DICT|INTERRES
    91   44  169 1    
    92   45   46 2    
    93   45   47 1    
    94   47   48 1    
    95   47   49 1    
    96   47  170 1    
    97   48  171 1    
    98   48  172 1    
    99   48  173 1    
   100   49   50 am   BACKBONE|DICT|INTERRES
   101   49  174 1    
   102   50   51 2    
   103   50   52 1    
   104   52   53 1    
   105   52   54 1    
   106   52  175 1    
   107   53  176 1    
   108   53  177 1    
   109   53  178 1    
   110   54   55 am   BACKBONE|DICT|INTERRES
   111   54  179 1    
   112   55   56 2    
   113   55   57 1    
   114   57   58 1    
   115   57   59 1    
   116   57  180 1    
   117   58  181 1    
   118   58  182 1    
   119   58  183 1    
   120   59   60 am   BACKBONE|DICT|INTERRES
   121   59  184 1    
   122   60   61 2    
   123   60   62 1    
   124   62   63 1    
   125   62   64 1    
   126   62  185 1    
   127   63  186 1    
   128   63  187 1    
   129   63  188 1    
   130   64   65 am   BACKBONE|DICT|INTERRES
   131   64  189 1    
   132   65   66 2    
   133   67   68 2    
   134   67   69 am   BACKBONE|DICT|INTERRES
   135   69   70 1    
   136   69  190 1    
   137   70   71 1    
   138   70   72 1    
   139   70  191 1    
   140   71  192 1    
   141   71  193 1    
   142   71  194 1    
   143   72   73 2    
   144   72   74 am   BACKBONE|DICT|INTERRES
   145   74   75 1    
   146   74  195 1    
   147   75   76 1    
   148   75   77 1    
   149   75  196 1    
   150   76  197 1    
   151   76  198 1    
   152   76  199 1    
   153   77   78 2    
   154   77   79 am   BACKBONE|DICT|INTERRES
   155   79   80 1    
   156   79  200 1    
   157   80   81 1    
   158   80   82 1    
   159   80  201 1    
   160   81  202 1    
   161   81  203 1    
   162   81  204 1    
   163   82   83 2    
   164   82   84 am   BACKBONE|DICT|INTERRES
   165   84   85 1    
   166   84  205 1    
   167   85   86 1    
   168   85   87 1    
   169   85  206 1    
   170   86  207 1    
   171   86  208 1    
   172   86  209 1    
   173   87   88 2    
   174   87   89 am   BACKBONE|DICT|INTERRES
   175   89   90 1    
   176   89  210 1    
   177   90   91 1    
   178   90   92 1    
   179   90  211 1    
   180   91  212 1    
   181   91  213 1    
   182   91  214 1    
   183   92   93 2    
   184   92   94 am   BACKBONE|DICT|INTERRES
   185   94   95 1    
   186   94  215 1    
   187   95   96 1    
   188   95   97 1    
   189   95  216 1    
   190   96  217 1    
   191   96  218 1    
   192   96  219 1    
   193   97   98 2    
   194   97   99 am   BACKBONE|DICT|INTERRES
   195   99  100 1    
   196   99  220 1    
   197  100  101 1    
   198  100  102 1    
   199  100  221 1    
   200  101  222 1    
   201  101  223 1    
   202  101  224 1    
   203  102  103 2    
   204  102  104 am   BACKBONE|DICT|INTERRES
   205  104  105 1    
   206  104  225 1    
   207  105  106 1    
   208  105  107 1    
   209  105  226 1    
   210  106  227 1    
   211  106  228 1    
   212  106  229 1    
   213  107  108 2    
   214  107  109 am   BACKBONE|DICT|INTERRES
   215  109  110 1    
   216  109  230 1    
   217  110  111 1    
   218  110  112 1    
   219  110  231 1    
   220  111  232 1    
   221  111  233 1    
   222  111  234 1    
   223  112  113 2    
   224  112  114 am   BACKBONE|DICT|INTERRES
   225  114  115 1    
   226  114  235 1    
   227  115  116 1    
   228  115  117 1    
   229  115  236 1    
   230  116  237 1    
   231  116  238 1    
   232  116  239 1    
   233  117  118 2    
   234  117  119 am   BACKBONE|DICT|INTERRES
   235  119  120 1    
   236  119  240 1    
   237  120  121 1    
   238  120  124 1    
   239  120  241 1    
   240  121  122 am   BACKBONE|DICT|INTERRES
   241  121  123 2    
   242  122  242 1    
   243  122  243 1    
   244  124  125 1    
   245  124  244 1    
   246  124  245 1    
   247  125  126 1    
   248  126  246 1    
   249  126  247 1    
@<TRIPOS>SUBSTRUCTURE
     1 UNK         1 GROUP             0       ****    0 ROOT    
