@<TRIPOS>MOLECULE
3R540
247   249    1
SMALL
USER_CHARGES


@<TRIPOS>ATOM
      1 CA          6.1907  -14.6508  -42.1341 C.3       0 UNK        -0.1800 
      2 C           4.8858  -14.2464  -42.8059 C.2       0 UNK         0.5000 
      3 O           3.8601  -14.1331  -42.1341 O.2       0 UNK        -0.5000 
      4 N           4.9196  -14.0383  -44.1272 N.am      1 UNK        -0.5000 
      5 CA          3.7792  -13.6044  -44.9417 C.3       1 UNK         0.1400 
      6 C6          4.0403  -13.7689  -46.4607 C.3       23 UNK        -0.0398 
      7 S7          4.6421  -15.4300  -46.9101 S.3       23 UNK        -0.2404 
      8 C8          4.2719  -15.5061  -48.6949 C.3       23 UNK        -0.0205 
      9 C9          3.3213  -16.6480  -49.0276 C.ar      23 UNK        -0.0193 
     10 C10         2.1308  -16.4067  -49.7195 C.ar      23 UNK        -0.1150 
     11 C11         1.2547  -17.4535  -50.0289 C.ar      23 UNK        -0.0193 
     12 C12         1.5817  -18.7561  -49.6242 C.ar      23 UNK        -0.1150 
     13 C13         2.7674  -19.0090  -48.9308 C.ar      23 UNK        -0.0193 
     14 C14         3.6378  -17.9552  -48.6499 C.ar      23 UNK        -0.1150 
     15 C15         3.1312  -20.4184  -48.4981 C.3       23 UNK        -0.0205 
     16 S16         2.8139  -20.6746  -46.7224 S.3       23 UNK        -0.2404 
     17 C17         3.8231  -22.1691  -46.4213 C.3       23 UNK        -0.0398 
     18 CA          3.0370  -23.4956  -46.2880 C.3       11 UNK         0.1400 
     19 N           2.1754  -23.5250  -45.1013 N.am      11 UNK        -0.5000 
     20 C           1.9328  -24.6373  -44.3926 C.2       10 UNK         0.5000 
     21 O           2.4115  -25.7394  -44.6621 O.2       10 UNK        -0.5000 
     22 CA          0.9813  -24.5083  -43.1889 C.3       10 UNK         0.1400 
     23 CB          1.7275  -23.9507  -41.9670 C.3       10 UNK        -0.1800 
     24 N          -0.1961  -23.6809  -43.4514 N.am      10 UNK        -0.5000 
     25 C          -1.1164  -23.9178  -44.3966 C.2       9 UNK         0.5000 
     26 O          -1.0554  -24.8540  -45.1913 O.2       9 UNK        -0.5000 
     27 CA         -2.3006  -22.9378  -44.4838 C.3       9 UNK         0.1400 
     28 CB         -3.5372  -23.5243  -43.7871 C.3       9 UNK        -0.1800 
     29 N          -2.0185  -21.6149  -43.9215 N.am      9 UNK        -0.5000 
     30 C          -1.1373  -20.7400  -44.4225 C.2       8 UNK         0.5000 
     31 O          -0.4492  -20.9535  -45.4236 O.2       8 UNK        -0.5000 
     32 CA         -0.9821  -19.4315  -43.6390 C.3       8 UNK         0.1400 
     33 CB         -0.0982  -19.6426  -42.3967 C.3       8 UNK        -0.1800 
     34 N          -0.3836  -18.4089  -44.4895 N.am      8 UNK        -0.5000 
     35 C          -0.6335  -17.0976  -44.3997 C.2       7 UNK         0.5000 
     36 O          -1.4246  -16.6122  -43.5883 O.2       7 UNK        -0.5000 
     37 CA          0.1295  -16.1533  -45.3426 C.3       7 UNK         0.1400 
     38 CB          1.0873  -16.8519  -46.3223 C.3       7 UNK        -0.1800 
     39 N          -0.8313  -15.3459  -46.0858 N.am      7 UNK        -0.5000 
     40 C          -0.6983  -14.0458  -46.3568 C.2       6 UNK         0.5000 
     41 O           0.2870  -13.3748  -46.0422 O.2       6 UNK        -0.5000 
     42 CA         -1.8587  -13.3895  -47.1166 C.3       6 UNK         0.1400 
     43 CB         -2.1830  -11.9812  -46.5866 C.3       6 UNK        -0.1800 
     44 N          -1.5343  -13.3283  -48.5404 N.am      6 UNK        -0.5000 
     45 C          -2.4501  -13.3757  -49.5198 C.2       5 UNK         0.5000 
     46 O          -3.6582  -13.4644  -49.2983 O.2       5 UNK        -0.5000 
     47 CA         -1.9547  -13.3037  -50.9804 C.3       5 UNK         0.1400 
     48 CB         -2.9512  -12.5728  -51.8991 C.3       5 UNK        -0.1800 
     49 N          -0.6617  -12.6296  -51.0682 N.am      5 UNK        -0.5000 
     50 C           0.4457  -13.1158  -51.6416 C.2       4 UNK         0.5000 
     51 O           0.4949  -14.1955  -52.2289 O.2       4 UNK        -0.5000 
     52 CA          1.7261  -12.2557  -51.5374 C.3       4 UNK         0.1400 
     53 CB          2.0641  -11.6281  -52.8987 C.3       4 UNK        -0.1800 
     54 N           1.6616  -11.1893  -50.5293 N.am      4 UNK        -0.5000 
     55 C           1.5267  -11.3903  -49.2130 C.2       3 UNK         0.5000 
     56 O           1.4518  -12.5120  -48.7064 O.2       3 UNK        -0.5000 
     57 CA          1.3809  -10.1371  -48.3377 C.3       3 UNK         0.1400 
     58 CB          0.0804   -9.3783  -48.6739 C.3       3 UNK        -0.1800 
     59 N           1.3807  -10.5490  -46.9389 N.am      3 UNK        -0.5000 
     60 C           1.5898   -9.7601  -45.8781 C.2       2 UNK         0.5000 
     61 O           1.7745   -8.5448  -45.9529 O.2       2 UNK        -0.5000 
     62 CA          1.6273  -10.4489  -44.5014 C.3       2 UNK         0.1400 
     63 CB          0.2337  -10.4695  -43.8563 C.3       2 UNK        -0.1800 
     64 N           2.1302  -11.8181  -44.6078 N.am      2 UNK        -0.5000 
     65 C           3.4282  -12.1356  -44.6293 C.2       1 UNK         0.5000 
     66 O           4.3346  -11.3166  -44.4526 O.2       1 UNK        -0.5000 
     67 C           2.2660  -23.8647  -47.5729 C.2       11 UNK         0.5000 
     68 O           2.8691  -24.3968  -48.5056 O.2       11 UNK        -0.5000 
     69 N           0.9529  -23.5913  -47.5985 N.am      12 UNK        -0.5000 
     70 CA          0.0546  -23.9322  -48.7039 C.3       12 UNK         0.1400 
     71 CB         -1.2299  -23.1046  -48.5696 C.3       12 UNK        -0.1800 
     72 C          -0.2666  -25.4398  -48.7732 C.2       12 UNK         0.5000 
     73 O          -0.5895  -25.9402  -49.8514 O.2       12 UNK        -0.5000 
     74 N          -0.1628  -26.1308  -47.6284 N.am      13 UNK        -0.5000 
     75 CA         -0.3275  -27.5704  -47.4308 C.3       13 UNK         0.1400 
     76 CB          0.8331  -28.3404  -48.1003 C.3       13 UNK        -0.1800 
     77 C          -1.7335  -28.0435  -47.8480 C.2       13 UNK         0.5000 
     78 O          -2.7161  -27.5890  -47.2603 O.2       13 UNK        -0.5000 
     79 N          -1.8159  -28.9223  -48.8565 N.am      14 UNK        -0.5000 
     80 CA         -3.0493  -29.5206  -49.3771 C.3       14 UNK         0.1400 
     81 CB         -2.6820  -30.5573  -50.4498 C.3       14 UNK        -0.1800 
     82 C          -4.0728  -28.5098  -49.9340 C.2       14 UNK         0.5000 
     83 O          -5.2637  -28.8213  -49.9705 O.2       14 UNK        -0.5000 
     84 N          -3.6068  -27.3186  -50.3367 N.am      15 UNK        -0.5000 
     85 CA         -4.4555  -26.2095  -50.7756 C.3       15 UNK         0.1400 
     86 CB         -3.6071  -25.2312  -51.5994 C.3       15 UNK        -0.1800 
     87 C          -5.1552  -25.4776  -49.6106 C.2       15 UNK         0.5000 
     88 O          -6.0999  -24.7255  -49.8589 O.2       15 UNK        -0.5000 
     89 N          -4.6719  -25.6883  -48.3733 N.am      16 UNK        -0.5000 
     90 CA         -5.2141  -25.1985  -47.0987 C.3       16 UNK         0.1400 
     91 CB         -6.5225  -25.9440  -46.7681 C.3       16 UNK        -0.1800 
     92 C          -5.3780  -23.6652  -47.0264 C.2       16 UNK         0.5000 
     93 O          -6.2851  -23.1734  -46.3546 O.2       16 UNK        -0.5000 
     94 N          -4.5279  -22.9422  -47.7701 N.am      17 UNK        -0.5000 
     95 CA         -4.5278  -21.4993  -48.0513 C.3       17 UNK         0.1400 
     96 CB         -4.3474  -20.6575  -46.7757 C.3       17 UNK        -0.1800 
     97 C          -5.7299  -21.0037  -48.8786 C.2       17 UNK         0.5000 
     98 O          -5.5502  -20.1145  -49.7096 O.2       17 UNK        -0.5000 
     99 N          -6.9143  -21.5862  -48.6655 N.am      18 UNK        -0.5000 
    100 CA        -8.1738  -21.2516  -49.3252 C.3       18 UNK         0.1400 
    101 CB        -9.3054  -22.0790  -48.6968 C.3       18 UNK        -0.1800 
    102 C         -8.1395  -21.4451  -50.8507 C.2       18 UNK         0.5000 
    103 O         -8.5570  -20.5449  -51.5799 O.2       18 UNK        -0.5000 
    104 N         -7.6210  -22.5933  -51.3112 N.am      19 UNK        -0.5000 
    105 CA        -7.5120  -22.9088  -52.7396 C.3       19 UNK         0.1400 
    106 CB        -7.4414  -24.4311  -52.9292 C.3       19 UNK        -0.1800 
    107 C         -6.3088  -22.2173  -53.4076 C.2       19 UNK         0.5000 
    108 O         -6.3246  -22.0133  -54.6218 O.2       19 UNK        -0.5000 
    109 N         -5.2960  -21.8602  -52.6062 N.am      20 UNK        -0.5000 
    110 CA        -4.1064  -21.1279  -53.0444 C.3       20 UNK         0.1400 
    111 CB        -2.9576  -21.4195  -52.0659 C.3       20 UNK        -0.1800 
    112 C         -4.3460  -19.6084  -53.1558 C.2       20 UNK         0.5000 
    113 O         -3.5591  -18.9269  -53.8130 O.2       20 UNK        -0.5000 
    114 N         -5.4131  -19.1157  -52.5070 N.am      21 UNK        -0.5000 
    115 CA        -5.7673  -17.7083  -52.3007 C.3       21 UNK         0.1400 
    116 CB        -6.0608  -16.9945  -53.6372 C.3       21 UNK        -0.1800 
    117 C         -4.7263  -16.9805  -51.4237 C.2       21 UNK         0.5000 
    118 O         -4.3215  -15.8604  -51.7372 O.2       21 UNK        -0.5000 
    119 N         -4.3143  -17.6511  -50.3411 N.am      22 UNK        -0.5000 
    120 CA        -3.3128  -17.1865  -49.3665 C.3       22 UNK         0.1400 
    121 C         -3.9155  -16.8915  -47.9637 C.2       22 UNK         0.5000 
    122 N         -5.2288  -16.9371  -47.7772 N.am      22 UNK        -0.7600 
    123 O         -3.1780  -16.6133  -47.0229 O.2       22 UNK        -0.5000 
    124 C124       -2.1060  -18.1570  -49.2659 C.3       23 UNK        -0.0398 
    125 S125       -1.2890  -18.4191  -50.8733 S.3       23 UNK        -0.2404 
    126 C126       -0.0011  -17.1280  -50.8380 C.3       23 UNK        -0.0205 
    127 H127        6.0777  -15.6194  -41.6471 H         1 UNK         0.0600 
    128 H128        7.0098  -14.7239  -42.8500 H         1 UNK         0.0600 
    129 H129        6.4657  -13.9168  -41.3766 H         1 UNK         0.0600 
    130 H130        5.7918  -14.1416  -44.6253 H         1 UNK         0.3000 
    131 H131        2.9244  -14.2305  -44.6763 H         1 UNK         0.0600 
    132 H132        4.7721  -13.0408  -46.8160 H         1 UNK         0.0800 
    133 H133        3.1171  -13.5769  -47.0088 H         1 UNK         0.0800 
    134 H134        3.8663  -14.5530  -49.0385 H         1 UNK         0.0800 
    135 H135        5.2042  -15.6558  -49.2405 H         1 UNK         0.0800 
    136 H136        1.8863  -15.3988  -50.0247 H         1 UNK         0.1150 
    137 H137        0.9280  -19.5846  -49.8527 H         1 UNK         0.1150 
    138 H138        4.5578  -18.1512  -48.1172 H         1 UNK         0.1150 
    139 H139        2.5718  -21.1561  -49.0756 H         1 UNK         0.0800 
    140 H140        4.1860  -20.5878  -48.7188 H         1 UNK         0.0800 
    141 H141        4.5785  -22.2678  -47.2022 H         1 UNK         0.0800 
    142 H142        4.3893  -21.9987  -45.5047 H         1 UNK         0.0800 
    143 H143        3.7968  -24.2717  -46.1692 H         1 UNK         0.0600 
    144 H144        1.7352  -22.6549  -44.8357 H         1 UNK         0.3000 
    145 H145        0.6274  -25.5115  -42.9424 H         1 UNK         0.0600 
    146 H146        1.0917  -23.9531  -41.0814 H         1 UNK         0.0600 
    147 H147        2.6056  -24.5553  -41.7359 H         1 UNK         0.0600 
    148 H148        2.0675  -22.9278  -42.1337 H         1 UNK         0.0600 
    149 H149       -0.3332  -22.8861  -42.8457 H         1 UNK         0.3000 
    150 H150       -2.5351  -22.8161  -45.5410 H         1 UNK         0.0600 
    151 H151       -3.7727  -24.5169  -44.1725 H         1 UNK         0.0600 
    152 H152       -4.4147  -22.8979  -43.9501 H         1 UNK         0.0600 
    153 H153       -3.3858  -23.6198  -42.7113 H         1 UNK         0.0600 
    154 H154       -2.5375  -21.3646  -43.0918 H         1 UNK         0.3000 
    155 H155       -1.9789  -19.1126  -43.3264 H         1 UNK         0.0600 
    156 H156       -0.0014  -18.7220  -41.8209 H         1 UNK         0.0600 
    157 H157        0.9052  -19.9720  -42.6702 H         1 UNK         0.0600 
    158 H158       -0.5225  -20.3949  -41.7309 H         1 UNK         0.0600 
    159 H159        0.2239  -18.7647  -45.2174 H         1 UNK         0.3000 
    160 H160        0.7253  -15.5083  -44.6938 H         1 UNK         0.0600 
    161 H161        1.6108  -16.1093  -46.9219 H         1 UNK         0.0600 
    162 H162        0.5620  -17.5200  -47.0051 H         1 UNK         0.0600 
    163 H163        1.8493  -17.4312  -45.7994 H         1 UNK         0.0600 
    164 H164       -1.6943  -15.8215  -46.3495 H         1 UNK         0.3000 
    165 H165       -2.7457  -14.0079  -46.9679 H         1 UNK         0.0600 
    166 H166       -1.3390  -11.3023  -46.6970 H         1 UNK         0.0600 
    167 H167       -3.0325  -11.5457  -47.1125 H         1 UNK         0.0600 
    168 H168       -2.4420  -12.0171  -45.5281 H         1 UNK         0.0600 
    169 H169       -0.5452  -13.2739  -48.7624 H         1 UNK         0.3000 
    170 H170       -1.8702  -14.3358  -51.3258 H         1 UNK         0.0600 
    171 H171       -3.9179  -13.0776  -51.9135 H         1 UNK         0.0600 
    172 H172       -3.1190  -11.5458  -51.5731 H         1 UNK         0.0600 
    173 H173       -2.5894  -12.5447  -52.9270 H         1 UNK         0.0600 
    174 H174       -0.6008  -11.7311  -50.6125 H         1 UNK         0.3000 
    175 H175        2.5403  -12.9281  -51.2589 H         1 UNK         0.0600 
    176 H176        1.2915  -10.9292  -53.2215 H         1 UNK         0.0600 
    177 H177        3.0116  -11.0902  -52.8617 H         1 UNK         0.0600 
    178 H178        2.1577  -12.3932  -53.6707 H         1 UNK         0.0600 
    179 H179        1.7058  -10.2427  -50.8789 H         1 UNK         0.3000 
    180 H180        2.2436   -9.4926  -48.5168 H         1 UNK         0.0600 
    181 H181       -0.7972  -10.0182  -48.5807 H         1 UNK         0.0600 
    182 H182        0.0985   -8.9970  -49.6952 H         1 UNK         0.0600 
    183 H183       -0.0642   -8.5189  -48.0195 H         1 UNK         0.0600 
    184 H184        1.2498  -11.5476  -46.8037 H         1 UNK         0.3000 
    185 H185        2.2862   -9.8659  -43.8543 H         1 UNK         0.0600 
    186 H186       -0.1840   -9.4639  -43.7925 H         1 UNK         0.0600 
    187 H187       -0.4646  -11.0820  -44.4246 H         1 UNK         0.0600 
    188 H188        0.2775  -10.8690  -42.8430 H         1 UNK         0.0600 
    189 H189        1.4428  -12.5260  -44.8578 H         1 UNK         0.3000 
    190 H190        0.5403  -23.1305  -46.8000 H         1 UNK         0.3000 
    191 H191        0.5412  -23.6539  -49.6411 H         1 UNK         0.0600 
    192 H192       -1.8908  -23.2676  -49.4206 H         1 UNK         0.0600 
    193 H193       -1.0110  -22.0369  -48.5282 H         1 UNK         0.0600 
    194 H194       -1.7735  -23.3714  -47.6648 H         1 UNK         0.0600 
    195 H195       -0.0373  -25.5984  -46.7742 H         1 UNK         0.3000 
    196 H196       -0.2584  -27.7399  -46.3553 H         1 UNK         0.0600 
    197 H197        0.7667  -29.4101  -47.8976 H         1 UNK         0.0600 
    198 H198        1.7938  -28.0022  -47.7113 H         1 UNK         0.0600 
    199 H199        0.8531  -28.2035  -49.1821 H         1 UNK         0.0600 
    200 H200       -0.9572  -29.2151  -49.2996 H         1 UNK         0.3000 
    201 H201       -3.5330  -30.0427  -48.5491 H         1 UNK         0.0600 
    202 H202       -2.0370  -31.3362  -50.0428 H         1 UNK         0.0600 
    203 H203       -2.1642  -30.0968  -51.2923 H         1 UNK         0.0600 
    204 H204       -3.5737  -31.0488  -50.8415 H         1 UNK         0.0600 
    205 H205       -2.6126  -27.1369  -50.2736 H         1 UNK         0.3000 
    206 H206       -5.2379  -26.6078  -51.4247 H         1 UNK         0.0600 
    207 H207       -3.1621  -25.7260  -52.4627 H         1 UNK         0.0600 
    208 H208       -4.2136  -24.4091  -51.9772 H         1 UNK         0.0600 
    209 H209       -2.7992  -24.8019  -51.0082 H         1 UNK         0.0600 
    210 H210       -3.8985  -26.3384  -48.2705 H         1 UNK         0.3000 
    211 H211       -4.4796  -25.4617  -46.3367 H         1 UNK         0.0600 
    212 H212       -7.3193  -25.6873  -47.4672 H         1 UNK         0.0600 
    213 H213       -6.8734  -25.6999  -45.7647 H         1 UNK         0.0600 
    214 H214       -6.3791  -27.0241  -46.8055 H         1 UNK         0.0600 
    215 H215       -3.8681  -23.4772  -48.3140 H         1 UNK         0.3000 
    216 H216       -3.6503  -21.3234  -48.6740 H         1 UNK         0.0600 
    217 H217       -5.0978  -20.8788  -46.0174 H         1 UNK         0.0600 
    218 H218       -4.4195  -19.5933  -46.9953 H         1 UNK         0.0600 
    219 H219       -3.3647  -20.8194  -46.3404 H         1 UNK         0.0600 
    220 H220       -6.9545  -22.2867  -47.9321 H         1 UNK         0.3000 
    221 H221       -8.3751  -20.1962  -49.1308 H         1 UNK         0.0600 
    222 H222       -9.1326  -23.1500  -48.8120 H         1 UNK         0.0600 
    223 H223       -9.4010  -21.8693  -47.6313 H         1 UNK         0.0600 
    224 H224      -10.2649  -21.8475  -49.1611 H         1 UNK         0.0600 
    225 H225       -7.2637  -23.2856  -50.6582 H         1 UNK         0.3000 
    226 H226       -8.4140  -22.5565  -53.2449 H         1 UNK         0.0600 
    227 H227       -8.2878  -24.9289  -52.4559 H         1 UNK         0.0600 
    228 H228       -7.4603  -24.6918  -53.9880 H         1 UNK         0.0600 
    229 H229       -6.5286  -24.8487  -52.5091 H         1 UNK         0.0600 
    230 H230       -5.3803  -22.0496  -51.6189 H         1 UNK         0.3000 
    231 H231       -3.8100  -21.4895  -54.0314 H         1 UNK         0.0600 
    232 H232       -3.1804  -21.0583  -51.0620 H         1 UNK         0.0600 
    233 H233       -2.0390  -20.9309  -52.3924 H         1 UNK         0.0600 
    234 H234       -2.7440  -22.4852  -52.0047 H         1 UNK         0.0600 
    235 H235       -5.9635  -19.7726  -51.9704 H         1 UNK         0.3000 
    236 H236       -6.6947  -17.7148  -51.7262 H         1 UNK         0.0600 
    237 H237       -6.7958  -17.5447  -54.2245 H         1 UNK         0.0600 
    238 H238       -6.4652  -15.9969  -53.4626 H         1 UNK         0.0600 
    239 H239       -5.1633  -16.8778  -54.2448 H         1 UNK         0.0600 
    240 H240       -4.7181  -18.5676  -50.1577 H         1 UNK         0.3000 
    241 H241       -2.9162  -16.2279  -49.6986 H         1 UNK         0.0600 
    242 H242       -5.8493  -17.1493  -48.5412 H         1 UNK         0.3800 
    243 H243       -5.6048  -16.7361  -46.8646 H         1 UNK         0.3800 
    244 H244       -1.3639  -17.7889  -48.5554 H         1 UNK         0.0800 
    245 H245       -2.4303  -19.1277  -48.8894 H         1 UNK         0.0800 
    246 H246       -0.4434  -16.2013  -50.4707 H         1 UNK         0.0800 
    247 H247        0.3050  -16.9342  -51.8667 H         1 UNK         0.0800 
@<TRIPOS>BOND
     1    1    2 1    
     2    1  127 1    
     3    1  128 1    
     4    1  129 1    
     5    2    3 2    
     6    2    4 am   BACKBONE|DICT|INTERRES
     7    4    5 1    
     8    4  130 1    
     9    5    6 1    
    10    5   65 1    
    11    5  131 1    
    12    6    7 1    
    13    6  132 1    
    14    6  133 1    
    15    7    8 1    
    16    8    9 1    
    17    8  134 1    
    18    8  135 1    
    19    9   10 ar   
    20    9   14 ar   
    21   10   11 ar   
    22   10  136 1    
    23   11   12 ar   
    24   11  126 1    
    25   12   13 ar   
    26   12  137 1    
    27   13   14 ar   
    28   13   15 1    
    29   14  138 1    
    30   15   16 1    
    31   15  139 1    
    32   15  140 1    
    33   16   17 1    
    34   17   18 1    
    35   17  141 1    
    36   17  142 1    
    37   18   19 1    
    38   18   67 1    
    39   18  143 1    
    40   19   20 am   BACKBONE|DICT|INTERRES
    41   19  144 1    
    42   20   21 2    
    43   20   22 1    
    44   22   23 1    
    45   22   24 1    
    46   22  145 1    
    47   23  146 1    
    48   23  147 1    
    49   23  148 1    
    50   24   25 am   BACKBONE|DICT|INTERRES
    51   24  149 1    
    52   25   26 2    
    53   25   27 1    
    54   27   28 1    
    55   27   29 1    
    56   27  150 1    
    57   28  151 1    
    58   28  152 1    
    59   28  153 1    
    60   29   30 am   BACKBONE|DICT|INTERRES
    61   29  154 1    
    62   30   31 2    
    63   30   32 1    
    64   32   33 1    
    65   32   34 1    
    66   32  155 1    
    67   33  156 1    
    68   33  157 1    
    69   33  158 1    
    70   34   35 am   BACKBONE|DICT|INTERRES
    71   34  159 1    
    72   35   36 2    
    73   35   37 1    
    74   37   38 1    
    75   37   39 1    
    76   37  160 1    
    77   38  161 1    
    78   38  162 1    
    79   38  163 1    
    80   39   40 am   BACKBONE|DICT|INTERRES
    81   39  164 1    
    82   40   41 2    
    83   40   42 1    
    84   42   43 1    
    85   42   44 1    
    86   42  165 1    
    87   43  166 1    
    88   43  167 1    
    89   43  168 1    
    90   44   45 am   BACKBONE|DICT|INTERRES
    91   44  169 1    
    92   45   46 2    
    93   45   47 1    
    94   47   48 1    
    95   47   49 1    
    96   47  170 1    
    97   48  171 1    
    98   48  172 1    
    99   48  173 1    
   100   49   50 am   BACKBONE|DICT|INTERRES
   101   49  174 1    
   102   50   51 2    
   103   50   52 1    
   104   52   53 1    
   105   52   54 1    
   106   52  175 1    
   107   53  176 1    
   108   53  177 1    
   109   53  178 1    
   110   54   55 am   BACKBONE|DICT|INTERRES
   111   54  179 1    
   112   55   56 2    
   113   55   57 1    
   114   57   58 1    
   115   57   59 1    
   116   57  180 1    
   117   58  181 1    
   118   58  182 1    
   119   58  183 1    
   120   59   60 am   BACKBONE|DICT|INTERRES
   121   59  184 1    
   122   60   61 2    
   123   60   62 1    
   124   62   63 1    
   125   62   64 1    
   126   62  185 1    
   127   63  186 1    
   128   63  187 1    
   129   63  188 1    
   130   64   65 am   BACKBONE|DICT|INTERRES
   131   64  189 1    
   132   65   66 2    
   133   67   68 2    
   134   67   69 am   BACKBONE|DICT|INTERRES
   135   69   70 1    
   136   69  190 1    
   137   70   71 1    
   138   70   72 1    
   139   70  191 1    
   140   71  192 1    
   141   71  193 1    
   142   71  194 1    
   143   72   73 2    
   144   72   74 am   BACKBONE|DICT|INTERRES
   145   74   75 1    
   146   74  195 1    
   147   75   76 1    
   148   75   77 1    
   149   75  196 1    
   150   76  197 1    
   151   76  198 1    
   152   76  199 1    
   153   77   78 2    
   154   77   79 am   BACKBONE|DICT|INTERRES
   155   79   80 1    
   156   79  200 1    
   157   80   81 1    
   158   80   82 1    
   159   80  201 1    
   160   81  202 1    
   161   81  203 1    
   162   81  204 1    
   163   82   83 2    
   164   82   84 am   BACKBONE|DICT|INTERRES
   165   84   85 1    
   166   84  205 1    
   167   85   86 1    
   168   85   87 1    
   169   85  206 1    
   170   86  207 1    
   171   86  208 1    
   172   86  209 1    
   173   87   88 2    
   174   87   89 am   BACKBONE|DICT|INTERRES
   175   89   90 1    
   176   89  210 1    
   177   90   91 1    
   178   90   92 1    
   179   90  211 1    
   180   91  212 1    
   181   91  213 1    
   182   91  214 1    
   183   92   93 2    
   184   92   94 am   BACKBONE|DICT|INTERRES
   185   94   95 1    
   186   94  215 1    
   187   95   96 1    
   188   95   97 1    
   189   95  216 1    
   190   96  217 1    
   191   96  218 1    
   192   96  219 1    
   193   97   98 2    
   194   97   99 am   BACKBONE|DICT|INTERRES
   195   99  100 1    
   196   99  220 1    
   197  100  101 1    
   198  100  102 1    
   199  100  221 1    
   200  101  222 1    
   201  101  223 1    
   202  101  224 1    
   203  102  103 2    
   204  102  104 am   BACKBONE|DICT|INTERRES
   205  104  105 1    
   206  104  225 1    
   207  105  106 1    
   208  105  107 1    
   209  105  226 1    
   210  106  227 1    
   211  106  228 1    
   212  106  229 1    
   213  107  108 2    
   214  107  109 am   BACKBONE|DICT|INTERRES
   215  109  110 1    
   216  109  230 1    
   217  110  111 1    
   218  110  112 1    
   219  110  231 1    
   220  111  232 1    
   221  111  233 1    
   222  111  234 1    
   223  112  113 2    
   224  112  114 am   BACKBONE|DICT|INTERRES
   225  114  115 1    
   226  114  235 1    
   227  115  116 1    
   228  115  117 1    
   229  115  236 1    
   230  116  237 1    
   231  116  238 1    
   232  116  239 1    
   233  117  118 2    
   234  117  119 am   BACKBONE|DICT|INTERRES
   235  119  120 1    
   236  119  240 1    
   237  120  121 1    
   238  120  124 1    
   239  120  241 1    
   240  121  122 am   BACKBONE|DICT|INTERRES
   241  121  123 2    
   242  122  242 1    
   243  122  243 1    
   244  124  125 1    
   245  124  244 1    
   246  124  245 1    
   247  125  126 1    
   248  126  246 1    
   249  126  247 1    
@<TRIPOS>SUBSTRUCTURE
     1 UNK         1 GROUP             0       ****    0 ROOT    
