@<TRIPOS>MOLECULE
3R540
247   249    1
SMALL
USER_CHARGES


@<TRIPOS>ATOM
      1 CA          2.9342  -11.8332  -46.4435 C.3       0 UNK        -0.1800 
      2 C           1.4758  -12.2660  -46.4582 C.2       0 UNK         0.5000 
      3 O           0.8217  -12.2459  -45.4179 O.2       0 UNK        -0.5000 
      4 N           0.9620  -12.6387  -47.6375 N.am      1 UNK        -0.5000 
      5 CA         -0.3801  -13.2015  -47.8652 C.3       1 UNK         0.1400 
      6 C6         -0.5508  -13.7104  -49.3199 C.3       23 UNK        -0.0398 
      7 S7          0.8140  -14.7969  -49.8563 S.3       23 UNK        -0.2404 
      8 C8         -0.0352  -16.3586  -50.2243 C.3       23 UNK        -0.0205 
      9 C9          0.9723  -17.3967  -50.6899 C.ar      23 UNK        -0.0193 
     10 C10         1.4156  -17.3942  -52.0157 C.ar      23 UNK        -0.1150 
     11 C11         2.3843  -18.3095  -52.4485 C.ar      23 UNK        -0.0193 
     12 C12         2.8929  -19.2366  -51.5334 C.ar      23 UNK        -0.1150 
     13 C13         2.4609  -19.2486  -50.2052 C.ar      23 UNK        -0.0193 
     14 C14         1.4965  -18.3281  -49.7905 C.ar      23 UNK        -0.1150 
     15 C15         3.0804  -20.2191  -49.2111 C.3       23 UNK        -0.0205 
     16 S16         2.3451  -21.8795  -49.3154 S.3       23 UNK        -0.2404 
     17 C17         0.7325  -21.6065  -48.5136 C.3       23 UNK        -0.0398 
     18 CA          0.2168  -22.8620  -47.7756 C.3       11 UNK         0.1400 
     19 N           1.1254  -23.3103  -46.7186 N.am      11 UNK        -0.5000 
     20 C           1.1341  -24.5530  -46.2160 C.2       10 UNK         0.5000 
     21 O           0.3694  -25.4443  -46.5860 O.2       10 UNK        -0.5000 
     22 CA          2.1430  -24.8382  -45.0866 C.3       10 UNK         0.1400 
     23 CB          3.4893  -25.2886  -45.6727 C.3       10 UNK        -0.1800 
     24 N           2.3634  -23.6898  -44.2056 N.am      10 UNK        -0.5000 
     25 C           1.4169  -23.1112  -43.4538 C.2       9 UNK         0.5000 
     26 O           0.2543  -23.5076  -43.3992 O.2       9 UNK        -0.5000 
     27 CA          1.8167  -21.8467  -42.6741 C.3       9 UNK         0.1400 
     28 CB          2.2589  -22.2130  -41.2499 C.3       9 UNK        -0.1800 
     29 N           2.8677  -21.0537  -43.3186 N.am      9 UNK        -0.5000 
     30 C           2.7692  -20.4820  -44.5253 C.2       8 UNK         0.5000 
     31 O           1.8090  -20.6312  -45.2880 O.2       8 UNK        -0.5000 
     32 CA          3.9525  -19.6153  -44.9650 C.3       8 UNK         0.1400 
     33 CB          4.9213  -20.4110  -45.8549 C.3       8 UNK        -0.1800 
     34 N           3.4084  -18.4771  -45.6935 N.am      8 UNK        -0.5000 
     35 C           3.8689  -17.2232  -45.6232 C.2       7 UNK         0.5000 
     36 O           4.9175  -16.9137  -45.0559 O.2       7 UNK        -0.5000 
     37 CA          3.0121  -16.1163  -46.2748 C.3       7 UNK         0.1400 
     38 CB          3.6097  -15.7053  -47.6290 C.3       7 UNK        -0.1800 
     39 N           1.5963  -16.4610  -46.4580 N.am      7 UNK        -0.5000 
     40 C           0.7301  -16.7039  -45.4631 C.2       6 UNK         0.5000 
     41 O           1.0390  -16.6957  -44.2693 O.2       6 UNK        -0.5000 
     42 CA         -0.7092  -17.0672  -45.8845 C.3       6 UNK         0.1400 
     43 CB         -0.8030  -18.5583  -46.2387 C.3       6 UNK        -0.1800 
     44 N          -1.6880  -16.7842  -44.8344 N.am      6 UNK        -0.5000 
     45 C          -2.0183  -15.5576  -44.4175 C.2       5 UNK         0.5000 
     46 O          -1.5655  -14.5210  -44.9080 O.2       5 UNK        -0.5000 
     47 CA         -3.0224  -15.4732  -43.2598 C.3       5 UNK         0.1400 
     48 CB         -2.3519  -15.8353  -41.9206 C.3       5 UNK        -0.1800 
     49 N          -3.5263  -14.1076  -43.2201 N.am      5 UNK        -0.5000 
     50 C          -4.5905  -13.6498  -42.5563 C.2       4 UNK         0.5000 
     51 O          -5.3338  -14.3705  -41.8878 O.2       4 UNK        -0.5000 
     52 CA         -4.8847  -12.1361  -42.6777 C.3       4 UNK         0.1400 
     53 CB         -5.4874  -11.5486  -41.3846 C.3       4 UNK        -0.1800 
     54 N          -3.7408  -11.3286  -43.1300 N.am      4 UNK        -0.5000 
     55 C          -2.5561  -11.1614  -42.5230 C.2       3 UNK         0.5000 
     56 O          -2.2635  -11.6929  -41.4505 O.2       3 UNK        -0.5000 
     57 CA         -1.5248  -10.2564  -43.2370 C.3       3 UNK         0.1400 
     58 CB         -0.0903  -10.4954  -42.7321 C.3       3 UNK        -0.1800 
     59 N          -1.5354  -10.3779  -44.7007 N.am      3 UNK        -0.5000 
     60 C          -2.4075   -9.7736  -45.5220 C.2       2 UNK         0.5000 
     61 O          -3.3786   -9.1367  -45.1127 O.2       2 UNK        -0.5000 
     62 CA         -2.1778   -9.8810  -47.0430 C.3       2 UNK         0.1400 
     63 CB         -1.6587   -8.5455  -47.5985 C.3       2 UNK        -0.1800 
     64 N          -1.2384  -10.9358  -47.4176 N.am      2 UNK        -0.5000 
     65 C          -1.5366  -12.2388  -47.5041 C.2       1 UNK         0.5000 
     66 O          -2.6706  -12.6858  -47.3289 O.2       1 UNK        -0.5000 
     67 C          -1.2105  -22.6373  -47.2368 C.2       11 UNK         0.5000 
     68 O          -2.1733  -22.8594  -47.9727 O.2       11 UNK        -0.5000 
     69 N          -1.3212  -22.2259  -45.9637 N.am      12 UNK        -0.5000 
     70 CA         -2.5873  -22.1172  -45.2381 C.3       12 UNK         0.1400 
     71 CB         -2.4114  -21.2387  -43.9893 C.3       12 UNK        -0.1800 
     72 C          -3.1427  -23.4993  -44.8550 C.2       12 UNK         0.5000 
     73 O          -4.3362  -23.7408  -45.0338 O.2       12 UNK        -0.5000 
     74 N          -2.2637  -24.3884  -44.3673 N.am      13 UNK        -0.5000 
     75 CA         -2.5783  -25.7588  -43.9506 C.3       13 UNK         0.1400 
     76 CB         -1.3234  -26.4163  -43.3580 C.3       13 UNK        -0.1800 
     77 C          -3.1606  -26.6313  -45.0773 C.2       13 UNK         0.5000 
     78 O          -4.0052  -27.4860  -44.8080 O.2       13 UNK        -0.5000 
     79 N          -2.7598  -26.3577  -46.3254 N.am      14 UNK        -0.5000 
     80 CA         -3.3036  -26.9389  -47.5551 C.3       14 UNK         0.1400 
     81 CB         -2.2602  -26.7600  -48.6714 C.3       14 UNK        -0.1800 
     82 C          -4.6816  -26.3450  -47.9373 C.2       14 UNK         0.5000 
     83 O          -4.9002  -25.9953  -49.0984 O.2       14 UNK        -0.5000 
     84 N          -5.5764  -26.2037  -46.9464 N.am      15 UNK        -0.5000 
     85 CA         -6.9417  -25.6609  -47.0159 C.3       15 UNK         0.1400 
     86 CB         -7.8606  -26.6565  -47.7532 C.3       15 UNK        -0.1800 
     87 C          -7.0288  -24.2357  -47.6101 C.2       15 UNK         0.5000 
     88 O          -8.0527  -23.8755  -48.1927 O.2       15 UNK        -0.5000 
     89 N          -5.9299  -23.4743  -47.4968 N.am      16 UNK        -0.5000 
     90 CA         -5.6407  -22.1861  -48.1387 C.3       16 UNK         0.1400 
     91 CB         -6.5782  -21.0847  -47.6070 C.3       16 UNK        -0.1800 
     92 C          -5.6105  -22.2242  -49.6846 C.2       16 UNK         0.5000 
     93 O          -5.4644  -21.1718  -50.3071 O.2       16 UNK        -0.5000 
     94 N          -5.7207  -23.4139  -50.2931 N.am      17 UNK        -0.5000 
     95 CA         -5.7842  -23.6034  -51.7405 C.3       17 UNK         0.1400 
     96 CB         -6.2842  -25.0207  -52.0557 C.3       17 UNK        -0.1800 
     97 C          -4.4303  -23.3373  -52.4098 C.2       17 UNK         0.5000 
     98 O          -4.3904  -22.7167  -53.4707 O.2       17 UNK        -0.5000 
     99 N          -3.3431  -23.7637  -51.7524 N.am      18 UNK        -0.5000 
    100 CA        -1.9712  -23.5020  -52.1856 C.3       18 UNK         0.1400 
    101 CB        -1.0003  -24.3429  -51.3485 C.3       18 UNK        -0.1800 
    102 C         -1.6102  -22.0084  -52.1087 C.2       18 UNK         0.5000 
    103 O         -0.9356  -21.5074  -53.0070 O.2       18 UNK        -0.5000 
    104 N         -2.1031  -21.3213  -51.0669 N.am      19 UNK        -0.5000 
    105 CA        -1.9580  -19.8758  -50.8884 C.3       19 UNK         0.1400 
    106 CB        -2.4064  -19.4824  -49.4709 C.3       19 UNK        -0.1800 
    107 C         -2.7370  -19.0753  -51.9466 C.2       19 UNK         0.5000 
    108 O         -2.2126  -18.0949  -52.4741 O.2       19 UNK        -0.5000 
    109 N         -3.9670  -19.5175  -52.2448 N.am      20 UNK        -0.5000 
    110 CA        -4.8295  -18.9351  -53.2716 C.3       20 UNK         0.1400 
    111 CB        -6.2439  -19.5219  -53.1462 C.3       20 UNK        -0.1800 
    112 C         -4.2781  -19.1353  -54.6951 C.2       20 UNK         0.5000 
    113 O         -4.3220  -18.2006  -55.4961 O.2       20 UNK        -0.5000 
    114 N         -3.7701  -20.3422  -54.9820 N.am      21 UNK        -0.5000 
    115 CA        -3.1658  -20.7020  -56.2627 C.3       21 UNK         0.1400 
    116 CB        -3.0122  -22.2286  -56.3557 C.3       21 UNK        -0.1800 
    117 C         -1.8171  -19.9998  -56.4899 C.2       21 UNK         0.5000 
    118 O         -1.6453  -19.3434  -57.5187 O.2       21 UNK        -0.5000 
    119 N         -0.8924  -20.1559  -55.5313 N.am      22 UNK        -0.5000 
    120 CA         0.4865  -19.6362  -55.5026 C.3       22 UNK         0.1400 
    121 C          1.4132  -20.1882  -56.6311 C.2       22 UNK         0.5000 
    122 N          1.0014  -20.1667  -57.8904 N.am      22 UNK        -0.7600 
    123 O          2.5099  -20.6678  -56.3595 O.2       22 UNK        -0.5000 
    124 C124        0.5074  -18.0858  -55.4002 C.3       23 UNK        -0.0398 
    125 S125        2.1213  -17.2700  -55.1088 S.3       23 UNK        -0.2404 
    126 C126        2.9696  -18.3068  -53.8615 C.3       23 UNK        -0.0205 
    127 H127        3.0176  -10.8069  -46.0864 H         1 UNK         0.0600 
    128 H128        3.3836  -11.8877  -47.4353 H         1 UNK         0.0600 
    129 H129        3.5072  -12.4761  -45.7755 H         1 UNK         0.0600 
    130 H130        1.5551  -12.6243  -48.4554 H         1 UNK         0.3000 
    131 H131       -0.4702  -14.0632  -47.2037 H         1 UNK         0.0600 
    132 H132       -0.5928  -12.8701  -50.0155 H         1 UNK         0.0800 
    133 H133       -1.4988  -14.2408  -49.4282 H         1 UNK         0.0800 
    134 H134       -0.7859  -16.1956  -50.9992 H         1 UNK         0.0800 
    135 H135       -0.5666  -16.7063  -49.3382 H         1 UNK         0.0800 
    136 H136        1.0204  -16.6500  -52.6908 H         1 UNK         0.1150 
    137 H137        3.6514  -19.9396  -51.8490 H         1 UNK         0.1150 
    138 H138        1.1768  -18.3204  -48.7619 H         1 UNK         0.1150 
    139 H139        4.1517  -20.2977  -49.4020 H         1 UNK         0.0800 
    140 H140        2.9833  -19.8352  -48.1959 H         1 UNK         0.0800 
    141 H141        0.0372  -21.3073  -49.2962 H         1 UNK         0.0800 
    142 H142        0.8083  -20.7682  -47.8216 H         1 UNK         0.0800 
    143 H143        0.1550  -23.6671  -48.5085 H         1 UNK         0.0600 
    144 H144        1.7504  -22.6132  -46.3349 H         1 UNK         0.3000 
    145 H145        1.7430  -25.6533  -44.4807 H         1 UNK         0.0600 
    146 H146        4.1886  -25.5698  -44.8852 H         1 UNK         0.0600 
    147 H147        3.3621  -26.1584  -46.3186 H         1 UNK         0.0600 
    148 H148        3.9524  -24.5014  -46.2693 H         1 UNK         0.0600 
    149 H149        3.2918  -23.2945  -44.1938 H         1 UNK         0.3000 
    150 H150        0.9274  -21.2169  -42.6036 H         1 UNK         0.0600 
    151 H151        1.4856  -22.7858  -40.7358 H         1 UNK         0.0600 
    152 H152        2.4494  -21.3206  -40.6535 H         1 UNK         0.0600 
    153 H153        3.1673  -22.8167  -41.2528 H         1 UNK         0.0600 
    154 H154        3.6991  -20.8903  -42.7690 H         1 UNK         0.3000 
    155 H155        4.4821  -19.2663  -44.0758 H         1 UNK         0.0600 
    156 H156        4.4105  -20.8907  -46.6894 H         1 UNK         0.0600 
    157 H157        5.4129  -21.1982  -45.2824 H         1 UNK         0.0600 
    158 H158        5.7027  -19.7694  -46.2623 H         1 UNK         0.0600 
    159 H159        2.5067  -18.6470  -46.1166 H         1 UNK         0.3000 
    160 H160        3.0556  -15.2503  -45.6109 H         1 UNK         0.0600 
    161 H161        3.5043  -16.4945  -48.3745 H         1 UNK         0.0600 
    162 H162        4.6731  -15.4797  -47.5383 H         1 UNK         0.0600 
    163 H163        3.1277  -14.8080  -48.0145 H         1 UNK         0.0600 
    164 H164        1.2690  -16.4662  -47.4121 H         1 UNK         0.3000 
    165 H165       -0.9780  -16.4792  -46.7644 H         1 UNK         0.0600 
    166 H166       -1.8271  -18.8513  -46.4708 H         1 UNK         0.0600 
    167 H167       -0.1969  -18.7931  -47.1094 H         1 UNK         0.0600 
    168 H168       -0.4492  -19.1856  -45.4206 H         1 UNK         0.0600 
    169 H169       -2.0738  -17.5831  -44.3544 H         1 UNK         0.3000 
    170 H170       -3.8506  -16.1553  -43.4616 H         1 UNK         0.0600 
    171 H171       -1.9395  -16.8445  -41.9457 H         1 UNK         0.0600 
    172 H172       -1.5341  -15.1518  -41.6876 H         1 UNK         0.0600 
    173 H173       -3.0624  -15.7990  -41.0950 H         1 UNK         0.0600 
    174 H174       -2.9791  -13.4652  -43.7814 H         1 UNK         0.3000 
    175 H175       -5.6397  -12.0448  -43.4597 H         1 UNK         0.0600 
    176 H176       -4.8154  -11.6673  -40.5342 H         1 UNK         0.0600 
    177 H177       -5.7025  -10.4859  -41.4969 H         1 UNK         0.0600 
    178 H178       -6.4259  -12.0417  -41.1292 H         1 UNK         0.0600 
    179 H179       -3.8817  -10.8118  -43.9905 H         1 UNK         0.3000 
    180 H180       -1.7887   -9.2286  -42.9795 H         1 UNK         0.0600 
    181 H181        0.6242   -9.8537  -43.2481 H         1 UNK         0.0600 
    182 H182        0.2188  -11.5304  -42.8825 H         1 UNK         0.0600 
    183 H183       -0.0065  -10.2794  -41.6664 H         1 UNK         0.0600 
    184 H184       -0.7968  -10.9475  -45.1012 H         1 UNK         0.3000 
    185 H185       -3.1447  -10.0883  -47.5064 H         1 UNK         0.0600 
    186 H186       -1.5508   -8.5843  -48.6827 H         1 UNK         0.0600 
    187 H187       -2.3490   -7.7318  -47.3718 H         1 UNK         0.0600 
    188 H188       -0.6896   -8.2818  -47.1731 H         1 UNK         0.0600 
    189 H189       -0.2808  -10.6574  -47.5757 H         1 UNK         0.3000 
    190 H190       -0.4758  -22.0781  -45.4303 H         1 UNK         0.3000 
    191 H191       -3.3183  -21.6296  -45.8854 H         1 UNK         0.0600 
    192 H192       -3.3369  -21.1923  -43.4140 H         1 UNK         0.0600 
    193 H193       -2.1527  -20.2160  -44.2557 H         1 UNK         0.0600 
    194 H194       -1.6351  -21.6202  -43.3264 H         1 UNK         0.0600 
    195 H195       -1.3100  -24.0796  -44.1931 H         1 UNK         0.3000 
    196 H196       -3.3330  -25.6948  -43.1644 H         1 UNK         0.0600 
    197 H197       -0.5241  -26.4889  -44.0954 H         1 UNK         0.0600 
    198 H198       -0.9454  -25.8512  -42.5059 H         1 UNK         0.0600 
    199 H199       -1.5393  -27.4262  -43.0072 H         1 UNK         0.0600 
    200 H200       -2.0473  -25.6499  -46.4445 H         1 UNK         0.3000 
    201 H201       -3.4496  -28.0097  -47.4007 H         1 UNK         0.0600 
    202 H202       -2.0728  -25.7046  -48.8673 H         1 UNK         0.0600 
    203 H203       -2.5912  -27.2188  -49.6039 H         1 UNK         0.0600 
    204 H204       -1.3102  -27.2222  -48.4020 H         1 UNK         0.0600 
    205 H205       -5.2819  -26.5210  -46.0288 H         1 UNK         0.3000 
    206 H206       -7.2920  -25.5809  -45.9860 H         1 UNK         0.0600 
    207 H207       -7.7989  -27.6512  -47.3119 H         1 UNK         0.0600 
    208 H208       -8.9043  -26.3449  -47.6992 H         1 UNK         0.0600 
    209 H209       -7.5974  -26.7408  -48.8083 H         1 UNK         0.0600 
    210 H210       -5.1769  -23.8474  -46.9291 H         1 UNK         0.3000 
    211 H211       -4.6286  -21.9224  -47.8353 H         1 UNK         0.0600 
    212 H212       -6.2724  -20.1022  -47.9685 H         1 UNK         0.0600 
    213 H213       -6.5627  -21.0471  -46.5177 H         1 UNK         0.0600 
    214 H214       -7.6094  -21.2412  -47.9243 H         1 UNK         0.0600 
    215 H215       -5.7502  -24.2544  -49.7258 H         1 UNK         0.3000 
    216 H216       -6.5061  -22.8912  -52.1459 H         1 UNK         0.0600 
    217 H217       -5.5916  -25.7839  -51.6993 H         1 UNK         0.0600 
    218 H218       -6.4011  -25.1612  -53.1310 H         1 UNK         0.0600 
    219 H219       -7.2543  -25.2080  -51.5947 H         1 UNK         0.0600 
    220 H220       -3.4705  -24.2621  -50.8828 H         1 UNK         0.3000 
    221 H221       -1.8780  -23.8126  -53.2285 H         1 UNK         0.0600 
    222 H222       -1.1808  -25.4091  -51.4858 H         1 UNK         0.0600 
    223 H223       -1.1042  -24.1189  -50.2894 H         1 UNK         0.0600 
    224 H224        0.0355  -24.1466  -51.6291 H         1 UNK         0.0600 
    225 H225       -2.6574  -21.8137  -50.3812 H         1 UNK         0.3000 
    226 H226       -0.9002  -19.6286  -50.9969 H         1 UNK         0.0600 
    227 H227       -3.4565  -19.7167  -49.2975 H         1 UNK         0.0600 
    228 H228       -1.8245  -19.9978  -48.7096 H         1 UNK         0.0600 
    229 H229       -2.2828  -18.4123  -49.3052 H         1 UNK         0.0600 
    230 H230       -4.3542  -20.2900  -51.7121 H         1 UNK         0.3000 
    231 H231       -4.8919  -17.8606  -53.0869 H         1 UNK         0.0600 
    232 H232       -6.2468  -20.6021  -53.2936 H         1 UNK         0.0600 
    233 H233       -6.9149  -19.0867  -53.8877 H         1 UNK         0.0600 
    234 H234       -6.6689  -19.3183  -52.1631 H         1 UNK         0.0600 
    235 H235       -3.8347  -21.0811  -54.2872 H         1 UNK         0.3000 
    236 H236       -3.8442  -20.3863  -57.0582 H         1 UNK         0.0600 
    237 H237       -3.9813  -22.7245  -56.2965 H         1 UNK         0.0600 
    238 H238       -2.5555  -22.5193  -57.3025 H         1 UNK         0.0600 
    239 H239       -2.3875  -22.6229  -55.5534 H         1 UNK         0.0600 
    240 H240       -1.1321  -20.7147  -54.7163 H         1 UNK         0.3000 
    241 H241        0.8846  -20.0263  -54.5660 H         1 UNK         0.0600 
    242 H242        1.5869  -20.5289  -58.6261 H         1 UNK         0.3800 
    243 H243        0.0752  -19.8025  -58.0965 H         1 UNK         0.3800 
    244 H244       -0.1587  -17.7762  -54.5934 H         1 UNK         0.0800 
    245 H245        0.0870  -17.6489  -56.3068 H         1 UNK         0.0800 
    246 H246        3.0576  -19.3297  -54.2234 H         1 UNK         0.0800 
    247 H247        3.9935  -17.9387  -53.7855 H         1 UNK         0.0800 
@<TRIPOS>BOND
     1    1    2 1    
     2    1  127 1    
     3    1  128 1    
     4    1  129 1    
     5    2    3 2    
     6    2    4 am   BACKBONE|DICT|INTERRES
     7    4    5 1    
     8    4  130 1    
     9    5    6 1    
    10    5   65 1    
    11    5  131 1    
    12    6    7 1    
    13    6  132 1    
    14    6  133 1    
    15    7    8 1    
    16    8    9 1    
    17    8  134 1    
    18    8  135 1    
    19    9   10 ar   
    20    9   14 ar   
    21   10   11 ar   
    22   10  136 1    
    23   11   12 ar   
    24   11  126 1    
    25   12   13 ar   
    26   12  137 1    
    27   13   14 ar   
    28   13   15 1    
    29   14  138 1    
    30   15   16 1    
    31   15  139 1    
    32   15  140 1    
    33   16   17 1    
    34   17   18 1    
    35   17  141 1    
    36   17  142 1    
    37   18   19 1    
    38   18   67 1    
    39   18  143 1    
    40   19   20 am   BACKBONE|DICT|INTERRES
    41   19  144 1    
    42   20   21 2    
    43   20   22 1    
    44   22   23 1    
    45   22   24 1    
    46   22  145 1    
    47   23  146 1    
    48   23  147 1    
    49   23  148 1    
    50   24   25 am   BACKBONE|DICT|INTERRES
    51   24  149 1    
    52   25   26 2    
    53   25   27 1    
    54   27   28 1    
    55   27   29 1    
    56   27  150 1    
    57   28  151 1    
    58   28  152 1    
    59   28  153 1    
    60   29   30 am   BACKBONE|DICT|INTERRES
    61   29  154 1    
    62   30   31 2    
    63   30   32 1    
    64   32   33 1    
    65   32   34 1    
    66   32  155 1    
    67   33  156 1    
    68   33  157 1    
    69   33  158 1    
    70   34   35 am   BACKBONE|DICT|INTERRES
    71   34  159 1    
    72   35   36 2    
    73   35   37 1    
    74   37   38 1    
    75   37   39 1    
    76   37  160 1    
    77   38  161 1    
    78   38  162 1    
    79   38  163 1    
    80   39   40 am   BACKBONE|DICT|INTERRES
    81   39  164 1    
    82   40   41 2    
    83   40   42 1    
    84   42   43 1    
    85   42   44 1    
    86   42  165 1    
    87   43  166 1    
    88   43  167 1    
    89   43  168 1    
    90   44   45 am   BACKBONE|DICT|INTERRES
    91   44  169 1    
    92   45   46 2    
    93   45   47 1    
    94   47   48 1    
    95   47   49 1    
    96   47  170 1    
    97   48  171 1    
    98   48  172 1    
    99   48  173 1    
   100   49   50 am   BACKBONE|DICT|INTERRES
   101   49  174 1    
   102   50   51 2    
   103   50   52 1    
   104   52   53 1    
   105   52   54 1    
   106   52  175 1    
   107   53  176 1    
   108   53  177 1    
   109   53  178 1    
   110   54   55 am   BACKBONE|DICT|INTERRES
   111   54  179 1    
   112   55   56 2    
   113   55   57 1    
   114   57   58 1    
   115   57   59 1    
   116   57  180 1    
   117   58  181 1    
   118   58  182 1    
   119   58  183 1    
   120   59   60 am   BACKBONE|DICT|INTERRES
   121   59  184 1    
   122   60   61 2    
   123   60   62 1    
   124   62   63 1    
   125   62   64 1    
   126   62  185 1    
   127   63  186 1    
   128   63  187 1    
   129   63  188 1    
   130   64   65 am   BACKBONE|DICT|INTERRES
   131   64  189 1    
   132   65   66 2    
   133   67   68 2    
   134   67   69 am   BACKBONE|DICT|INTERRES
   135   69   70 1    
   136   69  190 1    
   137   70   71 1    
   138   70   72 1    
   139   70  191 1    
   140   71  192 1    
   141   71  193 1    
   142   71  194 1    
   143   72   73 2    
   144   72   74 am   BACKBONE|DICT|INTERRES
   145   74   75 1    
   146   74  195 1    
   147   75   76 1    
   148   75   77 1    
   149   75  196 1    
   150   76  197 1    
   151   76  198 1    
   152   76  199 1    
   153   77   78 2    
   154   77   79 am   BACKBONE|DICT|INTERRES
   155   79   80 1    
   156   79  200 1    
   157   80   81 1    
   158   80   82 1    
   159   80  201 1    
   160   81  202 1    
   161   81  203 1    
   162   81  204 1    
   163   82   83 2    
   164   82   84 am   BACKBONE|DICT|INTERRES
   165   84   85 1    
   166   84  205 1    
   167   85   86 1    
   168   85   87 1    
   169   85  206 1    
   170   86  207 1    
   171   86  208 1    
   172   86  209 1    
   173   87   88 2    
   174   87   89 am   BACKBONE|DICT|INTERRES
   175   89   90 1    
   176   89  210 1    
   177   90   91 1    
   178   90   92 1    
   179   90  211 1    
   180   91  212 1    
   181   91  213 1    
   182   91  214 1    
   183   92   93 2    
   184   92   94 am   BACKBONE|DICT|INTERRES
   185   94   95 1    
   186   94  215 1    
   187   95   96 1    
   188   95   97 1    
   189   95  216 1    
   190   96  217 1    
   191   96  218 1    
   192   96  219 1    
   193   97   98 2    
   194   97   99 am   BACKBONE|DICT|INTERRES
   195   99  100 1    
   196   99  220 1    
   197  100  101 1    
   198  100  102 1    
   199  100  221 1    
   200  101  222 1    
   201  101  223 1    
   202  101  224 1    
   203  102  103 2    
   204  102  104 am   BACKBONE|DICT|INTERRES
   205  104  105 1    
   206  104  225 1    
   207  105  106 1    
   208  105  107 1    
   209  105  226 1    
   210  106  227 1    
   211  106  228 1    
   212  106  229 1    
   213  107  108 2    
   214  107  109 am   BACKBONE|DICT|INTERRES
   215  109  110 1    
   216  109  230 1    
   217  110  111 1    
   218  110  112 1    
   219  110  231 1    
   220  111  232 1    
   221  111  233 1    
   222  111  234 1    
   223  112  113 2    
   224  112  114 am   BACKBONE|DICT|INTERRES
   225  114  115 1    
   226  114  235 1    
   227  115  116 1    
   228  115  117 1    
   229  115  236 1    
   230  116  237 1    
   231  116  238 1    
   232  116  239 1    
   233  117  118 2    
   234  117  119 am   BACKBONE|DICT|INTERRES
   235  119  120 1    
   236  119  240 1    
   237  120  121 1    
   238  120  124 1    
   239  120  241 1    
   240  121  122 am   BACKBONE|DICT|INTERRES
   241  121  123 2    
   242  122  242 1    
   243  122  243 1    
   244  124  125 1    
   245  124  244 1    
   246  124  245 1    
   247  125  126 1    
   248  126  246 1    
   249  126  247 1    
@<TRIPOS>SUBSTRUCTURE
     1 UNK         1 GROUP             0       ****    0 ROOT    
