@<TRIPOS>MOLECULE
3R540
247   249    1
SMALL
USER_CHARGES


@<TRIPOS>ATOM
      1 CA          5.2671  -13.7030  -48.7099 C.3       0 UNK        -0.1800 
      2 C           3.9944  -14.5368  -48.7606 C.2       0 UNK         0.5000 
      3 O           4.0575  -15.7579  -48.6163 O.2       0 UNK        -0.5000 
      4 N           2.8462  -13.8832  -48.9749 N.am      1 UNK        -0.5000 
      5 CA          1.5190  -14.5050  -48.9734 C.3       1 UNK         0.1400 
      6 C6          0.4684  -13.6261  -49.7031 C.3       23 UNK        -0.0398 
      7 S7          0.7130  -13.4554  -51.5052 S.3       23 UNK        -0.2404 
      8 C8          0.8394  -15.1703  -52.1347 C.3       23 UNK        -0.0205 
      9 C9         -0.0925  -16.1774  -51.4645 C.ar      23 UNK        -0.0193 
     10 C10        -1.4677  -15.9432  -51.3663 C.ar      23 UNK        -0.1150 
     11 C11        -2.3015  -16.8731  -50.7366 C.ar      23 UNK        -0.0193 
     12 C12        -1.7552  -18.0477  -50.2115 C.ar      23 UNK        -0.1150 
     13 C13        -0.3856  -18.2988  -50.3132 C.ar      23 UNK        -0.0193 
     14 C14         0.4365  -17.3630  -50.9444 C.ar      23 UNK        -0.1150 
     15 C15         0.2151  -19.5780  -49.7525 C.3       23 UNK        -0.0205 
     16 S16         0.6380  -19.4020  -47.9916 S.3       23 UNK        -0.2404 
     17 C17        -0.7545  -20.2557  -47.1707 C.3       23 UNK        -0.0398 
     18 CA         -0.3784  -21.7021  -46.7754 C.3       11 UNK         0.1400 
     19 N           0.6828  -21.7453  -45.7653 N.am      11 UNK        -0.5000 
     20 C           1.3963  -22.8371  -45.4634 C.2       10 UNK         0.5000 
     21 O           1.2288  -23.9300  -46.0033 O.2       10 UNK        -0.5000 
     22 CA          2.4384  -22.6991  -44.3390 C.3       10 UNK         0.1400 
     23 CB          3.6852  -21.9500  -44.8319 C.3       10 UNK        -0.1800 
     24 N           1.9008  -22.0367  -43.1502 N.am      10 UNK        -0.5000 
     25 C           0.8985  -22.5194  -42.4025 C.2       9 UNK         0.5000 
     26 O           0.3280  -23.5858  -42.6281 O.2       9 UNK        -0.5000 
     27 CA          0.4258  -21.6491  -41.2269 C.3       9 UNK         0.1400 
     28 CB          1.3351  -21.8348  -40.0029 C.3       9 UNK        -0.1800 
     29 N           0.3573  -20.2326  -41.5790 N.am      9 UNK        -0.5000 
     30 C          -0.5273  -19.7069  -42.4378 C.2       8 UNK         0.5000 
     31 O          -1.3872  -20.3601  -43.0280 O.2       8 UNK        -0.5000 
     32 CA         -0.3940  -18.1984  -42.7107 C.3       8 UNK         0.1400 
     33 CB         -0.9146  -17.4002  -41.5035 C.3       8 UNK        -0.1800 
     34 N           0.9814  -17.7907  -43.0074 N.am      8 UNK        -0.5000 
     35 C           1.7556  -18.3216  -43.9665 C.2       7 UNK         0.5000 
     36 O           1.3718  -19.1803  -44.7570 O.2       7 UNK        -0.5000 
     37 CA          3.2270  -17.8749  -44.0031 C.3       7 UNK         0.1400 
     38 CB          3.3804  -16.5680  -44.7901 C.3       7 UNK        -0.1800 
     39 N           3.7954  -17.7131  -42.6654 N.am      7 UNK        -0.5000 
     40 C           3.9052  -18.6778  -41.7429 C.2       6 UNK         0.5000 
     41 O           3.5788  -19.8481  -41.9456 O.2       6 UNK        -0.5000 
     42 CA          4.4050  -18.2665  -40.3425 C.3       6 UNK         0.1400 
     43 CB          5.9437  -18.2734  -40.2713 C.3       6 UNK        -0.1800 
     44 N           3.8352  -17.0009  -39.8509 N.am      6 UNK        -0.5000 
     45 C           4.0343  -15.7580  -40.3110 C.2       5 UNK         0.5000 
     46 O           4.8248  -15.4722  -41.2138 O.2       5 UNK        -0.5000 
     47 CA          3.1736  -14.6507  -39.6750 C.3       5 UNK         0.1400 
     48 CB          3.9486  -13.9421  -38.5540 C.3       5 UNK        -0.1800 
     49 N           2.7422  -13.6580  -40.6617 N.am      5 UNK        -0.5000 
     50 C           1.9733  -13.9166  -41.7278 C.2       4 UNK         0.5000 
     51 O           1.4962  -15.0272  -41.9799 O.2       4 UNK        -0.5000 
     52 CA          1.7165  -12.7366  -42.6755 C.3       4 UNK         0.1400 
     53 CB          2.9028  -12.5353  -43.6373 C.3       4 UNK        -0.1800 
     54 N           0.4916  -12.9802  -43.4297 N.am      4 UNK        -0.5000 
     55 C          -0.2396  -12.0568  -44.0630 C.2       3 UNK         0.5000 
     56 O           0.0551  -10.8598  -44.0757 O.2       3 UNK        -0.5000 
     57 CA         -1.5035  -12.5493  -44.8087 C.3       3 UNK         0.1400 
     58 CB         -2.1463  -11.4525  -45.6777 C.3       3 UNK        -0.1800 
     59 N          -1.2357  -13.7127  -45.6567 N.am      3 UNK        -0.5000 
     60 C          -1.1268  -14.9760  -45.2285 C.2       2 UNK         0.5000 
     61 O          -1.3090  -15.2991  -44.0572 O.2       2 UNK        -0.5000 
     62 CA         -0.7470  -16.0612  -46.2576 C.3       2 UNK         0.1400 
     63 CB         -2.0104  -16.8314  -46.6720 C.3       2 UNK        -0.1800 
     64 N          -0.0775  -15.5851  -47.4731 N.am      2 UNK        -0.5000 
     65 C           1.0381  -14.8430  -47.5457 C.2       1 UNK         0.5000 
     66 O           1.6372  -14.4040  -46.5628 O.2       1 UNK        -0.5000 
     67 C          -1.6167  -22.5202  -46.3513 C.2       11 UNK         0.5000 
     68 O          -2.2500  -23.1354  -47.2109 O.2       11 UNK        -0.5000 
     69 N          -1.9199  -22.5614  -45.0445 N.am      12 UNK        -0.5000 
     70 CA         -2.9599  -23.4207  -44.4753 C.3       12 UNK         0.1400 
     71 CB         -3.2381  -23.0265  -43.0174 C.3       12 UNK        -0.1800 
     72 C          -2.6048  -24.9146  -44.5834 C.2       12 UNK         0.5000 
     73 O          -3.4529  -25.7054  -44.9956 O.2       12 UNK        -0.5000 
     74 N          -1.3521  -25.2701  -44.2611 N.am      13 UNK        -0.5000 
     75 CA         -0.8103  -26.6270  -44.3843 C.3       13 UNK         0.1400 
     76 CB          0.5735  -26.6922  -43.7208 C.3       13 UNK        -0.1800 
     77 C          -0.7397  -27.1162  -45.8436 C.2       13 UNK         0.5000 
     78 O          -1.0056  -28.2896  -46.1057 O.2       13 UNK        -0.5000 
     79 N          -0.4256  -26.1995  -46.7691 N.am      14 UNK        -0.5000 
     80 CA         -0.4493  -26.4203  -48.2170 C.3       14 UNK         0.1400 
     81 CB          0.3306  -25.2884  -48.9042 C.3       14 UNK        -0.1800 
     82 C          -1.8730  -26.5198  -48.8056 C.2       14 UNK         0.5000 
     83 O          -2.0123  -26.9401  -49.9549 O.2       14 UNK        -0.5000 
     84 N          -2.8901  -26.1283  -48.0222 N.am      15 UNK        -0.5000 
     85 CA         -4.3141  -26.0693  -48.3602 C.3       15 UNK         0.1400 
     86 CB         -4.8855  -27.4847  -48.5868 C.3       15 UNK        -0.1800 
     87 C          -4.5968  -25.0975  -49.5232 C.2       15 UNK         0.5000 
     88 O          -5.2893  -25.4531  -50.4796 O.2       15 UNK        -0.5000 
     89 N          -4.0299  -23.8871  -49.4232 N.am      16 UNK        -0.5000 
     90 CA         -4.1903  -22.8019  -50.3904 C.3       16 UNK         0.1400 
     91 CB         -3.2615  -21.6458  -49.9909 C.3       16 UNK        -0.1800 
     92 C          -5.6462  -22.3073  -50.5052 C.2       16 UNK         0.5000 
     93 O          -6.3936  -22.3490  -49.5242 O.2       16 UNK        -0.5000 
     94 N          -6.0068  -21.8219  -51.6967 N.am      17 UNK        -0.5000 
     95 CA         -7.3151  -21.2707  -52.0248 C.3       17 UNK         0.1400 
     96 CB         -8.2111  -22.3833  -52.5941 C.3       17 UNK        -0.1800 
     97 C          -7.1457  -20.1248  -53.0314 C.2       17 UNK         0.5000 
     98 O          -6.1401  -20.0765  -53.7524 O.2       17 UNK        -0.5000 
     99 N          -8.1441  -19.2316  -53.0566 N.am      18 UNK        -0.5000 
    100 CA        -8.2200  -18.0464  -53.9110 C.3       18 UNK         0.1400 
    101 CB        -9.5368  -17.3066  -53.6324 C.3       18 UNK        -0.1800 
    102 C         -8.0992  -18.3927  -55.4046 C.2       18 UNK         0.5000 
    103 O         -8.7649  -19.3218  -55.8680 O.2       18 UNK        -0.5000 
    104 N         -7.2280  -17.6593  -56.1106 N.am      19 UNK        -0.5000 
    105 CA        -6.8144  -17.8132  -57.5130 C.3       19 UNK         0.1400 
    106 CB        -8.0038  -17.6403  -58.4767 C.3       19 UNK        -0.1800 
    107 C         -6.0369  -19.1121  -57.8144 C.2       19 UNK         0.5000 
    108 O         -5.0267  -19.0548  -58.5156 O.2       19 UNK        -0.5000 
    109 N         -6.5017  -20.2458  -57.2752 N.am      20 UNK        -0.5000 
    110 CA        -5.9304  -21.5820  -57.4410 C.3       20 UNK         0.1400 
    111 CB        -6.8573  -22.6096  -56.7743 C.3       20 UNK        -0.1800 
    112 C         -4.4989  -21.7046  -56.8904 C.2       20 UNK         0.5000 
    113 O         -3.6434  -22.2867  -57.5589 O.2       20 UNK        -0.5000 
    114 N         -4.2670  -21.1389  -55.6996 N.am      21 UNK        -0.5000 
    115 CA        -2.9523  -21.0499  -55.0655 C.3       21 UNK         0.1400 
    116 CB        -2.9890  -21.7621  -53.7073 C.3       21 UNK        -0.1800 
    117 C         -2.5335  -19.5848  -54.8845 C.2       21 UNK         0.5000 
    118 O         -1.3607  -19.2684  -55.0853 O.2       21 UNK        -0.5000 
    119 N         -3.4892  -18.7173  -54.5204 N.am      22 UNK        -0.5000 
    120 CA        -3.2449  -17.2866  -54.2639 C.3       22 UNK         0.1400 
    121 C         -2.9836  -16.4220  -55.5341 C.2       22 UNK         0.5000 
    122 N         -3.1587  -16.9353  -56.7459 N.am      22 UNK        -0.7600 
    123 O         -2.6140  -15.2572  -55.4171 O.2       22 UNK        -0.5000 
    124 C124       -4.3556  -16.6424  -53.3936 C.3       23 UNK        -0.0398 
    125 S125       -4.7321  -17.5584  -51.8585 S.3       23 UNK        -0.2404 
    126 C126       -3.7941  -16.6161  -50.6178 C.3       23 UNK        -0.0205 
    127 H127        5.7483  -13.8139  -47.7382 H         1 UNK         0.0600 
    128 H128        5.0650  -12.6436  -48.8701 H         1 UNK         0.0600 
    129 H129        5.9653  -14.0359  -49.4779 H         1 UNK         0.0600 
    130 H130        2.8596  -12.8785  -49.0717 H         1 UNK         0.3000 
    131 H131        1.6120  -15.4591  -49.4872 H         1 UNK         0.0600 
    132 H132       -0.5434  -14.0085  -49.5647 H         1 UNK         0.0800 
    133 H133        0.4562  -12.6239  -49.2713 H         1 UNK         0.0800 
    134 H134        0.6312  -15.1637  -53.2053 H         1 UNK         0.0800 
    135 H135        1.8785  -15.4874  -52.0324 H         1 UNK         0.0800 
    136 H136       -1.8852  -15.0343  -51.7764 H         1 UNK         0.1150 
    137 H137       -2.3995  -18.7659  -49.7256 H         1 UNK         0.1150 
    138 H138        1.4974  -17.5570  -51.0211 H         1 UNK         0.1150 
    139 H139       -0.4625  -20.4172  -49.9062 H         1 UNK         0.0800 
    140 H140        1.1244  -19.8290  -50.3006 H         1 UNK         0.0800 
    141 H141       -1.6233  -20.2370  -47.8294 H         1 UNK         0.0800 
    142 H142       -1.0332  -19.6864  -46.2822 H         1 UNK         0.0800 
    143 H143        0.0122  -22.1884  -47.6715 H         1 UNK         0.0600 
    144 H144        0.9045  -20.8630  -45.3061 H         1 UNK         0.3000 
    145 H145        2.7439  -23.7054  -44.0450 H         1 UNK         0.0600 
    146 H146        4.4376  -21.8745  -44.0465 H         1 UNK         0.0600 
    147 H147        4.1428  -22.4699  -45.6744 H         1 UNK         0.0600 
    148 H148        3.4446  -20.9403  -45.1634 H         1 UNK         0.0600 
    149 H149        2.3348  -21.1612  -42.8763 H         1 UNK         0.3000 
    150 H150       -0.5790  -21.9774  -40.9529 H         1 UNK         0.0600 
    151 H151        1.3723  -22.8828  -39.7027 H         1 UNK         0.0600 
    152 H152        0.9680  -21.2657  -39.1488 H         1 UNK         0.0600 
    153 H153        2.3582  -21.5163  -40.2040 H         1 UNK         0.0600 
    154 H154        1.0663  -19.6314  -41.1872 H         1 UNK         0.3000 
    155 H155       -1.0084  -17.9610  -43.5807 H         1 UNK         0.0600 
    156 H156       -0.3158  -17.5799  -40.6100 H         1 UNK         0.0600 
    157 H157       -0.9006  -16.3285  -41.6967 H         1 UNK         0.0600 
    158 H158       -1.9449  -17.6720  -41.2710 H         1 UNK         0.0600 
    159 H159        1.3513  -17.0231  -42.4565 H         1 UNK         0.3000 
    160 H160        3.8018  -18.6492  -44.5139 H         1 UNK         0.0600 
    161 H161        4.4213  -16.2481  -44.8353 H         1 UNK         0.0600 
    162 H162        2.7985  -15.7615  -44.3440 H         1 UNK         0.0600 
    163 H163        3.0340  -16.6927  -45.8169 H         1 UNK         0.0600 
    164 H164        4.0987  -16.7805  -42.4006 H         1 UNK         0.3000 
    165 H165        4.0481  -19.0329  -39.6525 H         1 UNK         0.0600 
    166 H166        6.2932  -18.0219  -39.2700 H         1 UNK         0.0600 
    167 H167        6.3365  -19.2615  -40.5143 H         1 UNK         0.0600 
    168 H168        6.3917  -17.5678  -40.9711 H         1 UNK         0.0600 
    169 H169        3.1539  -17.1147  -39.1131 H         1 UNK         0.3000 
    170 H170        2.2766  -15.1033  -39.2470 H         1 UNK         0.0600 
    171 H171        4.2631  -14.6514  -37.7872 H         1 UNK         0.0600 
    172 H172        4.8454  -13.4508  -38.9338 H         1 UNK         0.0600 
    173 H173        3.3334  -13.1873  -38.0637 H         1 UNK         0.0600 
    174 H174        3.1212  -12.7292  -40.5501 H         1 UNK         0.3000 
    175 H175        1.5836  -11.8380  -42.0694 H         1 UNK         0.0600 
    176 H176        2.7639  -11.6522  -44.2609 H         1 UNK         0.0600 
    177 H177        3.0308  -13.3912  -44.3002 H         1 UNK         0.0600 
    178 H178        3.8367  -12.4006  -43.0905 H         1 UNK         0.0600 
    179 H179        0.1745  -13.9457  -43.4253 H         1 UNK         0.3000 
    180 H180       -2.2312  -12.8309  -44.0449 H         1 UNK         0.0600 
    181 H181       -1.4661  -11.1069  -46.4571 H         1 UNK         0.0600 
    182 H182       -2.4255  -10.5870  -45.0755 H         1 UNK         0.0600 
    183 H183       -3.0545  -11.8138  -46.1606 H         1 UNK         0.0600 
    184 H184       -1.0337  -13.5231  -46.6260 H         1 UNK         0.3000 
    185 H185       -0.0632  -16.7546  -45.7658 H         1 UNK         0.0600 
    186 H186       -2.7439  -16.1753  -47.1425 H         1 UNK         0.0600 
    187 H187       -1.7795  -17.6256  -47.3785 H         1 UNK         0.0600 
    188 H188       -2.4884  -17.2946  -45.8078 H         1 UNK         0.0600 
    189 H189       -0.4851  -15.9137  -48.3369 H         1 UNK         0.3000 
    190 H190       -1.3919  -21.9929  -44.3920 H         1 UNK         0.3000 
    191 H191       -3.8776  -23.2578  -45.0447 H         1 UNK         0.0600 
    192 H192       -3.5899  -21.9971  -42.9492 H         1 UNK         0.0600 
    193 H193       -4.0101  -23.6618  -42.5816 H         1 UNK         0.0600 
    194 H194       -2.3480  -23.1183  -42.3956 H         1 UNK         0.0600 
    195 H195       -0.7234  -24.5671  -43.8807 H         1 UNK         0.3000 
    196 H196       -1.4772  -27.3012  -43.8431 H         1 UNK         0.0600 
    197 H197        0.9923  -27.6971  -43.7863 H         1 UNK         0.0600 
    198 H198        0.5154  -26.4324  -42.6637 H         1 UNK         0.0600 
    199 H199        1.2798  -26.0096  -44.1939 H         1 UNK         0.0600 
    200 H200       -0.1294  -25.2793  -46.4566 H         1 UNK         0.3000 
    201 H201        0.0595  -27.3631  -48.4277 H         1 UNK         0.0600 
    202 H202        1.3509  -25.2232  -48.5258 H         1 UNK         0.0600 
    203 H203       -0.1488  -24.3221  -48.7488 H         1 UNK         0.0600 
    204 H204        0.3936  -25.4529  -49.9805 H         1 UNK         0.0600 
    205 H205       -2.6600  -25.7918  -47.0961 H         1 UNK         0.3000 
    206 H206       -4.8168  -25.6508  -47.4873 H         1 UNK         0.0600 
    207 H207       -4.6836  -28.1308  -47.7324 H         1 UNK         0.0600 
    208 H208       -5.9674  -27.4506  -48.7193 H         1 UNK         0.0600 
    209 H209       -4.4631  -27.9585  -49.4732 H         1 UNK         0.0600 
    210 H210       -3.4633  -23.6794  -48.6049 H         1 UNK         0.3000 
    211 H211       -3.8760  -23.1868  -51.3618 H         1 UNK         0.0600 
    212 H212       -3.5270  -21.2439  -49.0125 H         1 UNK         0.0600 
    213 H213       -3.3158  -20.8252  -50.7067 H         1 UNK         0.0600 
    214 H214       -2.2245  -21.9775  -49.9490 H         1 UNK         0.0600 
    215 H215       -5.3299  -21.7466  -52.4432 H         1 UNK         0.3000 
    216 H216       -7.7771  -20.8591  -51.1247 H         1 UNK         0.0600 
    217 H217       -9.1899  -21.9960  -52.8793 H         1 UNK         0.0600 
    218 H218       -8.3754  -23.1700  -51.8575 H         1 UNK         0.0600 
    219 H219       -7.7680  -22.8429  -53.4777 H         1 UNK         0.0600 
    220 H220       -8.9357  -19.3813  -52.4489 H         1 UNK         0.3000 
    221 H221       -7.3968  -17.3908  -53.6272 H         1 UNK         0.0600 
    222 H222      -10.4035  -17.9294  -53.8583 H         1 UNK         0.0600 
    223 H223       -9.6053  -17.0005  -52.5883 H         1 UNK         0.0600 
    224 H224       -9.6141  -16.4040  -54.2401 H         1 UNK         0.0600 
    225 H225       -6.7448  -16.9204  -55.6216 H         1 UNK         0.3000 
    226 H226       -6.1238  -16.9899  -57.7031 H         1 UNK         0.0600 
    227 H227       -8.5171  -16.6945  -58.3033 H         1 UNK         0.0600 
    228 H228       -7.6651  -17.6410  -59.5134 H         1 UNK         0.0600 
    229 H229       -8.7348  -18.4427  -58.3751 H         1 UNK         0.0600 
    230 H230       -7.3474  -20.1736  -56.7152 H         1 UNK         0.3000 
    231 H231       -5.8947  -21.7962  -58.5110 H         1 UNK         0.0600 
    232 H232       -6.9693  -22.4133  -55.7077 H         1 UNK         0.0600 
    233 H233       -6.4655  -23.6215  -56.8847 H         1 UNK         0.0600 
    234 H234       -7.8507  -22.5941  -57.2230 H         1 UNK         0.0600 
    235 H235       -5.0401  -20.7000  -55.2083 H         1 UNK         0.3000 
    236 H236       -2.1916  -21.5351  -55.6805 H         1 UNK         0.0600 
    237 H237       -3.3135  -22.7975  -53.8116 H         1 UNK         0.0600 
    238 H238       -2.0012  -21.7720  -53.2447 H         1 UNK         0.0600 
    239 H239       -3.6651  -21.2570  -53.0205 H         1 UNK         0.0600 
    240 H240       -4.4203  -19.0579  -54.3122 H         1 UNK         0.3000 
    241 H241       -2.3198  -17.2307  -53.6886 H         1 UNK         0.0600 
    242 H242       -3.4327  -17.8972  -56.8697 H         1 UNK         0.3800 
    243 H243       -2.9750  -16.3618  -57.5539 H         1 UNK         0.3800 
    244 H244       -4.0874  -15.6173  -53.1326 H         1 UNK         0.0800 
    245 H245       -5.2766  -16.5659  -53.9693 H         1 UNK         0.0800 
    246 H246       -4.1322  -16.9120  -49.6237 H         1 UNK         0.0800 
    247 H247       -4.0173  -15.5520  -50.7093 H         1 UNK         0.0800 
@<TRIPOS>BOND
     1    1    2 1    
     2    1  127 1    
     3    1  128 1    
     4    1  129 1    
     5    2    3 2    
     6    2    4 am   BACKBONE|DICT|INTERRES
     7    4    5 1    
     8    4  130 1    
     9    5    6 1    
    10    5   65 1    
    11    5  131 1    
    12    6    7 1    
    13    6  132 1    
    14    6  133 1    
    15    7    8 1    
    16    8    9 1    
    17    8  134 1    
    18    8  135 1    
    19    9   10 ar   
    20    9   14 ar   
    21   10   11 ar   
    22   10  136 1    
    23   11   12 ar   
    24   11  126 1    
    25   12   13 ar   
    26   12  137 1    
    27   13   14 ar   
    28   13   15 1    
    29   14  138 1    
    30   15   16 1    
    31   15  139 1    
    32   15  140 1    
    33   16   17 1    
    34   17   18 1    
    35   17  141 1    
    36   17  142 1    
    37   18   19 1    
    38   18   67 1    
    39   18  143 1    
    40   19   20 am   BACKBONE|DICT|INTERRES
    41   19  144 1    
    42   20   21 2    
    43   20   22 1    
    44   22   23 1    
    45   22   24 1    
    46   22  145 1    
    47   23  146 1    
    48   23  147 1    
    49   23  148 1    
    50   24   25 am   BACKBONE|DICT|INTERRES
    51   24  149 1    
    52   25   26 2    
    53   25   27 1    
    54   27   28 1    
    55   27   29 1    
    56   27  150 1    
    57   28  151 1    
    58   28  152 1    
    59   28  153 1    
    60   29   30 am   BACKBONE|DICT|INTERRES
    61   29  154 1    
    62   30   31 2    
    63   30   32 1    
    64   32   33 1    
    65   32   34 1    
    66   32  155 1    
    67   33  156 1    
    68   33  157 1    
    69   33  158 1    
    70   34   35 am   BACKBONE|DICT|INTERRES
    71   34  159 1    
    72   35   36 2    
    73   35   37 1    
    74   37   38 1    
    75   37   39 1    
    76   37  160 1    
    77   38  161 1    
    78   38  162 1    
    79   38  163 1    
    80   39   40 am   BACKBONE|DICT|INTERRES
    81   39  164 1    
    82   40   41 2    
    83   40   42 1    
    84   42   43 1    
    85   42   44 1    
    86   42  165 1    
    87   43  166 1    
    88   43  167 1    
    89   43  168 1    
    90   44   45 am   BACKBONE|DICT|INTERRES
    91   44  169 1    
    92   45   46 2    
    93   45   47 1    
    94   47   48 1    
    95   47   49 1    
    96   47  170 1    
    97   48  171 1    
    98   48  172 1    
    99   48  173 1    
   100   49   50 am   BACKBONE|DICT|INTERRES
   101   49  174 1    
   102   50   51 2    
   103   50   52 1    
   104   52   53 1    
   105   52   54 1    
   106   52  175 1    
   107   53  176 1    
   108   53  177 1    
   109   53  178 1    
   110   54   55 am   BACKBONE|DICT|INTERRES
   111   54  179 1    
   112   55   56 2    
   113   55   57 1    
   114   57   58 1    
   115   57   59 1    
   116   57  180 1    
   117   58  181 1    
   118   58  182 1    
   119   58  183 1    
   120   59   60 am   BACKBONE|DICT|INTERRES
   121   59  184 1    
   122   60   61 2    
   123   60   62 1    
   124   62   63 1    
   125   62   64 1    
   126   62  185 1    
   127   63  186 1    
   128   63  187 1    
   129   63  188 1    
   130   64   65 am   BACKBONE|DICT|INTERRES
   131   64  189 1    
   132   65   66 2    
   133   67   68 2    
   134   67   69 am   BACKBONE|DICT|INTERRES
   135   69   70 1    
   136   69  190 1    
   137   70   71 1    
   138   70   72 1    
   139   70  191 1    
   140   71  192 1    
   141   71  193 1    
   142   71  194 1    
   143   72   73 2    
   144   72   74 am   BACKBONE|DICT|INTERRES
   145   74   75 1    
   146   74  195 1    
   147   75   76 1    
   148   75   77 1    
   149   75  196 1    
   150   76  197 1    
   151   76  198 1    
   152   76  199 1    
   153   77   78 2    
   154   77   79 am   BACKBONE|DICT|INTERRES
   155   79   80 1    
   156   79  200 1    
   157   80   81 1    
   158   80   82 1    
   159   80  201 1    
   160   81  202 1    
   161   81  203 1    
   162   81  204 1    
   163   82   83 2    
   164   82   84 am   BACKBONE|DICT|INTERRES
   165   84   85 1    
   166   84  205 1    
   167   85   86 1    
   168   85   87 1    
   169   85  206 1    
   170   86  207 1    
   171   86  208 1    
   172   86  209 1    
   173   87   88 2    
   174   87   89 am   BACKBONE|DICT|INTERRES
   175   89   90 1    
   176   89  210 1    
   177   90   91 1    
   178   90   92 1    
   179   90  211 1    
   180   91  212 1    
   181   91  213 1    
   182   91  214 1    
   183   92   93 2    
   184   92   94 am   BACKBONE|DICT|INTERRES
   185   94   95 1    
   186   94  215 1    
   187   95   96 1    
   188   95   97 1    
   189   95  216 1    
   190   96  217 1    
   191   96  218 1    
   192   96  219 1    
   193   97   98 2    
   194   97   99 am   BACKBONE|DICT|INTERRES
   195   99  100 1    
   196   99  220 1    
   197  100  101 1    
   198  100  102 1    
   199  100  221 1    
   200  101  222 1    
   201  101  223 1    
   202  101  224 1    
   203  102  103 2    
   204  102  104 am   BACKBONE|DICT|INTERRES
   205  104  105 1    
   206  104  225 1    
   207  105  106 1    
   208  105  107 1    
   209  105  226 1    
   210  106  227 1    
   211  106  228 1    
   212  106  229 1    
   213  107  108 2    
   214  107  109 am   BACKBONE|DICT|INTERRES
   215  109  110 1    
   216  109  230 1    
   217  110  111 1    
   218  110  112 1    
   219  110  231 1    
   220  111  232 1    
   221  111  233 1    
   222  111  234 1    
   223  112  113 2    
   224  112  114 am   BACKBONE|DICT|INTERRES
   225  114  115 1    
   226  114  235 1    
   227  115  116 1    
   228  115  117 1    
   229  115  236 1    
   230  116  237 1    
   231  116  238 1    
   232  116  239 1    
   233  117  118 2    
   234  117  119 am   BACKBONE|DICT|INTERRES
   235  119  120 1    
   236  119  240 1    
   237  120  121 1    
   238  120  124 1    
   239  120  241 1    
   240  121  122 am   BACKBONE|DICT|INTERRES
   241  121  123 2    
   242  122  242 1    
   243  122  243 1    
   244  124  125 1    
   245  124  244 1    
   246  124  245 1    
   247  125  126 1    
   248  126  246 1    
   249  126  247 1    
@<TRIPOS>SUBSTRUCTURE
     1 UNK         1 GROUP             0       ****    0 ROOT    
