@<TRIPOS>MOLECULE
3R540
247   249    1
SMALL
USER_CHARGES


@<TRIPOS>ATOM
      1 CA         -1.7420  -11.8639  -44.0913 C.3       0 UNK        -0.1800 
      2 C          -1.1164  -10.7553  -44.9247 C.2       0 UNK         0.5000 
      3 O          -0.6645   -9.7478  -44.3811 O.2       0 UNK        -0.5000 
      4 N          -1.0946  -10.9438  -46.2483 N.am      1 UNK        -0.5000 
      5 CA         -0.5401  -10.0099  -47.2379 C.3       1 UNK         0.1400 
      6 C6         -1.1275  -10.2543  -48.6534 C.3       23 UNK        -0.0398 
      7 S7         -1.1561  -12.0123  -49.1664 S.3       23 UNK        -0.2404 
      8 C8         -2.9445  -12.3357  -49.0772 C.3       23 UNK        -0.0205 
      9 C9         -3.2738  -13.7977  -49.3292 C.ar      23 UNK        -0.0193 
     10 C10        -3.4620  -14.2610  -50.6354 C.ar      23 UNK        -0.1150 
     11 C11        -3.8196  -15.5919  -50.8709 C.ar      23 UNK        -0.0193 
     12 C12        -3.9856  -16.4566  -49.7866 C.ar      23 UNK        -0.1150 
     13 C13        -3.7723  -16.0163  -48.4785 C.ar      23 UNK        -0.0193 
     14 C14        -3.4239  -14.6810  -48.2551 C.ar      23 UNK        -0.1150 
     15 C15        -3.9353  -16.9816  -47.3136 C.3       23 UNK        -0.0205 
     16 S16        -2.3863  -17.8715  -46.9623 S.3       23 UNK        -0.2404 
     17 C17        -2.9123  -18.9772  -45.6084 C.3       23 UNK        -0.0398 
     18 CA         -2.8388  -20.4684  -46.0178 C.3       11 UNK         0.1400 
     19 N          -1.4596  -20.9204  -46.2028 N.am      11 UNK        -0.5000 
     20 C          -1.0829  -21.8223  -47.1158 C.2       10 UNK         0.5000 
     21 O          -1.8567  -22.3625  -47.9016 O.2       10 UNK        -0.5000 
     22 CA          0.3998  -22.2351  -47.1168 C.3       10 UNK         0.1400 
     23 CB          1.2578  -21.1594  -47.7996 C.3       10 UNK        -0.1800 
     24 N           0.9164  -22.4909  -45.7733 N.am      10 UNK        -0.5000 
     25 C           0.3946  -23.3609  -44.8964 C.2       9 UNK         0.5000 
     26 O          -0.5468  -24.1125  -45.1531 O.2       9 UNK        -0.5000 
     27 CA          0.9807  -23.3487  -43.4720 C.3       9 UNK         0.1400 
     28 CB          2.0411  -24.4485  -43.3217 C.3       9 UNK        -0.1800 
     29 N           1.5575  -22.0594  -43.0708 N.am      9 UNK        -0.5000 
     30 C           0.9005  -20.8917  -43.0309 C.2       8 UNK         0.5000 
     31 O          -0.2778  -20.7529  -43.3708 O.2       8 UNK        -0.5000 
     32 CA          1.7235  -19.6647  -42.6197 C.3       8 UNK         0.1400 
     33 CB          2.3794  -19.0368  -43.8556 C.3       8 UNK        -0.1800 
     34 N           0.8702  -18.6641  -41.9904 N.am      8 UNK        -0.5000 
     35 C           0.5593  -18.6367  -40.6888 C.2       7 UNK         0.5000 
     36 O           0.9646  -19.4727  -39.8787 O.2       7 UNK        -0.5000 
     37 CA         -0.3535  -17.4828  -40.2135 C.3       7 UNK         0.1400 
     38 CB         -0.0809  -17.0720  -38.7513 C.3       7 UNK        -0.1800 
     39 N          -0.3302  -16.3087  -41.0962 N.am      7 UNK        -0.5000 
     40 C           0.7242  -15.5396  -41.4087 C.2       6 UNK         0.5000 
     41 O           1.8548  -15.6847  -40.9407 O.2       6 UNK        -0.5000 
     42 CA          0.4608  -14.4390  -42.4548 C.3       6 UNK         0.1400 
     43 CB          1.2177  -13.1443  -42.1109 C.3       6 UNK        -0.1800 
     44 N           0.8133  -14.8379  -43.8198 N.am      6 UNK        -0.5000 
     45 C           0.3469  -15.8951  -44.5020 C.2       5 UNK         0.5000 
     46 O          -0.4043  -16.7456  -44.0247 O.2       5 UNK        -0.5000 
     47 CA          0.7892  -16.0221  -45.9689 C.3       5 UNK         0.1400 
     48 CB          0.0308  -15.0118  -46.8458 C.3       5 UNK        -0.1800 
     49 N           2.2262  -15.7960  -46.1127 N.am      5 UNK        -0.5000 
     50 C           3.1158  -16.7090  -46.5271 C.2       4 UNK         0.5000 
     51 O           2.8110  -17.8505  -46.8723 O.2       4 UNK        -0.5000 
     52 CA          4.6009  -16.2899  -46.5906 C.3       4 UNK         0.1400 
     53 CB          5.0673  -16.1872  -48.0517 C.3       4 UNK        -0.1800 
     54 N           4.8822  -15.0174  -45.9260 N.am      4 UNK        -0.5000 
     55 C           4.9294  -14.8248  -44.6008 C.2       3 UNK         0.5000 
     56 O           4.8308  -15.7316  -43.7750 O.2       3 UNK        -0.5000 
     57 CA          5.0765  -13.3642  -44.1210 C.3       3 UNK         0.1400 
     58 CB          6.5386  -13.0627  -43.7591 C.3       3 UNK        -0.1800 
     59 N           4.6085  -12.3654  -45.0928 N.am      3 UNK        -0.5000 
     60 C           3.3524  -12.2682  -45.5468 C.2       2 UNK         0.5000 
     61 O           2.4407  -13.0206  -45.1915 O.2       2 UNK        -0.5000 
     62 CA          3.0831  -11.2084  -46.6210 C.3       2 UNK         0.1400 
     63 CB          3.6627  -11.6502  -47.9781 C.3       2 UNK        -0.1800 
     64 N           1.6405  -11.0365  -46.7323 N.am      2 UNK        -0.5000 
     65 C           1.0049   -9.9862  -47.2598 C.2       1 UNK         0.5000 
     66 O           1.5865   -9.0145  -47.7456 O.2       1 UNK        -0.5000 
     67 C          -3.5645  -21.3528  -44.9867 C.2       11 UNK         0.5000 
     68 O          -4.7249  -21.7004  -45.2041 O.2       11 UNK        -0.5000 
     69 N          -2.8880  -21.6845  -43.8784 N.am      12 UNK        -0.5000 
     70 CA         -3.4954  -22.3246  -42.7115 C.3       12 UNK         0.1400 
     71 CB         -2.5868  -22.1156  -41.4899 C.3       12 UNK        -0.1800 
     72 C          -3.8200  -23.8183  -42.8922 C.2       12 UNK         0.5000 
     73 O          -4.7946  -24.2831  -42.2989 O.2       12 UNK        -0.5000 
     74 N          -3.0076  -24.5454  -43.6713 N.am      13 UNK        -0.5000 
     75 CA         -3.1271  -25.9942  -43.8499 C.3       13 UNK         0.1400 
     76 CB         -1.8562  -26.6860  -43.3275 C.3       13 UNK        -0.1800 
     77 C          -3.3936  -26.3646  -45.3152 C.2       13 UNK         0.5000 
     78 O          -4.3149  -27.1372  -45.5814 O.2       13 UNK        -0.5000 
     79 N          -2.5958  -25.8156  -46.2420 N.am      14 UNK        -0.5000 
     80 CA         -2.6872  -26.1185  -47.6750 C.3       14 UNK         0.1400 
     81 CB         -1.3355  -25.8266  -48.3432 C.3       14 UNK        -0.1800 
     82 C          -3.8364  -25.3815  -48.3928 C.2       14 UNK         0.5000 
     83 O          -4.1998  -25.7770  -49.5005 O.2       14 UNK        -0.5000 
     84 N          -4.3889  -24.3396  -47.7526 N.am      15 UNK        -0.5000 
     85 CA         -5.5047  -23.5048  -48.2138 C.3       15 UNK         0.1400 
     86 CB         -6.8229  -24.3064  -48.2271 C.3       15 UNK        -0.1800 
     87 C          -5.2186  -22.7427  -49.5274 C.2       15 UNK         0.5000 
     88 O          -6.1343  -22.5004  -50.3161 O.2       15 UNK        -0.5000 
     89 N          -3.9488  -22.3499  -49.7009 N.am      16 UNK        -0.5000 
     90 CA         -3.3687  -21.4510  -50.6972 C.3       16 UNK         0.1400 
     91 CB         -3.6103  -19.9954  -50.2711 C.3       16 UNK        -0.1800 
     92 C          -3.8018  -21.7322  -52.1450 C.2       16 UNK         0.5000 
     93 O          -3.1684  -22.5438  -52.8194 O.2       16 UNK        -0.5000 
     94 N          -4.8721  -21.0669  -52.5994 N.am      17 UNK        -0.5000 
     95 CA         -5.4776  -21.2241  -53.9218 C.3       17 UNK         0.1400 
     96 CB         -6.6236  -20.2137  -54.0713 C.3       17 UNK        -0.1800 
     97 C          -5.9682  -22.6557  -54.2157 C.2       17 UNK         0.5000 
     98 O          -5.9606  -23.0608  -55.3775 O.2       17 UNK        -0.5000 
     99 N          -6.3179  -23.4201  -53.1699 N.am      18 UNK        -0.5000 
    100 CA        -6.6536  -24.8450  -53.2609 C.3       18 UNK         0.1400 
    101 CB        -7.2293  -25.3126  -51.9186 C.3       18 UNK        -0.1800 
    102 C         -5.4506  -25.7267  -53.6582 C.2       18 UNK         0.5000 
    103 O         -5.6435  -26.7672  -54.2874 O.2       18 UNK        -0.5000 
    104 N         -4.2367  -25.2795  -53.3111 N.am      19 UNK        -0.5000 
    105 CA        -2.9597  -25.8831  -53.6951 C.3       19 UNK         0.1400 
    106 CB        -2.0220  -25.8454  -52.4760 C.3       19 UNK        -0.1800 
    107 C         -2.3257  -25.1623  -54.9047 C.2       19 UNK         0.5000 
    108 O         -1.1997  -25.4907  -55.2798 O.2       19 UNK        -0.5000 
    109 N         -3.0469  -24.1853  -55.4779 N.am      20 UNK        -0.5000 
    110 CA        -2.6645  -23.2967  -56.5792 C.3       20 UNK         0.1400 
    111 CB        -2.4330  -24.0953  -57.8786 C.3       20 UNK        -0.1800 
    112 C         -1.4931  -22.3464  -56.2470 C.2       20 UNK         0.5000 
    113 O         -0.8649  -21.8182  -57.1664 O.2       20 UNK        -0.5000 
    114 N         -1.2334  -22.1007  -54.9530 N.am      21 UNK        -0.5000 
    115 CA        -0.1335  -21.2566  -54.4700 C.3       21 UNK         0.1400 
    116 CB         0.0007  -21.4105  -52.9474 C.3       21 UNK        -0.1800 
    117 C         -0.2950  -19.7718  -54.8495 C.2       21 UNK         0.5000 
    118 O          0.7044  -19.0891  -55.0767 O.2       21 UNK        -0.5000 
    119 N         -1.5510  -19.3198  -54.9404 N.am      22 UNK        -0.5000 
    120 CA        -1.9452  -17.9894  -55.4313 C.3       22 UNK         0.1400 
    121 C         -2.2475  -17.9634  -56.9610 C.2       22 UNK         0.5000 
    122 N         -1.9986  -19.0261  -57.7191 N.am      22 UNK        -0.7600 
    123 O         -2.7051  -16.9500  -57.4821 O.2       22 UNK        -0.5000 
    124 C124       -3.1147  -17.4019  -54.5969 C.3       23 UNK        -0.0398 
    125 S125       -2.6271  -17.0855  -52.8680 S.3       23 UNK        -0.2404 
    126 C126       -4.0405  -16.0968  -52.2895 C.3       23 UNK        -0.0205 
    127 H127       -1.4880  -12.8461  -44.4912 H         1 UNK         0.0600 
    128 H128       -2.8272  -11.7626  -44.0856 H         1 UNK         0.0600 
    129 H129       -1.3922  -11.8144  -43.0604 H         1 UNK         0.0600 
    130 H130       -1.4730  -11.7955  -46.6374 H         1 UNK         0.3000 
    131 H131       -0.8436   -9.0039  -46.9395 H         1 UNK         0.0600 
    132 H132       -2.1444   -9.8612  -48.6828 H         1 UNK         0.0800 
    133 H133       -0.5860   -9.6812  -49.4085 H         1 UNK         0.0800 
    134 H134       -3.4597  -11.7115  -49.8091 H         1 UNK         0.0800 
    135 H135       -3.3233  -12.0345  -48.0992 H         1 UNK         0.0800 
    136 H136       -3.3396  -13.5812  -51.4670 H         1 UNK         0.1150 
    137 H137       -4.2778  -17.4780  -49.9632 H         1 UNK         0.1150 
    138 H138       -3.2760  -14.3283  -47.2442 H         1 UNK         0.1150 
    139 H139       -4.7240  -17.7018  -47.5373 H         1 UNK         0.0800 
    140 H140       -4.2523  -16.4402  -46.4208 H         1 UNK         0.0800 
    141 H141       -2.2792  -18.7839  -44.7401 H         1 UNK         0.0800 
    142 H142       -3.9264  -18.7082  -45.3074 H         1 UNK         0.0800 
    143 H143       -3.3842  -20.5749  -46.9585 H         1 UNK         0.0600 
    144 H144       -0.7771  -20.5720  -45.5427 H         1 UNK         0.3000 
    145 H145        0.4939  -23.1594  -47.6886 H         1 UNK         0.0600 
    146 H146        0.9006  -20.9591  -48.8107 H         1 UNK         0.0600 
    147 H147        2.2980  -21.4752  -47.8800 H         1 UNK         0.0600 
    148 H148        1.2357  -20.2162  -47.2517 H         1 UNK         0.0600 
    149 H149        1.6882  -21.9173  -45.4692 H         1 UNK         0.3000 
    150 H150        0.1626  -23.5734  -42.7862 H         1 UNK         0.0600 
    151 H151        2.9045  -24.2658  -43.9626 H         1 UNK         0.0600 
    152 H152        1.6330  -25.4241  -43.5903 H         1 UNK         0.0600 
    153 H153        2.3940  -24.5189  -42.2927 H         1 UNK         0.0600 
    154 H154        2.5287  -22.0778  -42.7941 H         1 UNK         0.3000 
    155 H155        2.5068  -19.9693  -41.9224 H         1 UNK         0.0600 
    156 H156        2.9303  -18.1319  -43.5963 H         1 UNK         0.0600 
    157 H157        1.6348  -18.7718  -44.6071 H         1 UNK         0.0600 
    158 H158        3.0851  -19.7247  -44.3226 H         1 UNK         0.0600 
    159 H159        0.4383  -17.9845  -42.6074 H         1 UNK         0.3000 
    160 H160       -1.3710  -17.8734  -40.2597 H         1 UNK         0.0600 
    161 H161        0.9472  -16.7376  -38.6094 H         1 UNK         0.0600 
    162 H162       -0.2485  -17.9079  -38.0711 H         1 UNK         0.0600 
    163 H163       -0.7429  -16.2646  -38.4383 H         1 UNK         0.0600 
    164 H164       -1.1923  -16.1371  -41.5955 H         1 UNK         0.3000 
    165 H165       -0.6064  -14.2106  -42.4464 H         1 UNK         0.0600 
    166 H166        0.9828  -12.3453  -42.8138 H         1 UNK         0.0600 
    167 H167        0.9534  -12.7899  -41.1139 H         1 UNK         0.0600 
    168 H168        2.2976  -13.2930  -42.1316 H         1 UNK         0.0600 
    169 H169        1.4342  -14.1947  -44.3048 H         1 UNK         0.3000 
    170 H170        0.5211  -17.0266  -46.3028 H         1 UNK         0.0600 
    171 H171        0.2415  -15.1724  -47.9032 H         1 UNK         0.0600 
    172 H172        0.2925  -13.9812  -46.6063 H         1 UNK         0.0600 
    173 H173       -1.0453  -15.1148  -46.7114 H         1 UNK         0.0600 
    174 H174        2.5612  -14.8810  -45.8349 H         1 UNK         0.3000 
    175 H175        5.1812  -17.0736  -46.0992 H         1 UNK         0.0600 
    176 H176        4.9136  -17.1294  -48.5796 H         1 UNK         0.0600 
    177 H177        4.5214  -15.4144  -48.5946 H         1 UNK         0.0600 
    178 H178        6.1305  -15.9539  -48.1117 H         1 UNK         0.0600 
    179 H179        4.9895  -14.2127  -46.5251 H         1 UNK         0.3000 
    180 H180        4.4727  -13.2582  -43.2179 H         1 UNK         0.0600 
    181 H181        7.1905  -13.1277  -44.6311 H         1 UNK         0.0600 
    182 H182        6.9116  -13.7698  -43.0168 H         1 UNK         0.0600 
    183 H183        6.6425  -12.0641  -43.3343 H         1 UNK         0.0600 
    184 H184        5.3045  -11.7201  -45.4387 H         1 UNK         0.3000 
    185 H185        3.5390  -10.2682  -46.3045 H         1 UNK         0.0600 
    186 H186        4.7426  -11.7909  -47.9215 H         1 UNK         0.0600 
    187 H187        3.2239  -12.5911  -48.3135 H         1 UNK         0.0600 
    188 H188        3.4780  -10.9038  -48.7507 H         1 UNK         0.0600 
    189 H189        1.1028  -11.7765  -46.3003 H         1 UNK         0.3000 
    190 H190       -1.9313  -21.3550  -43.7616 H         1 UNK         0.3000 
    191 H191       -4.4391  -21.8138  -42.5073 H         1 UNK         0.0600 
    192 H192       -2.4055  -21.0559  -41.3086 H         1 UNK         0.0600 
    193 H193       -3.0431  -22.5261  -40.5882 H         1 UNK         0.0600 
    194 H194       -1.6202  -22.6018  -41.6173 H         1 UNK         0.0600 
    195 H195       -2.2337  -24.0953  -44.1480 H         1 UNK         0.3000 
    196 H196       -3.9659  -26.3857  -43.2708 H         1 UNK         0.0600 
    197 H197       -1.9359  -27.7695  -43.4243 H         1 UNK         0.0600 
    198 H198       -1.6959  -26.4655  -42.2721 H         1 UNK         0.0600 
    199 H199       -0.9645  -26.3753  -43.8715 H         1 UNK         0.0600 
    200 H200       -1.8411  -25.2005  -45.9469 H         1 UNK         0.3000 
    201 H201       -2.8795  -27.1876  -47.7879 H         1 UNK         0.0600 
    202 H202       -1.3508  -26.1080  -49.3964 H         1 UNK         0.0600 
    203 H203       -0.5307  -26.3881  -47.8685 H         1 UNK         0.0600 
    204 H204       -1.0809  -24.7711  -48.2930 H         1 UNK         0.0600 
    205 H205       -3.9934  -24.0868  -46.8586 H         1 UNK         0.3000 
    206 H206       -5.6231  -22.7241  -47.4628 H         1 UNK         0.0600 
    207 H207       -7.0547  -24.6847  -47.2315 H         1 UNK         0.0600 
    208 H208       -7.6640  -23.6857  -48.5379 H         1 UNK         0.0600 
    209 H209       -6.7776  -25.1615  -48.8990 H         1 UNK         0.0600 
    210 H210       -3.2825  -22.6201  -48.9791 H         1 UNK         0.3000 
    211 H211       -2.2928  -21.6252  -50.6620 H         1 UNK         0.0600 
    212 H212       -4.6710  -19.7763  -50.1460 H         1 UNK         0.0600 
    213 H213       -3.2031  -19.3032  -51.0077 H         1 UNK         0.0600 
    214 H214       -3.1143  -19.7817  -49.3245 H         1 UNK         0.0600 
    215 H215       -5.3581  -20.4614  -51.9542 H         1 UNK         0.3000 
    216 H216       -4.7126  -20.9848  -54.6632 H         1 UNK         0.0600 
    217 H217       -7.0773  -20.2805  -55.0611 H         1 UNK         0.0600 
    218 H218       -7.4105  -20.3885  -53.3364 H         1 UNK         0.0600 
    219 H219       -6.2681  -19.1907  -53.9462 H         1 UNK         0.0600 
    220 H220       -6.2868  -23.0176  -52.2368 H         1 UNK         0.3000 
    221 H221       -7.4240  -24.9629  -54.0257 H         1 UNK         0.0600 
    222 H222       -6.4712  -25.2738  -51.1372 H         1 UNK         0.0600 
    223 H223       -8.0709  -24.6944  -51.6057 H         1 UNK         0.0600 
    224 H224       -7.5825  -26.3425  -51.9814 H         1 UNK         0.0600 
    225 H225       -4.1647  -24.3952  -52.8216 H         1 UNK         0.3000 
    226 H226       -3.1068  -26.9268  -53.9794 H         1 UNK         0.0600 
    227 H227       -1.0656  -26.3203  -52.6976 H         1 UNK         0.0600 
    228 H228       -1.8159  -24.8238  -52.1547 H         1 UNK         0.0600 
    229 H229       -2.4590  -26.3790  -51.6321 H         1 UNK         0.0600 
    230 H230       -3.9674  -24.0119  -55.0964 H         1 UNK         0.3000 
    231 H231       -3.5257  -22.6492  -56.7481 H         1 UNK         0.0600 
    232 H232       -1.5348  -24.7106  -57.8229 H         1 UNK         0.0600 
    233 H233       -2.3174  -23.4281  -58.7335 H         1 UNK         0.0600 
    234 H234       -3.2770  -24.7507  -58.0939 H         1 UNK         0.0600 
    235 H235       -1.8298  -22.5203  -54.2457 H         1 UNK         0.3000 
    236 H236        0.7875  -21.6199  -54.9308 H         1 UNK         0.0600 
    237 H237       -0.8464  -20.9673  -52.4254 H         1 UNK         0.0600 
    238 H238        0.0684  -22.4588  -52.6557 H         1 UNK         0.0600 
    239 H239        0.9005  -20.9114  -52.5857 H         1 UNK         0.0600 
    240 H240       -2.3016  -19.9625  -54.7415 H         1 UNK         0.3000 
    241 H241       -1.0998  -17.3097  -55.3101 H         1 UNK         0.0600 
    242 H242       -1.5678  -19.8610  -57.3421 H         1 UNK         0.3800 
    243 H243       -2.1962  -18.9767  -58.7061 H         1 UNK         0.3800 
    244 H244       -3.9753  -18.0724  -54.6103 H         1 UNK         0.0800 
    245 H245       -3.4529  -16.4551  -55.0214 H         1 UNK         0.0800 
    246 H246       -4.1998  -15.2576  -52.9684 H         1 UNK         0.0800 
    247 H247       -4.9465  -16.7036  -52.3273 H         1 UNK         0.0800 
@<TRIPOS>BOND
     1    1    2 1    
     2    1  127 1    
     3    1  128 1    
     4    1  129 1    
     5    2    3 2    
     6    2    4 am   BACKBONE|DICT|INTERRES
     7    4    5 1    
     8    4  130 1    
     9    5    6 1    
    10    5   65 1    
    11    5  131 1    
    12    6    7 1    
    13    6  132 1    
    14    6  133 1    
    15    7    8 1    
    16    8    9 1    
    17    8  134 1    
    18    8  135 1    
    19    9   10 ar   
    20    9   14 ar   
    21   10   11 ar   
    22   10  136 1    
    23   11   12 ar   
    24   11  126 1    
    25   12   13 ar   
    26   12  137 1    
    27   13   14 ar   
    28   13   15 1    
    29   14  138 1    
    30   15   16 1    
    31   15  139 1    
    32   15  140 1    
    33   16   17 1    
    34   17   18 1    
    35   17  141 1    
    36   17  142 1    
    37   18   19 1    
    38   18   67 1    
    39   18  143 1    
    40   19   20 am   BACKBONE|DICT|INTERRES
    41   19  144 1    
    42   20   21 2    
    43   20   22 1    
    44   22   23 1    
    45   22   24 1    
    46   22  145 1    
    47   23  146 1    
    48   23  147 1    
    49   23  148 1    
    50   24   25 am   BACKBONE|DICT|INTERRES
    51   24  149 1    
    52   25   26 2    
    53   25   27 1    
    54   27   28 1    
    55   27   29 1    
    56   27  150 1    
    57   28  151 1    
    58   28  152 1    
    59   28  153 1    
    60   29   30 am   BACKBONE|DICT|INTERRES
    61   29  154 1    
    62   30   31 2    
    63   30   32 1    
    64   32   33 1    
    65   32   34 1    
    66   32  155 1    
    67   33  156 1    
    68   33  157 1    
    69   33  158 1    
    70   34   35 am   BACKBONE|DICT|INTERRES
    71   34  159 1    
    72   35   36 2    
    73   35   37 1    
    74   37   38 1    
    75   37   39 1    
    76   37  160 1    
    77   38  161 1    
    78   38  162 1    
    79   38  163 1    
    80   39   40 am   BACKBONE|DICT|INTERRES
    81   39  164 1    
    82   40   41 2    
    83   40   42 1    
    84   42   43 1    
    85   42   44 1    
    86   42  165 1    
    87   43  166 1    
    88   43  167 1    
    89   43  168 1    
    90   44   45 am   BACKBONE|DICT|INTERRES
    91   44  169 1    
    92   45   46 2    
    93   45   47 1    
    94   47   48 1    
    95   47   49 1    
    96   47  170 1    
    97   48  171 1    
    98   48  172 1    
    99   48  173 1    
   100   49   50 am   BACKBONE|DICT|INTERRES
   101   49  174 1    
   102   50   51 2    
   103   50   52 1    
   104   52   53 1    
   105   52   54 1    
   106   52  175 1    
   107   53  176 1    
   108   53  177 1    
   109   53  178 1    
   110   54   55 am   BACKBONE|DICT|INTERRES
   111   54  179 1    
   112   55   56 2    
   113   55   57 1    
   114   57   58 1    
   115   57   59 1    
   116   57  180 1    
   117   58  181 1    
   118   58  182 1    
   119   58  183 1    
   120   59   60 am   BACKBONE|DICT|INTERRES
   121   59  184 1    
   122   60   61 2    
   123   60   62 1    
   124   62   63 1    
   125   62   64 1    
   126   62  185 1    
   127   63  186 1    
   128   63  187 1    
   129   63  188 1    
   130   64   65 am   BACKBONE|DICT|INTERRES
   131   64  189 1    
   132   65   66 2    
   133   67   68 2    
   134   67   69 am   BACKBONE|DICT|INTERRES
   135   69   70 1    
   136   69  190 1    
   137   70   71 1    
   138   70   72 1    
   139   70  191 1    
   140   71  192 1    
   141   71  193 1    
   142   71  194 1    
   143   72   73 2    
   144   72   74 am   BACKBONE|DICT|INTERRES
   145   74   75 1    
   146   74  195 1    
   147   75   76 1    
   148   75   77 1    
   149   75  196 1    
   150   76  197 1    
   151   76  198 1    
   152   76  199 1    
   153   77   78 2    
   154   77   79 am   BACKBONE|DICT|INTERRES
   155   79   80 1    
   156   79  200 1    
   157   80   81 1    
   158   80   82 1    
   159   80  201 1    
   160   81  202 1    
   161   81  203 1    
   162   81  204 1    
   163   82   83 2    
   164   82   84 am   BACKBONE|DICT|INTERRES
   165   84   85 1    
   166   84  205 1    
   167   85   86 1    
   168   85   87 1    
   169   85  206 1    
   170   86  207 1    
   171   86  208 1    
   172   86  209 1    
   173   87   88 2    
   174   87   89 am   BACKBONE|DICT|INTERRES
   175   89   90 1    
   176   89  210 1    
   177   90   91 1    
   178   90   92 1    
   179   90  211 1    
   180   91  212 1    
   181   91  213 1    
   182   91  214 1    
   183   92   93 2    
   184   92   94 am   BACKBONE|DICT|INTERRES
   185   94   95 1    
   186   94  215 1    
   187   95   96 1    
   188   95   97 1    
   189   95  216 1    
   190   96  217 1    
   191   96  218 1    
   192   96  219 1    
   193   97   98 2    
   194   97   99 am   BACKBONE|DICT|INTERRES
   195   99  100 1    
   196   99  220 1    
   197  100  101 1    
   198  100  102 1    
   199  100  221 1    
   200  101  222 1    
   201  101  223 1    
   202  101  224 1    
   203  102  103 2    
   204  102  104 am   BACKBONE|DICT|INTERRES
   205  104  105 1    
   206  104  225 1    
   207  105  106 1    
   208  105  107 1    
   209  105  226 1    
   210  106  227 1    
   211  106  228 1    
   212  106  229 1    
   213  107  108 2    
   214  107  109 am   BACKBONE|DICT|INTERRES
   215  109  110 1    
   216  109  230 1    
   217  110  111 1    
   218  110  112 1    
   219  110  231 1    
   220  111  232 1    
   221  111  233 1    
   222  111  234 1    
   223  112  113 2    
   224  112  114 am   BACKBONE|DICT|INTERRES
   225  114  115 1    
   226  114  235 1    
   227  115  116 1    
   228  115  117 1    
   229  115  236 1    
   230  116  237 1    
   231  116  238 1    
   232  116  239 1    
   233  117  118 2    
   234  117  119 am   BACKBONE|DICT|INTERRES
   235  119  120 1    
   236  119  240 1    
   237  120  121 1    
   238  120  124 1    
   239  120  241 1    
   240  121  122 am   BACKBONE|DICT|INTERRES
   241  121  123 2    
   242  122  242 1    
   243  122  243 1    
   244  124  125 1    
   245  124  244 1    
   246  124  245 1    
   247  125  126 1    
   248  126  246 1    
   249  126  247 1    
@<TRIPOS>SUBSTRUCTURE
     1 UNK         1 GROUP             0       ****    0 ROOT    
