@<TRIPOS>MOLECULE
3R540
247   249    1
SMALL
USER_CHARGES


@<TRIPOS>ATOM
      1 CA          3.6572  -11.1548  -49.0608 C.3       0 UNK        -0.1800 
      2 C           2.8618  -11.9070  -48.0033 C.2       0 UNK         0.5000 
      3 O           3.4455  -12.4297  -47.0551 O.2       0 UNK        -0.5000 
      4 N           1.5342  -11.9666  -48.1667 N.am      1 UNK        -0.5000 
      5 CA          0.6055  -12.6343  -47.2430 C.3       1 UNK         0.1400 
      6 C6         -0.7488  -12.9675  -47.9186 C.3       23 UNK        -0.0398 
      7 S7         -0.5481  -13.9643  -49.4351 S.3       23 UNK        -0.2404 
      8 C8         -1.1595  -15.5881  -48.8938 C.3       23 UNK        -0.0205 
      9 C9         -0.8471  -16.6543  -49.9301 C.ar      23 UNK        -0.0193 
     10 C10        -1.6383  -16.7771  -51.0772 C.ar      23 UNK        -0.1150 
     11 C11        -1.3251  -17.7265  -52.0543 C.ar      23 UNK        -0.0193 
     12 C12        -0.2223  -18.5641  -51.8683 C.ar      23 UNK        -0.1150 
     13 C13         0.5650  -18.4632  -50.7189 C.ar      23 UNK        -0.0193 
     14 C14         0.2493  -17.5040  -49.7531 C.ar      23 UNK        -0.1150 
     15 C15         1.7716  -19.3724  -50.5425 C.3       23 UNK        -0.0205 
     16 S16         1.2925  -21.0394  -49.9945 S.3       23 UNK        -0.2404 
     17 C17         0.9077  -20.7379  -48.2373 C.3       23 UNK        -0.0398 
     18 CA          0.3832  -22.0073  -47.5249 C.3       11 UNK         0.1400 
     19 N           0.5646  -21.9380  -46.0729 N.am      11 UNK        -0.5000 
     20 C           0.3628  -22.9618  -45.2308 C.2       10 UNK         0.5000 
     21 O           0.0415  -24.0935  -45.5924 O.2       10 UNK        -0.5000 
     22 CA          0.4898  -22.6593  -43.7277 C.3       10 UNK         0.1400 
     23 CB          1.9640  -22.6111  -43.3003 C.3       10 UNK        -0.1800 
     24 N          -0.1829  -21.4162  -43.3471 N.am      10 UNK        -0.5000 
     25 C          -1.5029  -21.2083  -43.4620 C.2       9 UNK         0.5000 
     26 O          -2.2958  -22.0599  -43.8620 O.2       9 UNK        -0.5000 
     27 CA         -2.0252  -19.8049  -43.1117 C.3       9 UNK         0.1400 
     28 CB         -2.1743  -19.6452  -41.5916 C.3       9 UNK        -0.1800 
     29 N          -1.1821  -18.7340  -43.6429 N.am      9 UNK        -0.5000 
     30 C          -0.9563  -18.5116  -44.9460 C.2       8 UNK         0.5000 
     31 O          -1.4542  -19.1760  -45.8541 O.2       8 UNK        -0.5000 
     32 CA          0.0434  -17.3944  -45.2923 C.3       8 UNK         0.1400 
     33 CB         -0.5890  -16.0085  -45.0962 C.3       8 UNK        -0.1800 
     34 N           1.2750  -17.4909  -44.5099 N.am      8 UNK        -0.5000 
     35 C           2.1083  -18.5416  -44.5281 C.2       7 UNK         0.5000 
     36 O           1.9629  -19.5219  -45.2584 O.2       7 UNK        -0.5000 
     37 CA          3.2683  -18.5162  -43.5204 C.3       7 UNK         0.1400 
     38 CB          4.4398  -17.6786  -44.0533 C.3       7 UNK        -0.1800 
     39 N           2.8409  -18.0049  -42.2178 N.am      7 UNK        -0.5000 
     40 C           2.0270  -18.6646  -41.3808 C.2       6 UNK         0.5000 
     41 O           1.5783  -19.7881  -41.6069 O.2       6 UNK        -0.5000 
     42 CA          1.6117  -17.9266  -40.0954 C.3       6 UNK         0.1400 
     43 CB          2.7048  -18.0437  -39.0229 C.3       6 UNK        -0.1800 
     44 N           1.3114  -16.5143  -40.3334 N.am      6 UNK        -0.5000 
     45 C           0.2773  -16.0758  -41.0648 C.2       5 UNK         0.5000 
     46 O          -0.5543  -16.8182  -41.5841 O.2       5 UNK        -0.5000 
     47 CA          0.1774  -14.5570  -41.2898 C.3       5 UNK         0.1400 
     48 CB         -0.6288  -13.8942  -40.1636 C.3       5 UNK        -0.1800 
     49 N           1.4766  -13.8940  -41.4057 N.am      5 UNK        -0.5000 
     50 C           2.3953  -14.1357  -42.3498 C.2       4 UNK         0.5000 
     51 O           2.2769  -15.0235  -43.1970 O.2       4 UNK        -0.5000 
     52 CA          3.6443  -13.2274  -42.3315 C.3       4 UNK         0.1400 
     53 CB          4.5902  -13.4966  -43.5142 C.3       4 UNK        -0.1800 
     54 N           3.2805  -11.8098  -42.3390 N.am      4 UNK        -0.5000 
     55 C           2.8608  -11.0885  -41.2935 C.2       3 UNK         0.5000 
     56 O           2.7656  -11.5473  -40.1543 O.2       3 UNK        -0.5000 
     57 CA          2.4156   -9.6375  -41.5658 C.3       3 UNK         0.1400 
     58 CB          3.6248   -8.6922  -41.7026 C.3       3 UNK        -0.1800 
     59 N           1.4806   -9.5015  -42.6938 N.am      3 UNK        -0.5000 
     60 C           1.7062   -9.7071  -43.9986 C.2       2 UNK         0.5000 
     61 O           2.8054  -10.0068  -44.4712 O.2       2 UNK        -0.5000 
     62 CA          0.4942   -9.5436  -44.9324 C.3       2 UNK         0.1400 
     63 CB          0.4291   -8.1116  -45.4848 C.3       2 UNK        -0.1800 
     64 N           0.5605  -10.4811  -46.0516 N.am      2 UNK        -0.5000 
     65 C           0.3744  -11.8061  -45.9592 C.2       1 UNK         0.5000 
     66 O           0.0278  -12.3738  -44.9227 O.2       1 UNK        -0.5000 
     67 C          -1.0816  -22.3131  -47.9004 C.2       11 UNK         0.5000 
     68 O          -1.3255  -23.2046  -48.7141 O.2       11 UNK        -0.5000 
     69 N          -2.0288  -21.6116  -47.2596 N.am      12 UNK        -0.5000 
     70 CA         -3.4668  -21.8107  -47.4308 C.3       12 UNK         0.1400 
     71 CB         -4.2425  -20.7423  -46.6472 C.3       12 UNK        -0.1800 
     72 C          -3.9301  -23.2258  -47.0454 C.2       12 UNK         0.5000 
     73 O          -4.7080  -23.8259  -47.7858 O.2       12 UNK        -0.5000 
     74 N          -3.4142  -23.7455  -45.9231 N.am      13 UNK        -0.5000 
     75 CA         -3.6604  -25.1058  -45.4471 C.3       13 UNK         0.1400 
     76 CB         -3.1103  -25.2612  -44.0213 C.3       13 UNK        -0.1800 
     77 C          -3.0721  -26.1797  -46.3797 C.2       13 UNK         0.5000 
     78 O          -3.7505  -27.1679  -46.6603 O.2       13 UNK        -0.5000 
     79 N          -1.8393  -25.9607  -46.8601 N.am      14 UNK        -0.5000 
     80 CA         -1.1373  -26.8519  -47.7868 C.3       14 UNK         0.1400 
     81 CB          0.3283  -26.4100  -47.9172 C.3       14 UNK        -0.1800 
     82 C          -1.8081  -26.9271  -49.1704 C.2       14 UNK         0.5000 
     83 O          -1.9382  -28.0186  -49.7259 O.2       14 UNK        -0.5000 
     84 N          -2.2402  -25.7706  -49.6898 N.am      15 UNK        -0.5000 
     85 CA         -2.9655  -25.6461  -50.9554 C.3       15 UNK         0.1400 
     86 CB         -2.8796  -24.1868  -51.4199 C.3       15 UNK        -0.1800 
     87 C          -4.4389  -26.0874  -50.8596 C.2       15 UNK         0.5000 
     88 O          -5.0591  -26.3403  -51.8930 O.2       15 UNK        -0.5000 
     89 N          -4.9798  -26.1305  -49.6337 N.am      16 UNK        -0.5000 
     90 CA         -6.3465  -26.4637  -49.2135 C.3       16 UNK         0.1400 
     91 CB         -6.7400  -27.8907  -49.6386 C.3       16 UNK        -0.1800 
     92 C          -7.4026  -25.4303  -49.6496 C.2       16 UNK         0.5000 
     93 O          -8.1810  -24.9657  -48.8164 O.2       16 UNK        -0.5000 
     94 N          -7.3997  -25.0753  -50.9387 N.am      17 UNK        -0.5000 
     95 CA         -8.2603  -24.0573  -51.5424 C.3       17 UNK         0.1400 
     96 CB         -8.5061  -24.4419  -53.0099 C.3       17 UNK        -0.1800 
     97 C          -7.6577  -22.6408  -51.4567 C.2       17 UNK         0.5000 
     98 O          -8.3396  -21.6781  -51.8105 O.2       17 UNK        -0.5000 
     99 N          -6.3874  -22.5396  -51.0342 N.am      18 UNK        -0.5000 
    100 CA        -5.5305  -21.3492  -50.9467 C.3       18 UNK         0.1400 
    101 CB        -6.1162  -20.2833  -50.0020 C.3       18 UNK        -0.1800 
    102 C         -5.1565  -20.7600  -52.3175 C.2       18 UNK         0.5000 
    103 O         -3.9718  -20.6720  -52.6397 O.2       18 UNK        -0.5000 
    104 N         -6.1698  -20.4207  -53.1232 N.am      19 UNK        -0.5000 
    105 CA        -6.0479  -19.8624  -54.4711 C.3       19 UNK         0.1400 
    106 CB        -7.4463  -19.4982  -54.9891 C.3       19 UNK        -0.1800 
    107 C         -5.3305  -20.7909  -55.4685 C.2       19 UNK         0.5000 
    108 O         -4.7398  -20.2992  -56.4291 O.2       19 UNK        -0.5000 
    109 N         -5.3459  -22.1052  -55.2051 N.am      20 UNK        -0.5000 
    110 CA        -4.6639  -23.1394  -55.9877 C.3       20 UNK         0.1400 
    111 CB        -5.0201  -24.5178  -55.4094 C.3       20 UNK        -0.1800 
    112 C         -3.1324  -22.9667  -56.0737 C.2       20 UNK         0.5000 
    113 O         -2.5329  -23.4240  -57.0472 O.2       20 UNK        -0.5000 
    114 N         -2.5298  -22.2986  -55.0793 N.am      21 UNK        -0.5000 
    115 CA        -1.1051  -21.9598  -55.0640 C.3       21 UNK         0.1400 
    116 CB        -0.6288  -21.8741  -53.6059 C.3       21 UNK        -0.1800 
    117 C         -0.7750  -20.6634  -55.8338 C.2       21 UNK         0.5000 
    118 O          0.4020  -20.4182  -56.1024 O.2       21 UNK        -0.5000 
    119 N         -1.7940  -19.8618  -56.1696 N.am      22 UNK        -0.5000 
    120 CA        -1.6677  -18.5879  -56.8973 C.3       22 UNK         0.1400 
    121 C         -2.2128  -18.6712  -58.3495 C.2       22 UNK         0.5000 
    122 N         -3.2381  -19.4643  -58.6311 N.am      22 UNK        -0.7600 
    123 O         -1.6860  -18.0125  -59.2421 O.2       22 UNK        -0.5000 
    124 C124       -2.3451  -17.4278  -56.1227 C.3       23 UNK        -0.0398 
    125 S125       -1.3627  -16.9093  -54.6762 S.3       23 UNK        -0.2404 
    126 C126       -2.1519  -17.8354  -53.3252 C.3       23 UNK        -0.0205 
    127 H127        4.3853  -11.8194  -49.5258 H         1 UNK         0.0600 
    128 H128        3.0136  -10.7540  -49.8444 H         1 UNK         0.0600 
    129 H129        4.1950  -10.3239  -48.6040 H         1 UNK         0.0600 
    130 H130        1.1142  -11.5514  -48.9864 H         1 UNK         0.3000 
    131 H131        1.0618  -13.5773  -46.9340 H         1 UNK         0.0600 
    132 H132       -1.2758  -12.0510  -48.1901 H         1 UNK         0.0800 
    133 H133       -1.4037  -13.4965  -47.2235 H         1 UNK         0.0800 
    134 H134       -0.6942  -15.8467  -47.9438 H         1 UNK         0.0800 
    135 H135       -2.2351  -15.5392  -48.7170 H         1 UNK         0.0800 
    136 H136       -2.4802  -16.1144  -51.2209 H         1 UNK         0.1150 
    137 H137        0.0346  -19.2859  -52.6290 H         1 UNK         0.1150 
    138 H138        0.8663  -17.4094  -48.8706 H         1 UNK         0.1150 
    139 H139        2.3006  -19.4552  -51.4931 H         1 UNK         0.0800 
    140 H140        2.4833  -18.9425  -49.8358 H         1 UNK         0.0800 
    141 H141        0.2028  -19.9103  -48.1411 H         1 UNK         0.0800 
    142 H142        1.8329  -20.4039  -47.7663 H         1 UNK         0.0800 
    143 H143        0.9854  -22.8539  -47.8624 H         1 UNK         0.0600 
    144 H144        0.8612  -21.0425  -45.6941 H         1 UNK         0.3000 
    145 H145        0.0083  -23.4756  -43.1851 H         1 UNK         0.0600 
    146 H146        2.0570  -22.4866  -42.2214 H         1 UNK         0.0600 
    147 H147        2.4780  -23.5355  -43.5663 H         1 UNK         0.0600 
    148 H148        2.4969  -21.7894  -43.7788 H         1 UNK         0.0600 
    149 H149        0.4013  -20.6816  -42.9604 H         1 UNK         0.3000 
    150 H150       -3.0146  -19.6986  -43.5606 H         1 UNK         0.0600 
    151 H151       -2.8030  -20.4331  -41.1749 H         1 UNK         0.0600 
    152 H152       -2.6391  -18.6918  -41.3401 H         1 UNK         0.0600 
    153 H153       -1.2097  -19.6905  -41.0851 H         1 UNK         0.0600 
    154 H154       -0.7628  -18.1107  -42.9576 H         1 UNK         0.3000 
    155 H155        0.3121  -17.5033  -46.3447 H         1 UNK         0.0600 
    156 H156       -0.8690  -15.8352  -44.0584 H         1 UNK         0.0600 
    157 H157       -1.4937  -15.9005  -45.6950 H         1 UNK         0.0600 
    158 H158        0.0990  -15.2164  -45.3901 H         1 UNK         0.0600 
    159 H159        1.5015  -16.7035  -43.9095 H         1 UNK         0.3000 
    160 H160        3.6198  -19.5412  -43.3851 H         1 UNK         0.0600 
    161 H161        5.2670  -17.6565  -43.3437 H         1 UNK         0.0600 
    162 H162        4.1422  -16.6503  -44.2574 H         1 UNK         0.0600 
    163 H163        4.8215  -18.0971  -44.9853 H         1 UNK         0.0600 
    164 H164        3.1136  -17.0605  -41.9888 H         1 UNK         0.3000 
    165 H165        0.7075  -18.4061  -39.7142 H         1 UNK         0.0600 
    166 H166        2.3856  -17.5911  -38.0840 H         1 UNK         0.0600 
    167 H167        2.9370  -19.0893  -38.8160 H         1 UNK         0.0600 
    168 H168        3.6303  -17.5570  -39.3332 H         1 UNK         0.0600 
    169 H169        1.9475  -15.8350  -39.9429 H         1 UNK         0.3000 
    170 H170       -0.3555  -14.3957  -42.2286 H         1 UNK         0.0600 
    171 H171       -1.6142  -14.3521  -40.0669 H         1 UNK         0.0600 
    172 H172       -0.1263  -13.9872  -39.1999 H         1 UNK         0.0600 
    173 H173       -0.7824  -12.8331  -40.3611 H         1 UNK         0.0600 
    174 H174        1.6720  -13.1480  -40.7468 H         1 UNK         0.3000 
    175 H175        4.1902  -13.4454  -41.4116 H         1 UNK         0.0600 
    176 H176        4.0911  -13.3372  -44.4711 H         1 UNK         0.0600 
    177 H177        5.4621  -12.8432  -43.4793 H         1 UNK         0.0600 
    178 H178        4.9564  -14.5231  -43.4977 H         1 UNK         0.0600 
    179 H179        3.2756  -11.3481  -43.2454 H         1 UNK         0.3000 
    180 H180        1.8564   -9.3157  -40.6857 H         1 UNK         0.0600 
    181 H181        4.2676   -8.9631  -42.5404 H         1 UNK         0.0600 
    182 H182        4.2399   -8.7192  -40.8024 H         1 UNK         0.0600 
    183 H183        3.3039   -7.6605  -41.8459 H         1 UNK         0.0600 
    184 H184        0.5351   -9.2717  -42.4200 H         1 UNK         0.3000 
    185 H185       -0.4198   -9.7437  -44.3690 H         1 UNK         0.0600 
    186 H186        0.3527   -7.3837  -44.6761 H         1 UNK         0.0600 
    187 H187        1.3181   -7.8636  -46.0663 H         1 UNK         0.0600 
    188 H188       -0.4414   -7.9751  -46.1269 H         1 UNK         0.0600 
    189 H189        0.8926  -10.1104  -46.9293 H         1 UNK         0.3000 
    190 H190       -1.7492  -20.8694  -46.6224 H         1 UNK         0.3000 
    191 H191       -3.6825  -21.6723  -48.4888 H         1 UNK         0.0600 
    192 H192       -4.0196  -20.7838  -45.5813 H         1 UNK         0.0600 
    193 H193       -5.3187  -20.8759  -46.7617 H         1 UNK         0.0600 
    194 H194       -3.9990  -19.7404  -47.0015 H         1 UNK         0.0600 
    195 H195       -2.8207  -23.1610  -45.3401 H         1 UNK         0.3000 
    196 H196       -4.7415  -25.2551  -45.4102 H         1 UNK         0.0600 
    197 H197       -2.0355  -25.0811  -43.9820 H         1 UNK         0.0600 
    198 H198       -3.2905  -26.2668  -43.6394 H         1 UNK         0.0600 
    199 H199       -3.5904  -24.5621  -43.3364 H         1 UNK         0.0600 
    200 H200       -1.3273  -25.1414  -46.5451 H         1 UNK         0.3000 
    201 H201       -1.1500  -27.8561  -47.3580 H         1 UNK         0.0600 
    202 H202        0.8369  -26.4453  -46.9537 H         1 UNK         0.0600 
    203 H203        0.4097  -25.3923  -48.3005 H         1 UNK         0.0600 
    204 H204        0.8755  -27.0632  -48.5979 H         1 UNK         0.0600 
    205 H205       -2.0349  -24.9042  -49.1967 H         1 UNK         0.3000 
    206 H206       -2.4785  -26.2747  -51.7037 H         1 UNK         0.0600 
    207 H207       -1.8416  -23.8786  -51.5318 H         1 UNK         0.0600 
    208 H208       -3.3755  -24.0369  -52.3794 H         1 UNK         0.0600 
    209 H209       -3.3388  -23.5185  -50.6940 H         1 UNK         0.0600 
    210 H210       -4.3873  -25.8191  -48.8745 H         1 UNK         0.3000 
    211 H211       -6.3236  -26.4444  -48.1225 H         1 UNK         0.0600 
    212 H212       -6.8010  -27.9955  -50.7220 H         1 UNK         0.0600 
    213 H213       -7.7147  -28.1612  -49.2311 H         1 UNK         0.0600 
    214 H214       -6.0194  -28.6214  -49.2709 H         1 UNK         0.0600 
    215 H215       -6.7119  -25.5210  -51.5416 H         1 UNK         0.3000 
    216 H216       -9.2225  -24.0382  -51.0266 H         1 UNK         0.0600 
    217 H217       -9.1648  -23.7245  -53.5013 H         1 UNK         0.0600 
    218 H218       -8.9802  -25.4206  -53.0859 H         1 UNK         0.0600 
    219 H219       -7.5753  -24.4764  -53.5762 H         1 UNK         0.0600 
    220 H220       -5.9430  -23.4039  -50.7613 H         1 UNK         0.3000 
    221 H221       -4.5980  -21.6884  -50.5027 H         1 UNK         0.0600 
    222 H222       -7.0326  -19.8419  -50.3941 H         1 UNK         0.0600 
    223 H223       -6.3435  -20.7089  -49.0250 H         1 UNK         0.0600 
    224 H224       -5.4048  -19.4713  -49.8465 H         1 UNK         0.0600 
    225 H225       -7.1108  -20.5928  -52.7786 H         1 UNK         0.3000 
    226 H226       -5.4573  -18.9469  -54.3981 H         1 UNK         0.0600 
    227 H227       -7.9301  -18.7695  -54.3384 H         1 UNK         0.0600 
    228 H228       -7.3931  -19.0580  -55.9858 H         1 UNK         0.0600 
    229 H229       -8.0927  -20.3749  -55.0497 H         1 UNK         0.0600 
    230 H230       -5.8511  -22.4149  -54.3893 H         1 UNK         0.3000 
    231 H231       -5.0497  -23.0873  -57.0078 H         1 UNK         0.0600 
    232 H232       -6.0899  -24.7112  -55.4857 H         1 UNK         0.0600 
    233 H233       -4.7356  -24.6034  -54.3602 H         1 UNK         0.0600 
    234 H234       -4.5113  -25.3151  -55.9528 H         1 UNK         0.0600 
    235 H235       -3.0890  -21.9373  -54.3160 H         1 UNK         0.3000 
    236 H236       -0.5395  -22.7608  -55.5447 H         1 UNK         0.0600 
    237 H237        0.3945  -21.5021  -53.5407 H         1 UNK         0.0600 
    238 H238       -1.2617  -21.2176  -53.0086 H         1 UNK         0.0600 
    239 H239       -0.6338  -22.8587  -53.1424 H         1 UNK         0.0600 
    240 H240       -2.7395  -20.1661  -55.9773 H         1 UNK         0.3000 
    241 H241       -0.6116  -18.3319  -57.0030 H         1 UNK         0.0600 
    242 H242       -3.5765  -19.5178  -59.5784 H         1 UNK         0.3800 
    243 H243       -3.7556  -19.9263  -57.8865 H         1 UNK         0.3800 
    244 H244       -2.4468  -16.5465  -56.7588 H         1 UNK         0.0800 
    245 H245       -3.3575  -17.6970  -55.8166 H         1 UNK         0.0800 
    246 H246       -3.1635  -17.4611  -53.1614 H         1 UNK         0.0800 
    247 H247       -2.2502  -18.8841  -53.6052 H         1 UNK         0.0800 
@<TRIPOS>BOND
     1    1    2 1    
     2    1  127 1    
     3    1  128 1    
     4    1  129 1    
     5    2    3 2    
     6    2    4 am   BACKBONE|DICT|INTERRES
     7    4    5 1    
     8    4  130 1    
     9    5    6 1    
    10    5   65 1    
    11    5  131 1    
    12    6    7 1    
    13    6  132 1    
    14    6  133 1    
    15    7    8 1    
    16    8    9 1    
    17    8  134 1    
    18    8  135 1    
    19    9   10 ar   
    20    9   14 ar   
    21   10   11 ar   
    22   10  136 1    
    23   11   12 ar   
    24   11  126 1    
    25   12   13 ar   
    26   12  137 1    
    27   13   14 ar   
    28   13   15 1    
    29   14  138 1    
    30   15   16 1    
    31   15  139 1    
    32   15  140 1    
    33   16   17 1    
    34   17   18 1    
    35   17  141 1    
    36   17  142 1    
    37   18   19 1    
    38   18   67 1    
    39   18  143 1    
    40   19   20 am   BACKBONE|DICT|INTERRES
    41   19  144 1    
    42   20   21 2    
    43   20   22 1    
    44   22   23 1    
    45   22   24 1    
    46   22  145 1    
    47   23  146 1    
    48   23  147 1    
    49   23  148 1    
    50   24   25 am   BACKBONE|DICT|INTERRES
    51   24  149 1    
    52   25   26 2    
    53   25   27 1    
    54   27   28 1    
    55   27   29 1    
    56   27  150 1    
    57   28  151 1    
    58   28  152 1    
    59   28  153 1    
    60   29   30 am   BACKBONE|DICT|INTERRES
    61   29  154 1    
    62   30   31 2    
    63   30   32 1    
    64   32   33 1    
    65   32   34 1    
    66   32  155 1    
    67   33  156 1    
    68   33  157 1    
    69   33  158 1    
    70   34   35 am   BACKBONE|DICT|INTERRES
    71   34  159 1    
    72   35   36 2    
    73   35   37 1    
    74   37   38 1    
    75   37   39 1    
    76   37  160 1    
    77   38  161 1    
    78   38  162 1    
    79   38  163 1    
    80   39   40 am   BACKBONE|DICT|INTERRES
    81   39  164 1    
    82   40   41 2    
    83   40   42 1    
    84   42   43 1    
    85   42   44 1    
    86   42  165 1    
    87   43  166 1    
    88   43  167 1    
    89   43  168 1    
    90   44   45 am   BACKBONE|DICT|INTERRES
    91   44  169 1    
    92   45   46 2    
    93   45   47 1    
    94   47   48 1    
    95   47   49 1    
    96   47  170 1    
    97   48  171 1    
    98   48  172 1    
    99   48  173 1    
   100   49   50 am   BACKBONE|DICT|INTERRES
   101   49  174 1    
   102   50   51 2    
   103   50   52 1    
   104   52   53 1    
   105   52   54 1    
   106   52  175 1    
   107   53  176 1    
   108   53  177 1    
   109   53  178 1    
   110   54   55 am   BACKBONE|DICT|INTERRES
   111   54  179 1    
   112   55   56 2    
   113   55   57 1    
   114   57   58 1    
   115   57   59 1    
   116   57  180 1    
   117   58  181 1    
   118   58  182 1    
   119   58  183 1    
   120   59   60 am   BACKBONE|DICT|INTERRES
   121   59  184 1    
   122   60   61 2    
   123   60   62 1    
   124   62   63 1    
   125   62   64 1    
   126   62  185 1    
   127   63  186 1    
   128   63  187 1    
   129   63  188 1    
   130   64   65 am   BACKBONE|DICT|INTERRES
   131   64  189 1    
   132   65   66 2    
   133   67   68 2    
   134   67   69 am   BACKBONE|DICT|INTERRES
   135   69   70 1    
   136   69  190 1    
   137   70   71 1    
   138   70   72 1    
   139   70  191 1    
   140   71  192 1    
   141   71  193 1    
   142   71  194 1    
   143   72   73 2    
   144   72   74 am   BACKBONE|DICT|INTERRES
   145   74   75 1    
   146   74  195 1    
   147   75   76 1    
   148   75   77 1    
   149   75  196 1    
   150   76  197 1    
   151   76  198 1    
   152   76  199 1    
   153   77   78 2    
   154   77   79 am   BACKBONE|DICT|INTERRES
   155   79   80 1    
   156   79  200 1    
   157   80   81 1    
   158   80   82 1    
   159   80  201 1    
   160   81  202 1    
   161   81  203 1    
   162   81  204 1    
   163   82   83 2    
   164   82   84 am   BACKBONE|DICT|INTERRES
   165   84   85 1    
   166   84  205 1    
   167   85   86 1    
   168   85   87 1    
   169   85  206 1    
   170   86  207 1    
   171   86  208 1    
   172   86  209 1    
   173   87   88 2    
   174   87   89 am   BACKBONE|DICT|INTERRES
   175   89   90 1    
   176   89  210 1    
   177   90   91 1    
   178   90   92 1    
   179   90  211 1    
   180   91  212 1    
   181   91  213 1    
   182   91  214 1    
   183   92   93 2    
   184   92   94 am   BACKBONE|DICT|INTERRES
   185   94   95 1    
   186   94  215 1    
   187   95   96 1    
   188   95   97 1    
   189   95  216 1    
   190   96  217 1    
   191   96  218 1    
   192   96  219 1    
   193   97   98 2    
   194   97   99 am   BACKBONE|DICT|INTERRES
   195   99  100 1    
   196   99  220 1    
   197  100  101 1    
   198  100  102 1    
   199  100  221 1    
   200  101  222 1    
   201  101  223 1    
   202  101  224 1    
   203  102  103 2    
   204  102  104 am   BACKBONE|DICT|INTERRES
   205  104  105 1    
   206  104  225 1    
   207  105  106 1    
   208  105  107 1    
   209  105  226 1    
   210  106  227 1    
   211  106  228 1    
   212  106  229 1    
   213  107  108 2    
   214  107  109 am   BACKBONE|DICT|INTERRES
   215  109  110 1    
   216  109  230 1    
   217  110  111 1    
   218  110  112 1    
   219  110  231 1    
   220  111  232 1    
   221  111  233 1    
   222  111  234 1    
   223  112  113 2    
   224  112  114 am   BACKBONE|DICT|INTERRES
   225  114  115 1    
   226  114  235 1    
   227  115  116 1    
   228  115  117 1    
   229  115  236 1    
   230  116  237 1    
   231  116  238 1    
   232  116  239 1    
   233  117  118 2    
   234  117  119 am   BACKBONE|DICT|INTERRES
   235  119  120 1    
   236  119  240 1    
   237  120  121 1    
   238  120  124 1    
   239  120  241 1    
   240  121  122 am   BACKBONE|DICT|INTERRES
   241  121  123 2    
   242  122  242 1    
   243  122  243 1    
   244  124  125 1    
   245  124  244 1    
   246  124  245 1    
   247  125  126 1    
   248  126  246 1    
   249  126  247 1    
@<TRIPOS>SUBSTRUCTURE
     1 UNK         1 GROUP             0       ****    0 ROOT    
