@<TRIPOS>MOLECULE
3R540
247   249    1
SMALL
USER_CHARGES


@<TRIPOS>ATOM
      1 CA         -3.3594  -11.5553  -47.2270 C.3       0 UNK        -0.1800 
      2 C          -2.5431  -12.7160  -46.6795 C.2       0 UNK         0.5000 
      3 O          -2.0221  -12.6205  -45.5683 O.2       0 UNK        -0.5000 
      4 N          -2.4233  -13.8015  -47.4541 N.am      1 UNK        -0.5000 
      5 CA         -1.6893  -15.0325  -47.1354 C.3       1 UNK         0.1400 
      6 C6         -1.7815  -16.0252  -48.3202 C.3       23 UNK        -0.0398 
      7 S7         -0.7109  -17.4960  -48.1789 S.3       23 UNK        -0.2404 
      8 C8          0.8606  -16.8848  -48.8685 C.3       23 UNK        -0.0205 
      9 C9          1.5651  -17.9807  -49.6507 C.ar      23 UNK        -0.0193 
     10 C10         1.5152  -17.9928  -51.0467 C.ar      23 UNK        -0.1150 
     11 C11         2.1247  -19.0217  -51.7702 C.ar      23 UNK        -0.0193 
     12 C12         2.7840  -20.0480  -51.0869 C.ar      23 UNK        -0.1150 
     13 C13         2.8488  -20.0420  -49.6909 C.ar      23 UNK        -0.0193 
     14 C14         2.2512  -18.9962  -48.9804 C.ar      23 UNK        -0.1150 
     15 C15         3.5544  -21.1703  -48.9511 C.3       23 UNK        -0.0205 
     16 S16         2.4630  -22.6064  -48.6863 S.3       23 UNK        -0.2404 
     17 C17         1.1868  -21.8779  -47.6114 C.3       23 UNK        -0.0398 
     18 CA          0.1190  -22.8953  -47.1572 C.3       11 UNK         0.1400 
     19 N           0.6672  -23.9738  -46.3309 N.am      11 UNK        -0.5000 
     20 C          -0.0012  -25.0839  -45.9891 C.2       10 UNK         0.5000 
     21 O          -1.1551  -25.3244  -46.3430 O.2       10 UNK        -0.5000 
     22 CA          0.7302  -26.0689  -45.0597 C.3       10 UNK         0.1400 
     23 CB          1.7089  -26.9434  -45.8576 C.3       10 UNK        -0.1800 
     24 N           1.4511  -25.3887  -43.9828 N.am      10 UNK        -0.5000 
     25 C           0.8595  -24.7080  -42.9911 C.2       9 UNK         0.5000 
     26 O          -0.3605  -24.6133  -42.8584 O.2       9 UNK        -0.5000 
     27 CA          1.7905  -23.9597  -42.0173 C.3       9 UNK         0.1400 
     28 CB          2.2917  -24.9040  -40.9144 C.3       9 UNK        -0.1800 
     29 N           2.9380  -23.3163  -42.6691 N.am      9 UNK        -0.5000 
     30 C           2.8412  -22.4009  -43.6418 C.2       8 UNK         0.5000 
     31 O           1.7701  -22.0536  -44.1440 O.2       8 UNK        -0.5000 
     32 CA          4.1549  -21.8063  -44.1805 C.3       8 UNK         0.1400 
     33 CB          4.7819  -22.7539  -45.2153 C.3       8 UNK        -0.1800 
     34 N           3.9010  -20.5159  -44.8209 N.am      8 UNK        -0.5000 
     35 C           3.6117  -19.3908  -44.1581 C.2       7 UNK         0.5000 
     36 O           3.7289  -19.2565  -42.9366 O.2       7 UNK        -0.5000 
     37 CA          3.0549  -18.2383  -45.0014 C.3       7 UNK         0.1400 
     38 CB          1.5301  -18.3790  -45.1657 C.3       7 UNK        -0.1800 
     39 N           3.3511  -16.9800  -44.3318 N.am      7 UNK        -0.5000 
     40 C           3.4824  -15.7981  -44.9375 C.2       6 UNK         0.5000 
     41 O           3.4005  -15.6354  -46.1577 O.2       6 UNK        -0.5000 
     42 CA          3.7792  -14.5999  -44.0167 C.3       6 UNK         0.1400 
     43 CB          5.2950  -14.4074  -43.8544 C.3       6 UNK        -0.1800 
     44 N           3.1927  -13.3543  -44.5116 N.am      6 UNK        -0.5000 
     45 C           1.8807  -13.1283  -44.6453 C.2       5 UNK         0.5000 
     46 O           1.0042  -13.9488  -44.3573 O.2       5 UNK        -0.5000 
     47 CA          1.4823  -11.7589  -45.2160 C.3       5 UNK         0.1400 
     48 CB          1.2425  -11.8557  -46.7306 C.3       5 UNK        -0.1800 
     49 N           0.2621  -11.2905  -44.5658 N.am      5 UNK        -0.5000 
     50 C           0.2309  -10.6318  -43.3995 C.2       4 UNK         0.5000 
     51 O           1.2406  -10.2597  -42.8001 O.2       4 UNK        -0.5000 
     52 CA         -1.1504  -10.3562  -42.7863 C.3       4 UNK         0.1400 
     53 CB         -1.7869   -9.0968  -43.3986 C.3       4 UNK        -0.1800 
     54 N          -2.0430  -11.4996  -42.9593 N.am      4 UNK        -0.5000 
     55 C          -3.0145  -11.8600  -42.1129 C.2       3 UNK         0.5000 
     56 O          -3.2753  -11.2587  -41.0700 O.2       3 UNK        -0.5000 
     57 CA         -3.8292  -13.1083  -42.4910 C.3       3 UNK         0.1400 
     58 CB         -4.9944  -12.7281  -43.4174 C.3       3 UNK        -0.1800 
     59 N          -2.9935  -14.1057  -43.1593 N.am      3 UNK        -0.5000 
     60 C          -2.4224  -15.1566  -42.5575 C.2       2 UNK         0.5000 
     61 O          -2.5760  -15.4148  -41.3627 O.2       2 UNK        -0.5000 
     62 CA         -1.5051  -16.0660  -43.4038 C.3       2 UNK         0.1400 
     63 CB         -1.9466  -17.5421  -43.3448 C.3       2 UNK        -0.1800 
     64 N          -1.3089  -15.6173  -44.7873 N.am      2 UNK        -0.5000 
     65 C          -2.1781  -15.6528  -45.8081 C.2       1 UNK         0.5000 
     66 O          -3.3262  -16.0936  -45.7326 O.2       1 UNK        -0.5000 
     67 C          -1.0239  -22.1555  -46.4410 C.2       11 UNK         0.5000 
     68 O          -2.0241  -21.8343  -47.0809 O.2       11 UNK        -0.5000 
     69 N          -0.8606  -21.9178  -45.1332 N.am      12 UNK        -0.5000 
     70 CA         -1.8570  -21.3046  -44.2597 C.3       12 UNK         0.1400 
     71 CB         -1.2166  -20.9990  -42.8971 C.3       12 UNK        -0.1800 
     72 C          -3.1095  -22.1819  -44.0932 C.2       12 UNK         0.5000 
     73 O          -4.2226  -21.6592  -44.1445 O.2       12 UNK        -0.5000 
     74 N          -2.9079  -23.4980  -43.9309 N.am      13 UNK        -0.5000 
     75 CA         -3.9752  -24.4959  -43.8452 C.3       13 UNK         0.1400 
     76 CB         -3.3862  -25.8440  -43.4027 C.3       13 UNK        -0.1800 
     77 C          -4.7537  -24.6475  -45.1648 C.2       13 UNK         0.5000 
     78 O          -5.9815  -24.7404  -45.1376 O.2       13 UNK        -0.5000 
     79 N          -4.0306  -24.6535  -46.2932 N.am      14 UNK        -0.5000 
     80 CA         -4.6022  -24.7214  -47.6391 C.3       14 UNK         0.1400 
     81 CB         -3.4939  -25.1030  -48.6336 C.3       14 UNK        -0.1800 
     82 C          -5.2740  -23.4097  -48.0873 C.2       14 UNK         0.5000 
     83 O          -6.1623  -23.4566  -48.9377 O.2       14 UNK        -0.5000 
     84 N          -4.8094  -22.2770  -47.5371 N.am      15 UNK        -0.5000 
     85 CA         -5.0646  -20.8994  -47.9702 C.3       15 UNK         0.1400 
     86 CB         -6.5465  -20.5129  -47.7849 C.3       15 UNK        -0.1800 
     87 C          -4.5484  -20.6897  -49.4075 C.2       15 UNK         0.5000 
     88 O          -5.3096  -20.2869  -50.2868 O.2       15 UNK        -0.5000 
     89 N          -3.2673  -21.0326  -49.6146 N.am      16 UNK        -0.5000 
     90 CA         -2.5998  -21.2453  -50.9051 C.3       16 UNK         0.1400 
     91 CB         -1.0870  -21.3922  -50.6781 C.3       16 UNK        -0.1800 
     92 C          -2.8713  -20.1944  -51.9958 C.2       16 UNK         0.5000 
     93 O          -3.1668  -20.5674  -53.1326 O.2       16 UNK        -0.5000 
     94 N          -2.7907  -18.9097  -51.6278 N.am      17 UNK        -0.5000 
     95 CA         -3.0057  -17.7853  -52.5395 C.3       17 UNK         0.1400 
     96 CB         -2.4881  -16.4985  -51.8829 C.3       17 UNK        -0.1800 
     97 C          -4.4767  -17.6175  -52.9666 C.2       17 UNK         0.5000 
     98 O          -4.7322  -17.2087  -54.0994 O.2       17 UNK        -0.5000 
     99 N          -5.4141  -17.9425  -52.0659 N.am      18 UNK        -0.5000 
    100 CA        -6.8564  -17.8929  -52.3155 C.3       18 UNK         0.1400 
    101 CB        -7.6008  -17.7320  -50.9808 C.3       18 UNK        -0.1800 
    102 C         -7.3417  -19.1461  -53.0635 C.2       18 UNK         0.5000 
    103 O         -8.2107  -19.0444  -53.9299 O.2       18 UNK        -0.5000 
    104 N         -6.7453  -20.2994  -52.7344 N.am      19 UNK        -0.5000 
    105 CA        -6.9722  -21.5927  -53.3804 C.3       19 UNK         0.1400 
    106 CB        -6.3702  -22.6913  -52.4903 C.3       19 UNK        -0.1800 
    107 C         -6.3844  -21.6813  -54.8032 C.2       19 UNK         0.5000 
    108 O         -6.7562  -22.5877  -55.5495 O.2       19 UNK        -0.5000 
    109 N         -5.4699  -20.7581  -55.1376 N.am      20 UNK        -0.5000 
    110 CA        -4.6826  -20.6792  -56.3715 C.3       20 UNK         0.1400 
    111 CB        -5.5848  -20.4610  -57.6038 C.3       20 UNK        -0.1800 
    112 C         -3.7107  -21.8677  -56.5265 C.2       20 UNK         0.5000 
    113 O         -3.4234  -22.2989  -57.6448 O.2       20 UNK        -0.5000 
    114 N         -3.1920  -22.3564  -55.3911 N.am      21 UNK        -0.5000 
    115 CA        -2.1966  -23.4280  -55.3097 C.3       21 UNK         0.1400 
    116 CB        -2.1504  -23.9508  -53.8657 C.3       21 UNK        -0.1800 
    117 C         -0.7965  -22.9683  -55.7626 C.2       21 UNK         0.5000 
    118 O          0.0410  -23.8038  -56.1041 O.2       21 UNK        -0.5000 
    119 N         -0.5792  -21.6481  -55.7599 N.am      22 UNK        -0.5000 
    120 CA         0.6501  -20.9634  -56.1839 C.3       22 UNK         0.1400 
    121 C          0.9342  -21.0151  -57.7151 C.2       22 UNK         0.5000 
    122 N         -0.0031  -21.4341  -58.5578 N.am      22 UNK        -0.7600 
    123 O          2.0306  -20.6692  -58.1464 O.2       22 UNK        -0.5000 
    124 C124        0.6726  -19.4973  -55.6793 C.3       23 UNK        -0.0398 
    125 S125        0.3863  -19.3646  -53.8813 S.3       23 UNK        -0.2404 
    126 C126        2.0680  -19.0209  -53.2885 C.3       23 UNK        -0.0205 
    127 H127       -3.7214  -11.7534  -48.2361 H         1 UNK         0.0600 
    128 H128       -2.7497  -10.6522  -47.2552 H         1 UNK         0.0600 
    129 H129       -4.2206  -11.3653  -46.5870 H         1 UNK         0.0600 
    130 H130       -2.9037  -13.8069  -48.3420 H         1 UNK         0.3000 
    131 H131       -0.6402  -14.7531  -47.0185 H         1 UNK         0.0600 
    132 H132       -1.5328  -15.5107  -49.2485 H         1 UNK         0.0800 
    133 H133       -2.8094  -16.3713  -48.4434 H         1 UNK         0.0800 
    134 H134        1.5004  -16.5359  -48.0565 H         1 UNK         0.0800 
    135 H135        0.6885  -16.0221  -49.5133 H         1 UNK         0.0800 
    136 H136        0.9897  -17.2099  -51.5751 H         1 UNK         0.1150 
    137 H137        3.2438  -20.8554  -51.6393 H         1 UNK         0.1150 
    138 H138        2.2879  -18.9876  -47.9021 H         1 UNK         0.1150 
    139 H139        3.9369  -20.8184  -47.9928 H         1 UNK         0.0800 
    140 H140        4.4258  -21.4932  -49.5227 H         1 UNK         0.0800 
    141 H141        0.7067  -21.0707  -48.1663 H         1 UNK         0.0800 
    142 H142        1.6742  -21.4188  -46.7514 H         1 UNK         0.0800 
    143 H143       -0.3088  -23.3580  -48.0486 H         1 UNK         0.0600 
    144 H144        1.5941  -23.8298  -45.9607 H         1 UNK         0.3000 
    145 H145       -0.0206  -26.7209  -44.6081 H         1 UNK         0.0600 
    146 H146        1.1928  -27.4734  -46.6593 H         1 UNK         0.0600 
    147 H147        2.1751  -27.6950  -45.2203 H         1 UNK         0.0600 
    148 H148        2.5026  -26.3504  -46.3139 H         1 UNK         0.0600 
    149 H149        2.4593  -25.4105  -44.0184 H         1 UNK         0.3000 
    150 H150        1.2000  -23.1717  -41.5455 H         1 UNK         0.0600 
    151 H151        2.8646  -24.3624  -40.1615 H         1 UNK         0.0600 
    152 H152        1.4566  -25.3835  -40.4018 H         1 UNK         0.0600 
    153 H153        2.9271  -25.6937  -41.3171 H         1 UNK         0.0600 
    154 H154        3.8517  -23.5644  -42.3176 H         1 UNK         0.3000 
    155 H155        4.8513  -21.6665  -43.3511 H         1 UNK         0.0600 
    156 H156        4.1088  -22.9427  -46.0523 H         1 UNK         0.0600 
    157 H157        5.0265  -23.7180  -44.7679 H         1 UNK         0.0600 
    158 H158        5.7074  -22.3413  -45.6174 H         1 UNK         0.0600 
    159 H159        3.7598  -20.5414  -45.8177 H         1 UNK         0.3000 
    160 H160        3.5401  -18.2553  -45.9795 H         1 UNK         0.0600 
    161 H161        1.0295  -18.3837  -44.1973 H         1 UNK         0.0600 
    162 H162        1.2646  -19.3068  -45.6720 H         1 UNK         0.0600 
    163 H163        1.1147  -17.5574  -45.7482 H         1 UNK         0.0600 
    164 H164        3.4905  -17.0651  -43.3325 H         1 UNK         0.3000 
    165 H165        3.3470  -14.8017  -43.0341 H         1 UNK         0.0600 
    166 H166        5.7641  -15.3086  -43.4573 H         1 UNK         0.0600 
    167 H167        5.7753  -14.1805  -44.8072 H         1 UNK         0.0600 
    168 H168        5.5189  -13.5950  -43.1627 H         1 UNK         0.0600 
    169 H169        3.8441  -12.6424  -44.8073 H         1 UNK         0.3000 
    170 H170        2.2881  -11.0431  -45.0397 H         1 UNK         0.0600 
    171 H171        0.4722  -12.5872  -46.9727 H         1 UNK         0.0600 
    172 H172        2.1528  -12.1577  -47.2499 H         1 UNK         0.0600 
    173 H173        0.9343  -10.8952  -47.1437 H         1 UNK         0.0600 
    174 H174       -0.6039  -11.6268  -44.9757 H         1 UNK         0.3000 
    175 H175       -0.9940  -10.1824  -41.7194 H         1 UNK         0.0600 
    176 H176       -1.1249   -8.2357  -43.2990 H         1 UNK         0.0600 
    177 H177       -1.9981   -9.2307  -44.4603 H         1 UNK         0.0600 
    178 H178       -2.7234   -8.8461  -42.9003 H         1 UNK         0.0600 
    179 H179       -1.9126  -12.0492  -43.8031 H         1 UNK         0.3000 
    180 H180       -4.2521  -13.5248  -41.5744 H         1 UNK         0.0600 
    181 H181       -4.6427  -12.2800  -44.3465 H         1 UNK         0.0600 
    182 H182       -5.6561  -12.0072  -42.9356 H         1 UNK         0.0600 
    183 H183       -5.5948  -13.6013  -43.6732 H         1 UNK         0.0600 
    184 H184       -2.7810  -13.9402  -44.1353 H         1 UNK         0.3000 
    185 H185       -0.5181  -16.0044  -42.9430 H         1 UNK         0.0600 
    186 H186       -1.8612  -17.9317  -42.3301 H         1 UNK         0.0600 
    187 H187       -2.9839  -17.6714  -43.6542 H         1 UNK         0.0600 
    188 H188       -1.3264  -18.1645  -43.9880 H         1 UNK         0.0600 
    189 H189       -0.4265  -15.1294  -44.9239 H         1 UNK         0.3000 
    190 H190        0.0312  -22.1572  -44.7043 H         1 UNK         0.3000 
    191 H191       -2.1669  -20.3621  -44.7156 H         1 UNK         0.0600 
    192 H192       -0.3577  -20.3361  -43.0044 H         1 UNK         0.0600 
    193 H193       -1.9284  -20.5090  -42.2320 H         1 UNK         0.0600 
    194 H194       -0.8745  -21.9069  -42.4002 H         1 UNK         0.0600 
    195 H195       -1.9572  -23.8419  -43.8403 H         1 UNK         0.3000 
    196 H196       -4.6808  -24.1678  -43.0791 H         1 UNK         0.0600 
    197 H197       -4.1637  -26.6051  -43.3268 H         1 UNK         0.0600 
    198 H198       -2.9131  -25.7641  -42.4239 H         1 UNK         0.0600 
    199 H199       -2.6369  -26.2074  -44.1068 H         1 UNK         0.0600 
    200 H200       -3.0169  -24.6462  -46.2292 H         1 UNK         0.3000 
    201 H201       -5.3609  -25.5067  -47.6542 H         1 UNK         0.0600 
    202 H202       -3.8876  -25.1863  -49.6474 H         1 UNK         0.0600 
    203 H203       -3.0480  -26.0643  -48.3778 H         1 UNK         0.0600 
    204 H204       -2.6970  -24.3582  -48.6511 H         1 UNK         0.0600 
    205 H205       -4.0355  -22.3715  -46.8904 H         1 UNK         0.3000 
    206 H206       -4.4691  -20.2538  -47.3229 H         1 UNK         0.0600 
    207 H207       -6.8743  -20.6941  -46.7614 H         1 UNK         0.0600 
    208 H208       -6.6975  -19.4532  -47.9929 H         1 UNK         0.0600 
    209 H209       -7.2036  -21.0712  -48.4522 H         1 UNK         0.0600 
    210 H210       -2.7442  -21.3296  -48.7954 H         1 UNK         0.3000 
    211 H211       -2.9749  -22.1966  -51.2859 H         1 UNK         0.0600 
    212 H212       -0.5555  -21.5257  -51.6216 H         1 UNK         0.0600 
    213 H213       -0.8642  -22.2604  -50.0601 H         1 UNK         0.0600 
    214 H214       -0.6653  -20.5117  -50.1911 H         1 UNK         0.0600 
    215 H215       -2.5455  -18.6937  -50.6729 H         1 UNK         0.3000 
    216 H216       -2.4168  -17.9652  -53.4416 H         1 UNK         0.0600 
    217 H217       -1.4435  -16.5976  -51.5876 H         1 UNK         0.0600 
    218 H218       -3.0704  -16.2414  -50.9981 H         1 UNK         0.0600 
    219 H219       -2.5526  -15.6565  -52.5732 H         1 UNK         0.0600 
    220 H220       -5.1242  -18.3677  -51.1940 H         1 UNK         0.3000 
    221 H221       -7.0814  -17.0216  -52.9344 H         1 UNK         0.0600 
    222 H222       -7.4325  -18.5810  -50.3176 H         1 UNK         0.0600 
    223 H223       -7.2826  -16.8300  -50.4582 H         1 UNK         0.0600 
    224 H224       -8.6764  -17.6521  -51.1429 H         1 UNK         0.0600 
    225 H225       -6.0921  -20.2938  -51.9536 H         1 UNK         0.3000 
    226 H226       -8.0489  -21.7568  -53.4550 H         1 UNK         0.0600 
    227 H227       -6.8180  -22.6801  -51.4965 H         1 UNK         0.0600 
    228 H228       -6.5432  -23.6814  -52.9137 H         1 UNK         0.0600 
    229 H229       -5.2932  -22.5671  -52.3718 H         1 UNK         0.0600 
    230 H230       -5.2130  -20.0945  -54.4195 H         1 UNK         0.3000 
    231 H231       -4.0554  -19.7927  -56.2665 H         1 UNK         0.0600 
    232 H232       -6.1868  -21.3413  -57.8298 H         1 UNK         0.0600 
    233 H233       -4.9876  -20.2402  -58.4892 H         1 UNK         0.0600 
    234 H234       -6.2618  -19.6203  -57.4521 H         1 UNK         0.0600 
    235 H235       -3.4191  -21.8816  -54.5216 H         1 UNK         0.3000 
    236 H236       -2.5110  -24.2433  -55.9644 H         1 UNK         0.0600 
    237 H237       -1.7888  -23.1875  -53.1768 H         1 UNK         0.0600 
    238 H238       -3.1359  -24.2717  -53.5273 H         1 UNK         0.0600 
    239 H239       -1.4817  -24.8084  -53.7831 H         1 UNK         0.0600 
    240 H240       -1.3199  -21.0512  -55.4233 H         1 UNK         0.3000 
    241 H241        1.4824  -21.4864  -55.7092 H         1 UNK         0.0600 
    242 H242        0.1964  -21.4653  -59.5453 H         1 UNK         0.3800 
    243 H243       -0.9067  -21.7299  -58.2201 H         1 UNK         0.3800 
    244 H244        1.6208  -19.0179  -55.9294 H         1 UNK         0.0800 
    245 H245       -0.1005  -18.9139  -56.1822 H         1 UNK         0.0800 
    246 H246        2.7540  -19.7640  -53.6981 H         1 UNK         0.0800 
    247 H247        2.3958  -18.0505  -53.6641 H         1 UNK         0.0800 
@<TRIPOS>BOND
     1    1    2 1    
     2    1  127 1    
     3    1  128 1    
     4    1  129 1    
     5    2    3 2    
     6    2    4 am   BACKBONE|DICT|INTERRES
     7    4    5 1    
     8    4  130 1    
     9    5    6 1    
    10    5   65 1    
    11    5  131 1    
    12    6    7 1    
    13    6  132 1    
    14    6  133 1    
    15    7    8 1    
    16    8    9 1    
    17    8  134 1    
    18    8  135 1    
    19    9   10 ar   
    20    9   14 ar   
    21   10   11 ar   
    22   10  136 1    
    23   11   12 ar   
    24   11  126 1    
    25   12   13 ar   
    26   12  137 1    
    27   13   14 ar   
    28   13   15 1    
    29   14  138 1    
    30   15   16 1    
    31   15  139 1    
    32   15  140 1    
    33   16   17 1    
    34   17   18 1    
    35   17  141 1    
    36   17  142 1    
    37   18   19 1    
    38   18   67 1    
    39   18  143 1    
    40   19   20 am   BACKBONE|DICT|INTERRES
    41   19  144 1    
    42   20   21 2    
    43   20   22 1    
    44   22   23 1    
    45   22   24 1    
    46   22  145 1    
    47   23  146 1    
    48   23  147 1    
    49   23  148 1    
    50   24   25 am   BACKBONE|DICT|INTERRES
    51   24  149 1    
    52   25   26 2    
    53   25   27 1    
    54   27   28 1    
    55   27   29 1    
    56   27  150 1    
    57   28  151 1    
    58   28  152 1    
    59   28  153 1    
    60   29   30 am   BACKBONE|DICT|INTERRES
    61   29  154 1    
    62   30   31 2    
    63   30   32 1    
    64   32   33 1    
    65   32   34 1    
    66   32  155 1    
    67   33  156 1    
    68   33  157 1    
    69   33  158 1    
    70   34   35 am   BACKBONE|DICT|INTERRES
    71   34  159 1    
    72   35   36 2    
    73   35   37 1    
    74   37   38 1    
    75   37   39 1    
    76   37  160 1    
    77   38  161 1    
    78   38  162 1    
    79   38  163 1    
    80   39   40 am   BACKBONE|DICT|INTERRES
    81   39  164 1    
    82   40   41 2    
    83   40   42 1    
    84   42   43 1    
    85   42   44 1    
    86   42  165 1    
    87   43  166 1    
    88   43  167 1    
    89   43  168 1    
    90   44   45 am   BACKBONE|DICT|INTERRES
    91   44  169 1    
    92   45   46 2    
    93   45   47 1    
    94   47   48 1    
    95   47   49 1    
    96   47  170 1    
    97   48  171 1    
    98   48  172 1    
    99   48  173 1    
   100   49   50 am   BACKBONE|DICT|INTERRES
   101   49  174 1    
   102   50   51 2    
   103   50   52 1    
   104   52   53 1    
   105   52   54 1    
   106   52  175 1    
   107   53  176 1    
   108   53  177 1    
   109   53  178 1    
   110   54   55 am   BACKBONE|DICT|INTERRES
   111   54  179 1    
   112   55   56 2    
   113   55   57 1    
   114   57   58 1    
   115   57   59 1    
   116   57  180 1    
   117   58  181 1    
   118   58  182 1    
   119   58  183 1    
   120   59   60 am   BACKBONE|DICT|INTERRES
   121   59  184 1    
   122   60   61 2    
   123   60   62 1    
   124   62   63 1    
   125   62   64 1    
   126   62  185 1    
   127   63  186 1    
   128   63  187 1    
   129   63  188 1    
   130   64   65 am   BACKBONE|DICT|INTERRES
   131   64  189 1    
   132   65   66 2    
   133   67   68 2    
   134   67   69 am   BACKBONE|DICT|INTERRES
   135   69   70 1    
   136   69  190 1    
   137   70   71 1    
   138   70   72 1    
   139   70  191 1    
   140   71  192 1    
   141   71  193 1    
   142   71  194 1    
   143   72   73 2    
   144   72   74 am   BACKBONE|DICT|INTERRES
   145   74   75 1    
   146   74  195 1    
   147   75   76 1    
   148   75   77 1    
   149   75  196 1    
   150   76  197 1    
   151   76  198 1    
   152   76  199 1    
   153   77   78 2    
   154   77   79 am   BACKBONE|DICT|INTERRES
   155   79   80 1    
   156   79  200 1    
   157   80   81 1    
   158   80   82 1    
   159   80  201 1    
   160   81  202 1    
   161   81  203 1    
   162   81  204 1    
   163   82   83 2    
   164   82   84 am   BACKBONE|DICT|INTERRES
   165   84   85 1    
   166   84  205 1    
   167   85   86 1    
   168   85   87 1    
   169   85  206 1    
   170   86  207 1    
   171   86  208 1    
   172   86  209 1    
   173   87   88 2    
   174   87   89 am   BACKBONE|DICT|INTERRES
   175   89   90 1    
   176   89  210 1    
   177   90   91 1    
   178   90   92 1    
   179   90  211 1    
   180   91  212 1    
   181   91  213 1    
   182   91  214 1    
   183   92   93 2    
   184   92   94 am   BACKBONE|DICT|INTERRES
   185   94   95 1    
   186   94  215 1    
   187   95   96 1    
   188   95   97 1    
   189   95  216 1    
   190   96  217 1    
   191   96  218 1    
   192   96  219 1    
   193   97   98 2    
   194   97   99 am   BACKBONE|DICT|INTERRES
   195   99  100 1    
   196   99  220 1    
   197  100  101 1    
   198  100  102 1    
   199  100  221 1    
   200  101  222 1    
   201  101  223 1    
   202  101  224 1    
   203  102  103 2    
   204  102  104 am   BACKBONE|DICT|INTERRES
   205  104  105 1    
   206  104  225 1    
   207  105  106 1    
   208  105  107 1    
   209  105  226 1    
   210  106  227 1    
   211  106  228 1    
   212  106  229 1    
   213  107  108 2    
   214  107  109 am   BACKBONE|DICT|INTERRES
   215  109  110 1    
   216  109  230 1    
   217  110  111 1    
   218  110  112 1    
   219  110  231 1    
   220  111  232 1    
   221  111  233 1    
   222  111  234 1    
   223  112  113 2    
   224  112  114 am   BACKBONE|DICT|INTERRES
   225  114  115 1    
   226  114  235 1    
   227  115  116 1    
   228  115  117 1    
   229  115  236 1    
   230  116  237 1    
   231  116  238 1    
   232  116  239 1    
   233  117  118 2    
   234  117  119 am   BACKBONE|DICT|INTERRES
   235  119  120 1    
   236  119  240 1    
   237  120  121 1    
   238  120  124 1    
   239  120  241 1    
   240  121  122 am   BACKBONE|DICT|INTERRES
   241  121  123 2    
   242  122  242 1    
   243  122  243 1    
   244  124  125 1    
   245  124  244 1    
   246  124  245 1    
   247  125  126 1    
   248  126  246 1    
   249  126  247 1    
@<TRIPOS>SUBSTRUCTURE
     1 UNK         1 GROUP             0       ****    0 ROOT    
