@<TRIPOS>MOLECULE
3R540
247   249    1
SMALL
USER_CHARGES


@<TRIPOS>ATOM
      1 CA          4.1264  -19.9131  -42.1851 C.3       0 UNK        -0.1800 
      2 C           3.0947  -18.8133  -42.3887 C.2       0 UNK         0.5000 
      3 O           2.2941  -18.5553  -41.4916 O.2       0 UNK        -0.5000 
      4 N           3.1198  -18.1515  -43.5549 N.am      1 UNK        -0.5000 
      5 CA          2.2391  -17.0242  -43.8922 C.3       1 UNK         0.1400 
      6 C6          2.0466  -16.8738  -45.4211 C.3       23 UNK        -0.0398 
      7 S7          3.5542  -16.3811  -46.3231 S.3       23 UNK        -0.2404 
      8 C8          2.8321  -15.7232  -47.8673 C.3       23 UNK        -0.0205 
      9 C9          2.3156  -16.7656  -48.8617 C.ar      23 UNK        -0.0193 
     10 C10         1.4208  -16.3545  -49.8551 C.ar      23 UNK        -0.1150 
     11 C11         0.9876  -17.2419  -50.8448 C.ar      23 UNK        -0.0193 
     12 C12         1.4540  -18.5583  -50.8314 C.ar      23 UNK        -0.1150 
     13 C13         2.3190  -19.0044  -49.8257 C.ar      23 UNK        -0.0193 
     14 C14         2.7504  -18.0975  -48.8535 C.ar      23 UNK        -0.1150 
     15 C15         2.8540  -20.4355  -49.7714 C.3       23 UNK        -0.0205 
     16 S16         1.9405  -21.6790  -50.7488 S.3       23 UNK        -0.2404 
     17 C17         0.2908  -21.6900  -49.9680 C.3       23 UNK        -0.0398 
     18 CA          0.2242  -22.6756  -48.7801 C.3       11 UNK         0.1400 
     19 N           0.7789  -22.0953  -47.5569 N.am      11 UNK        -0.5000 
     20 C           1.2576  -22.8045  -46.5289 C.2       10 UNK         0.5000 
     21 O           1.2819  -24.0348  -46.4998 O.2       10 UNK        -0.5000 
     22 CA          1.7594  -21.9933  -45.3194 C.3       10 UNK         0.1400 
     23 CB          3.1354  -21.3798  -45.6214 C.3       10 UNK        -0.1800 
     24 N           0.8315  -20.9317  -44.9196 N.am      10 UNK        -0.5000 
     25 C          -0.4116  -21.1467  -44.4669 C.2       9 UNK         0.5000 
     26 O          -0.8881  -22.2692  -44.2969 O.2       9 UNK        -0.5000 
     27 CA         -1.2929  -19.9073  -44.2032 C.3       9 UNK         0.1400 
     28 CB         -1.0926  -19.4082  -42.7652 C.3       9 UNK        -0.1800 
     29 N          -1.1440  -18.7862  -45.1455 N.am      9 UNK        -0.5000 
     30 C          -1.1693  -18.8750  -46.4876 C.2       8 UNK         0.5000 
     31 O          -1.1669  -19.9442  -47.0949 O.2       8 UNK        -0.5000 
     32 CA         -1.2263  -17.5649  -47.2909 C.3       8 UNK         0.1400 
     33 CB         -1.8906  -17.7490  -48.6672 C.3       8 UNK        -0.1800 
     34 N          -1.9428  -16.5378  -46.5445 N.am      8 UNK        -0.5000 
     35 C          -1.6170  -15.2430  -46.4953 C.2       7 UNK         0.5000 
     36 O          -0.6582  -14.7537  -47.0902 O.2       7 UNK        -0.5000 
     37 CA         -2.5153  -14.3371  -45.6307 C.3       7 UNK         0.1400 
     38 CB         -3.9777  -14.8270  -45.5468 C.3       7 UNK        -0.1800 
     39 N          -1.9809  -14.1179  -44.2841 N.am      7 UNK        -0.5000 
     40 C          -1.6376  -15.0361  -43.3672 C.2       6 UNK         0.5000 
     41 O          -1.6440  -16.2512  -43.5743 O.2       6 UNK        -0.5000 
     42 CA         -1.2108  -14.4826  -41.9936 C.3       6 UNK         0.1400 
     43 CB         -0.5829  -15.5526  -41.0814 C.3       6 UNK        -0.1800 
     44 N          -0.2607  -13.3908  -42.1880 N.am      6 UNK        -0.5000 
     45 C          -0.4997  -12.0900  -41.9760 C.2       5 UNK         0.5000 
     46 O          -1.5356  -11.6573  -41.4706 O.2       5 UNK        -0.5000 
     47 CA          0.5797  -11.0987  -42.4566 C.3       5 UNK         0.1400 
     48 CB          1.5290  -10.7341  -41.3069 C.3       5 UNK        -0.1800 
     49 N           1.3446  -11.6169  -43.5965 N.am      5 UNK        -0.5000 
     50 C           0.8344  -11.7613  -44.8302 C.2       4 UNK         0.5000 
     51 O          -0.2919  -11.3651  -45.1356 O.2       4 UNK        -0.5000 
     52 CA          1.6677  -12.5245  -45.8803 C.3       4 UNK         0.1400 
     53 CB          1.5538  -11.9210  -47.2953 C.3       4 UNK        -0.1800 
     54 N           3.0606  -12.7679  -45.5024 N.am      4 UNK        -0.5000 
     55 C           4.0716  -11.8932  -45.4202 C.2       3 UNK         0.5000 
     56 O           3.9789  -10.6970  -45.6987 O.2       3 UNK        -0.5000 
     57 CA          5.4071  -12.4842  -44.9132 C.3       3 UNK         0.1400 
     58 CB          6.4153  -11.4060  -44.4629 C.3       3 UNK        -0.1800 
     59 N           5.2113  -13.4945  -43.8615 N.am      3 UNK        -0.5000 
     60 C           4.6148  -13.3013  -42.6746 C.2       2 UNK         0.5000 
     61 O           4.1876  -12.2109  -42.2968 O.2       2 UNK        -0.5000 
     62 CA          4.4094  -14.5591  -41.8056 C.3       2 UNK         0.1400 
     63 CB          3.5677  -14.2879  -40.5404 C.3       2 UNK        -0.1800 
     64 N           3.8347  -15.6790  -42.5604 N.am      2 UNK        -0.5000 
     65 C           2.6700  -15.6948  -43.2299 C.2       1 UNK         0.5000 
     66 O           1.9450  -14.7087  -43.3582 O.2       1 UNK        -0.5000 
     67 C          -1.2064  -23.1979  -48.5529 C.2       11 UNK         0.5000 
     68 O          -1.5975  -24.1666  -49.2054 O.2       11 UNK        -0.5000 
     69 N          -1.9531  -22.5866  -47.6224 N.am      12 UNK        -0.5000 
     70 CA         -3.2610  -23.0534  -47.1620 C.3       12 UNK         0.1400 
     71 CB         -3.9010  -22.0140  -46.2328 C.3       12 UNK        -0.1800 
     72 C          -3.1731  -24.4305  -46.4831 C.2       12 UNK         0.5000 
     73 O          -3.9920  -25.3026  -46.7718 O.2       12 UNK        -0.5000 
     74 N          -2.1523  -24.6165  -45.6362 N.am      13 UNK        -0.5000 
     75 CA         -1.8354  -25.8952  -45.0047 C.3       13 UNK         0.1400 
     76 CB         -0.8037  -25.6697  -43.8888 C.3       13 UNK        -0.1800 
     77 C          -1.3305  -26.9458  -46.0121 C.2       13 UNK         0.5000 
     78 O          -1.7172  -28.1110  -45.9130 O.2       13 UNK        -0.5000 
     79 N          -0.4732  -26.5221  -46.9516 N.am      14 UNK        -0.5000 
     80 CA          0.1702  -27.4027  -47.9257 C.3       14 UNK         0.1400 
     81 CB          1.4000  -26.7029  -48.5237 C.3       14 UNK        -0.1800 
     82 C          -0.7657  -27.8888  -49.0470 C.2       14 UNK         0.5000 
     83 O          -0.7551  -29.0814  -49.3566 O.2       14 UNK        -0.5000 
     84 N          -1.5211  -26.9701  -49.6652 N.am      15 UNK        -0.5000 
     85 CA         -2.2566  -27.2271  -50.9071 C.3       15 UNK         0.1400 
     86 CB         -1.2887  -27.1443  -52.1065 C.3       15 UNK        -0.1800 
     87 C          -3.4753  -26.3013  -51.0727 C.2       15 UNK         0.5000 
     88 O          -3.8067  -25.9232  -52.1991 O.2       15 UNK        -0.5000 
     89 N          -4.1170  -25.9305  -49.9532 N.am      16 UNK        -0.5000 
     90 CA         -5.3440  -25.1216  -49.8672 C.3       16 UNK         0.1400 
     91 CB         -6.5406  -25.9093  -50.4425 C.3       16 UNK        -0.1800 
     92 C          -5.2331  -23.7134  -50.4943 C.2       16 UNK         0.5000 
     93 O          -6.2577  -23.1207  -50.8330 O.2       16 UNK        -0.5000 
     94 N          -3.9996  -23.2130  -50.6735 N.am      17 UNK        -0.5000 
     95 CA         -3.6418  -21.9762  -51.3781 C.3       17 UNK         0.1400 
     96 CB         -4.0113  -20.7439  -50.5306 C.3       17 UNK        -0.1800 
     97 C          -4.2141  -21.9419  -52.8116 C.2       17 UNK         0.5000 
     98 O          -4.8085  -20.9447  -53.2293 O.2       17 UNK        -0.5000 
     99 N          -4.0847  -23.0860  -53.5030 N.am      18 UNK        -0.5000 
    100 CA        -4.6156  -23.3975  -54.8359 C.3       18 UNK         0.1400 
    101 CB        -4.0097  -22.4581  -55.9004 C.3       18 UNK        -0.1800 
    102 C         -6.1592  -23.4359  -54.9009 C.2       18 UNK         0.5000 
    103 O         -6.7179  -23.4061  -55.9980 O.2       18 UNK        -0.5000 
    104 N         -6.8185  -23.4844  -53.7313 N.am      19 UNK        -0.5000 
    105 CA        -8.2656  -23.3921  -53.5074 C.3       19 UNK         0.1400 
    106 CB        -8.9988  -24.6052  -54.1162 C.3       19 UNK        -0.1800 
    107 C         -8.8626  -22.0381  -53.9517 C.2       19 UNK         0.5000 
    108 O        -10.0617  -21.9593  -54.2253 O.2       19 UNK        -0.5000 
    109 N         -8.0191  -20.9987  -54.0217 N.am      20 UNK        -0.5000 
    110 CA        -8.3595  -19.6821  -54.5599 C.3       20 UNK         0.1400 
    111 CB        -8.0294  -19.6615  -56.0648 C.3       20 UNK        -0.1800 
    112 C         -7.6539  -18.5404  -53.8068 C.2       20 UNK         0.5000 
    113 O         -7.6218  -17.4206  -54.3192 O.2       20 UNK        -0.5000 
    114 N         -7.0746  -18.8306  -52.6298 N.am      21 UNK        -0.5000 
    115 CA        -6.2959  -17.9105  -51.7861 C.3       21 UNK         0.1400 
    116 CB        -7.2249  -16.8738  -51.1208 C.3       21 UNK        -0.1800 
    117 C         -5.1146  -17.2653  -52.5461 C.2       21 UNK         0.5000 
    118 O         -4.9065  -16.0538  -52.4611 O.2       21 UNK        -0.5000 
    119 N         -4.4035  -18.0984  -53.3169 N.am      22 UNK        -0.5000 
    120 CA        -3.3375  -17.7399  -54.2693 C.3       22 UNK         0.1400 
    121 C         -3.8323  -17.0425  -55.5747 C.2       22 UNK         0.5000 
    122 N         -5.1270  -16.8561  -55.8027 N.am      22 UNK        -0.7600 
    123 O         -3.0213  -16.6889  -56.4265 O.2       22 UNK        -0.5000 
    124 C124       -2.1439  -16.9722  -53.6316 C.3       23 UNK        -0.0398 
    125 S125       -1.3732  -17.8444  -52.2291 S.3       23 UNK        -0.2404 
    126 C126        0.0691  -16.7600  -51.9617 C.3       23 UNK        -0.0205 
    127 H127        4.8873  -19.9052  -42.9657 H         1 UNK         0.0600 
    128 H128        3.6395  -20.8884  -42.1863 H         1 UNK         0.0600 
    129 H129        4.6281  -19.7838  -41.2261 H         1 UNK         0.0600 
    130 H130        3.8158  -18.3846  -44.2500 H         1 UNK         0.3000 
    131 H131        1.2515  -17.2429  -43.4826 H         1 UNK         0.0600 
    132 H132        1.2596  -16.1448  -45.6203 H         1 UNK         0.0800 
    133 H133        1.6941  -17.8143  -45.8438 H         1 UNK         0.0800 
    134 H134        2.0298  -15.0295  -47.6157 H         1 UNK         0.0800 
    135 H135        3.5977  -15.1316  -48.3706 H         1 UNK         0.0800 
    136 H136        1.0825  -15.3277  -49.8730 H         1 UNK         0.1150 
    137 H137        1.1362  -19.2283  -51.6164 H         1 UNK         0.1150 
    138 H138        3.4525  -18.4352  -48.1055 H         1 UNK         0.1150 
    139 H139        3.8850  -20.4218  -50.1269 H         1 UNK         0.0800 
    140 H140        2.8964  -20.7745  -48.7371 H         1 UNK         0.0800 
    141 H141       -0.3995  -21.9867  -50.7576 H         1 UNK         0.0800 
    142 H142       -0.0103  -20.6851  -49.6688 H         1 UNK         0.0800 
    143 H143        0.8219  -23.5504  -49.0399 H         1 UNK         0.0600 
    144 H144        0.6838  -21.0940  -47.4554 H         1 UNK         0.3000 
    145 H145        1.8681  -22.6846  -44.4810 H         1 UNK         0.0600 
    146 H146        3.5841  -20.9637  -44.7228 H         1 UNK         0.0600 
    147 H147        3.0722  -20.5818  -46.3614 H         1 UNK         0.0600 
    148 H148        3.8263  -22.1321  -46.0046 H         1 UNK         0.0600 
    149 H149        1.1412  -19.9801  -45.0354 H         1 UNK         0.3000 
    150 H150       -2.3291  -20.2350  -44.2845 H         1 UNK         0.0600 
    151 H151       -1.1723  -20.2269  -42.0486 H         1 UNK         0.0600 
    152 H152       -1.8488  -18.6722  -42.4933 H         1 UNK         0.0600 
    153 H153       -0.1145  -18.9500  -42.6302 H         1 UNK         0.0600 
    154 H154       -1.1792  -17.8623  -44.7244 H         1 UNK         0.3000 
    155 H155       -0.1916  -17.2581  -47.4485 H         1 UNK         0.0600 
    156 H156       -1.3555  -18.4873  -49.2652 H         1 UNK         0.0600 
    157 H157       -1.8892  -16.8173  -49.2330 H         1 UNK         0.0600 
    158 H158       -2.9235  -18.0861  -48.5755 H         1 UNK         0.0600 
    159 H159       -2.7270  -16.8553  -45.9917 H         1 UNK         0.3000 
    160 H160       -2.5240  -13.3620  -46.1205 H         1 UNK         0.0600 
    161 H161       -4.0756  -15.7498  -44.9742 H         1 UNK         0.0600 
    162 H162       -4.3901  -15.0061  -46.5408 H         1 UNK         0.0600 
    163 H163       -4.6092  -14.0782  -45.0685 H         1 UNK         0.0600 
    164 H164       -1.8693  -13.1468  -44.0273 H         1 UNK         0.3000 
    165 H165       -2.1169  -14.1198  -41.5049 H         1 UNK         0.0600 
    166 H166       -0.2862  -15.1264  -40.1231 H         1 UNK         0.0600 
    167 H167       -1.2926  -16.3545  -40.8745 H         1 UNK         0.0600 
    168 H168        0.2991  -16.0070  -41.5302 H         1 UNK         0.0600 
    169 H169        0.6130  -13.6608  -42.6366 H         1 UNK         0.3000 
    170 H170        0.0740  -10.1847  -42.7749 H         1 UNK         0.0600 
    171 H171        0.9871  -10.2444  -40.4970 H         1 UNK         0.0600 
    172 H172        2.0120  -11.6161  -40.8871 H         1 UNK         0.0600 
    173 H173        2.3091  -10.0487  -41.6387 H         1 UNK         0.0600 
    174 H174        2.2737  -11.9696  -43.3995 H         1 UNK         0.3000 
    175 H175        1.2219  -13.5168  -45.9143 H         1 UNK         0.0600 
    176 H176        0.5204  -11.9416  -47.6433 H         1 UNK         0.0600 
    177 H177        1.8858  -10.8831  -47.3228 H         1 UNK         0.0600 
    178 H178        2.1462  -12.4849  -48.0155 H         1 UNK         0.0600 
    179 H179        3.2484  -13.7106  -45.1911 H         1 UNK         0.3000 
    180 H180        5.8461  -13.0082  -45.7635 H         1 UNK         0.0600 
    181 H181        6.0201  -10.7918  -43.6534 H         1 UNK         0.0600 
    182 H182        6.6649  -10.7370  -45.2871 H         1 UNK         0.0600 
    183 H183        7.3462  -11.8563  -44.1187 H         1 UNK         0.0600 
    184 H184        5.5100  -14.4318  -44.0931 H         1 UNK         0.3000 
    185 H185        5.4026  -14.8726  -41.4812 H         1 UNK         0.0600 
    186 H186        4.0160  -13.5031  -39.9300 H         1 UNK         0.0600 
    187 H187        2.5530  -13.9738  -40.7863 H         1 UNK         0.0600 
    188 H188        3.4961  -15.1804  -39.9190 H         1 UNK         0.0600 
    189 H189        4.3640  -16.5385  -42.5372 H         1 UNK         0.3000 
    190 H190       -1.5932  -21.7340  -47.2008 H         1 UNK         0.3000 
    191 H191       -3.9061  -23.1484  -48.0314 H         1 UNK         0.0600 
    192 H192       -3.8853  -21.0180  -46.6762 H         1 UNK         0.0600 
    193 H193       -4.9429  -22.2667  -46.0336 H         1 UNK         0.0600 
    194 H194       -3.3927  -21.9684  -45.2717 H         1 UNK         0.0600 
    195 H195       -1.5528  -23.8306  -45.4052 H         1 UNK         0.3000 
    196 H196       -2.7481  -26.2833  -44.5475 H         1 UNK         0.0600 
    197 H197       -0.5580  -26.6066  -43.3875 H         1 UNK         0.0600 
    198 H198       -1.1872  -24.9856  -43.1315 H         1 UNK         0.0600 
    199 H199        0.1250  -25.2496  -44.2765 H         1 UNK         0.0600 
    200 H200       -0.1572  -25.5598  -46.9258 H         1 UNK         0.3000 
    201 H201        0.5272  -28.2859  -47.3913 H         1 UNK         0.0600 
    202 H202        2.1023  -26.4019  -47.7462 H         1 UNK         0.0600 
    203 H203        1.1224  -25.8150  -49.0901 H         1 UNK         0.0600 
    204 H204        1.9341  -27.3682  -49.2033 H         1 UNK         0.0600 
    205 H205       -1.4865  -25.9983  -49.3626 H         1 UNK         0.3000 
    206 H206       -2.6678  -28.2380  -50.8725 H         1 UNK         0.0600 
    207 H207       -0.4671  -27.8535  -52.0066 H         1 UNK         0.0600 
    208 H208       -1.7961  -27.3771  -53.0434 H         1 UNK         0.0600 
    209 H209       -0.8593  -26.1462  -52.2013 H         1 UNK         0.0600 
    210 H210       -3.7524  -26.2544  -49.0667 H         1 UNK         0.3000 
    211 H211       -5.5429  -24.9621  -48.8083 H         1 UNK         0.0600 
    212 H212       -6.4592  -26.0402  -51.5221 H         1 UNK         0.0600 
    213 H213       -7.4821  -25.3944  -50.2476 H         1 UNK         0.0600 
    214 H214       -6.6162  -26.8977  -49.9894 H         1 UNK         0.0600 
    215 H215       -3.2189  -23.7711  -50.3430 H         1 UNK         0.3000 
    216 H216       -2.5590  -21.9834  -51.4929 H         1 UNK         0.0600 
    217 H217       -3.6757  -19.8239  -51.0101 H         1 UNK         0.0600 
    218 H218       -3.5358  -20.7851  -49.5504 H         1 UNK         0.0600 
    219 H219       -5.0875  -20.6698  -50.3765 H         1 UNK         0.0600 
    220 H220       -3.6611  -23.8754  -53.0275 H         1 UNK         0.3000 
    221 H221       -4.2814  -24.4114  -55.0603 H         1 UNK         0.0600 
    222 H222       -4.3779  -21.4367  -55.7996 H         1 UNK         0.0600 
    223 H223       -2.9223  -22.4318  -55.8311 H         1 UNK         0.0600 
    224 H224       -4.2604  -22.7945  -56.9070 H         1 UNK         0.0600 
    225 H225       -6.2687  -23.4755  -52.8801 H         1 UNK         0.3000 
    226 H226       -8.4075  -23.4378  -52.4271 H         1 UNK         0.0600 
    227 H227       -8.5512  -25.5423  -53.7849 H         1 UNK         0.0600 
    228 H228      -10.0457  -24.6225  -53.8115 H         1 UNK         0.0600 
    229 H229       -8.9777  -24.5887  -55.2061 H         1 UNK         0.0600 
    230 H230       -7.0428  -21.1521  -53.7990 H         1 UNK         0.3000 
    231 H231       -9.4290  -19.4996  -54.4382 H         1 UNK         0.0600 
    232 H232       -6.9617  -19.8016  -56.2398 H         1 UNK         0.0600 
    233 H233       -8.3184  -18.7151  -56.5232 H         1 UNK         0.0600 
    234 H234       -8.5605  -20.4511  -56.5967 H         1 UNK         0.0600 
    235 H235       -7.1412  -19.7802  -52.2931 H         1 UNK         0.3000 
    236 H236       -5.8562  -18.5093  -50.9892 H         1 UNK         0.0600 
    237 H237       -8.0299  -17.3619  -50.5715 H         1 UNK         0.0600 
    238 H238       -6.6753  -16.2567  -50.4090 H         1 UNK         0.0600 
    239 H239       -7.6768  -16.2046  -51.8536 H         1 UNK         0.0600 
    240 H240       -4.6588  -19.0833  -53.3163 H         1 UNK         0.3000 
    241 H241       -2.9480  -18.6995  -54.6112 H         1 UNK         0.0600 
    242 H242       -5.4109  -16.4137  -56.6620 H         1 UNK         0.3800 
    243 H243       -5.8328  -17.1048  -55.1185 H         1 UNK         0.3800 
    244 H244       -1.3646  -16.8102  -54.3782 H         1 UNK         0.0800 
    245 H245       -2.4521  -15.9797  -53.3013 H         1 UNK         0.0800 
    246 H246        0.6499  -16.6993  -52.8830 H         1 UNK         0.0800 
    247 H247       -0.2900  -15.7514  -51.7509 H         1 UNK         0.0800 
@<TRIPOS>BOND
     1    1    2 1    
     2    1  127 1    
     3    1  128 1    
     4    1  129 1    
     5    2    3 2    
     6    2    4 am   BACKBONE|DICT|INTERRES
     7    4    5 1    
     8    4  130 1    
     9    5    6 1    
    10    5   65 1    
    11    5  131 1    
    12    6    7 1    
    13    6  132 1    
    14    6  133 1    
    15    7    8 1    
    16    8    9 1    
    17    8  134 1    
    18    8  135 1    
    19    9   10 ar   
    20    9   14 ar   
    21   10   11 ar   
    22   10  136 1    
    23   11   12 ar   
    24   11  126 1    
    25   12   13 ar   
    26   12  137 1    
    27   13   14 ar   
    28   13   15 1    
    29   14  138 1    
    30   15   16 1    
    31   15  139 1    
    32   15  140 1    
    33   16   17 1    
    34   17   18 1    
    35   17  141 1    
    36   17  142 1    
    37   18   19 1    
    38   18   67 1    
    39   18  143 1    
    40   19   20 am   BACKBONE|DICT|INTERRES
    41   19  144 1    
    42   20   21 2    
    43   20   22 1    
    44   22   23 1    
    45   22   24 1    
    46   22  145 1    
    47   23  146 1    
    48   23  147 1    
    49   23  148 1    
    50   24   25 am   BACKBONE|DICT|INTERRES
    51   24  149 1    
    52   25   26 2    
    53   25   27 1    
    54   27   28 1    
    55   27   29 1    
    56   27  150 1    
    57   28  151 1    
    58   28  152 1    
    59   28  153 1    
    60   29   30 am   BACKBONE|DICT|INTERRES
    61   29  154 1    
    62   30   31 2    
    63   30   32 1    
    64   32   33 1    
    65   32   34 1    
    66   32  155 1    
    67   33  156 1    
    68   33  157 1    
    69   33  158 1    
    70   34   35 am   BACKBONE|DICT|INTERRES
    71   34  159 1    
    72   35   36 2    
    73   35   37 1    
    74   37   38 1    
    75   37   39 1    
    76   37  160 1    
    77   38  161 1    
    78   38  162 1    
    79   38  163 1    
    80   39   40 am   BACKBONE|DICT|INTERRES
    81   39  164 1    
    82   40   41 2    
    83   40   42 1    
    84   42   43 1    
    85   42   44 1    
    86   42  165 1    
    87   43  166 1    
    88   43  167 1    
    89   43  168 1    
    90   44   45 am   BACKBONE|DICT|INTERRES
    91   44  169 1    
    92   45   46 2    
    93   45   47 1    
    94   47   48 1    
    95   47   49 1    
    96   47  170 1    
    97   48  171 1    
    98   48  172 1    
    99   48  173 1    
   100   49   50 am   BACKBONE|DICT|INTERRES
   101   49  174 1    
   102   50   51 2    
   103   50   52 1    
   104   52   53 1    
   105   52   54 1    
   106   52  175 1    
   107   53  176 1    
   108   53  177 1    
   109   53  178 1    
   110   54   55 am   BACKBONE|DICT|INTERRES
   111   54  179 1    
   112   55   56 2    
   113   55   57 1    
   114   57   58 1    
   115   57   59 1    
   116   57  180 1    
   117   58  181 1    
   118   58  182 1    
   119   58  183 1    
   120   59   60 am   BACKBONE|DICT|INTERRES
   121   59  184 1    
   122   60   61 2    
   123   60   62 1    
   124   62   63 1    
   125   62   64 1    
   126   62  185 1    
   127   63  186 1    
   128   63  187 1    
   129   63  188 1    
   130   64   65 am   BACKBONE|DICT|INTERRES
   131   64  189 1    
   132   65   66 2    
   133   67   68 2    
   134   67   69 am   BACKBONE|DICT|INTERRES
   135   69   70 1    
   136   69  190 1    
   137   70   71 1    
   138   70   72 1    
   139   70  191 1    
   140   71  192 1    
   141   71  193 1    
   142   71  194 1    
   143   72   73 2    
   144   72   74 am   BACKBONE|DICT|INTERRES
   145   74   75 1    
   146   74  195 1    
   147   75   76 1    
   148   75   77 1    
   149   75  196 1    
   150   76  197 1    
   151   76  198 1    
   152   76  199 1    
   153   77   78 2    
   154   77   79 am   BACKBONE|DICT|INTERRES
   155   79   80 1    
   156   79  200 1    
   157   80   81 1    
   158   80   82 1    
   159   80  201 1    
   160   81  202 1    
   161   81  203 1    
   162   81  204 1    
   163   82   83 2    
   164   82   84 am   BACKBONE|DICT|INTERRES
   165   84   85 1    
   166   84  205 1    
   167   85   86 1    
   168   85   87 1    
   169   85  206 1    
   170   86  207 1    
   171   86  208 1    
   172   86  209 1    
   173   87   88 2    
   174   87   89 am   BACKBONE|DICT|INTERRES
   175   89   90 1    
   176   89  210 1    
   177   90   91 1    
   178   90   92 1    
   179   90  211 1    
   180   91  212 1    
   181   91  213 1    
   182   91  214 1    
   183   92   93 2    
   184   92   94 am   BACKBONE|DICT|INTERRES
   185   94   95 1    
   186   94  215 1    
   187   95   96 1    
   188   95   97 1    
   189   95  216 1    
   190   96  217 1    
   191   96  218 1    
   192   96  219 1    
   193   97   98 2    
   194   97   99 am   BACKBONE|DICT|INTERRES
   195   99  100 1    
   196   99  220 1    
   197  100  101 1    
   198  100  102 1    
   199  100  221 1    
   200  101  222 1    
   201  101  223 1    
   202  101  224 1    
   203  102  103 2    
   204  102  104 am   BACKBONE|DICT|INTERRES
   205  104  105 1    
   206  104  225 1    
   207  105  106 1    
   208  105  107 1    
   209  105  226 1    
   210  106  227 1    
   211  106  228 1    
   212  106  229 1    
   213  107  108 2    
   214  107  109 am   BACKBONE|DICT|INTERRES
   215  109  110 1    
   216  109  230 1    
   217  110  111 1    
   218  110  112 1    
   219  110  231 1    
   220  111  232 1    
   221  111  233 1    
   222  111  234 1    
   223  112  113 2    
   224  112  114 am   BACKBONE|DICT|INTERRES
   225  114  115 1    
   226  114  235 1    
   227  115  116 1    
   228  115  117 1    
   229  115  236 1    
   230  116  237 1    
   231  116  238 1    
   232  116  239 1    
   233  117  118 2    
   234  117  119 am   BACKBONE|DICT|INTERRES
   235  119  120 1    
   236  119  240 1    
   237  120  121 1    
   238  120  124 1    
   239  120  241 1    
   240  121  122 am   BACKBONE|DICT|INTERRES
   241  121  123 2    
   242  122  242 1    
   243  122  243 1    
   244  124  125 1    
   245  124  244 1    
   246  124  245 1    
   247  125  126 1    
   248  126  246 1    
   249  126  247 1    
@<TRIPOS>SUBSTRUCTURE
     1 UNK         1 GROUP             0       ****    0 ROOT    
