@<TRIPOS>MOLECULE
3R540
247   249    1
SMALL
USER_CHARGES


@<TRIPOS>ATOM
      1 CA         -2.2267  -15.9449  -44.3109 C.3       0 UNK        -0.1800 
      2 C          -2.4422  -14.8338  -45.3217 C.2       0 UNK         0.5000 
      3 O          -3.4398  -14.1181  -45.2413 O.2       0 UNK        -0.5000 
      4 N          -1.4905  -14.6568  -46.2474 N.am      1 UNK        -0.5000 
      5 CA         -1.5076  -13.6290  -47.3007 C.3       1 UNK         0.1400 
      6 C6         -0.3500  -13.8116  -48.3117 C.3       23 UNK        -0.0398 
      7 S7         -0.2978  -15.4760  -49.0593 S.3       23 UNK        -0.2404 
      8 C8          1.1635  -15.2765  -50.1225 C.3       23 UNK        -0.0205 
      9 C9          1.5863  -16.5875  -50.7667 C.ar      23 UNK        -0.0193 
     10 C10         0.8598  -17.1083  -51.8416 C.ar      23 UNK        -0.1150 
     11 C11         1.2680  -18.2899  -52.4666 C.ar      23 UNK        -0.0193 
     12 C12         2.4169  -18.9452  -52.0159 C.ar      23 UNK        -0.1150 
     13 C13         3.1540  -18.4345  -50.9437 C.ar      23 UNK        -0.0193 
     14 C14         2.7269  -17.2600  -50.3158 C.ar      23 UNK        -0.1150 
     15 C15         4.4362  -19.1249  -50.4966 C.3       23 UNK        -0.0205 
     16 S16         4.1648  -20.8364  -49.9379 S.3       23 UNK        -0.2404 
     17 C17         3.2703  -20.5637  -48.3744 C.3       23 UNK        -0.0398 
     18 CA          2.3575  -21.7551  -47.9969 C.3       11 UNK         0.1400 
     19 N           2.0723  -21.7731  -46.5603 N.am      11 UNK        -0.5000 
     20 C           1.5392  -22.8051  -45.8918 C.2       10 UNK         0.5000 
     21 O           1.2656  -23.8893  -46.4062 O.2       10 UNK        -0.5000 
     22 CA          1.2324  -22.5773  -44.3989 C.3       10 UNK         0.1400 
     23 CB          2.4778  -22.8356  -43.5376 C.3       10 UNK        -0.1800 
     24 N           0.7220  -21.2332  -44.1267 N.am      10 UNK        -0.5000 
     25 C          -0.4430  -20.7581  -44.5888 C.2       9 UNK         0.5000 
     26 O          -1.2416  -21.4270  -45.2425 O.2       9 UNK        -0.5000 
     27 CA         -0.7391  -19.2724  -44.3197 C.3       9 UNK         0.1400 
     28 CB         -1.2635  -19.0790  -42.8873 C.3       9 UNK        -0.1800 
     29 N           0.4325  -18.4221  -44.5489 N.am      9 UNK        -0.5000 
     30 C           1.0504  -18.2797  -45.7315 C.2       8 UNK         0.5000 
     31 O           0.6644  -18.8088  -46.7705 O.2       8 UNK        -0.5000 
     32 CA          2.3508  -17.4597  -45.7505 C.3       8 UNK         0.1400 
     33 CB          2.0603  -15.9623  -45.9176 C.3       8 UNK        -0.1800 
     34 N           3.1446  -17.6829  -44.5439 N.am      8 UNK        -0.5000 
     35 C           3.7982  -18.8229  -44.2782 C.2       7 UNK         0.5000 
     36 O           3.8354  -19.7827  -45.0479 O.2       7 UNK        -0.5000 
     37 CA          4.4802  -18.9211  -42.9013 C.3       7 UNK         0.1400 
     38 CB          5.8617  -18.2508  -42.9309 C.3       7 UNK        -0.1800 
     39 N           3.6712  -18.3234  -41.8372 N.am      7 UNK        -0.5000 
     40 C           2.4903  -18.8073  -41.4266 C.2       6 UNK         0.5000 
     41 O           1.9935  -19.8453  -41.8631 O.2       6 UNK        -0.5000 
     42 CA          1.7133  -17.9678  -40.3934 C.3       6 UNK         0.1400 
     43 CB          2.0913  -18.3869  -38.9654 C.3       6 UNK        -0.1800 
     44 N           1.9099  -16.5221  -40.5416 N.am      6 UNK        -0.5000 
     45 C           1.5749  -15.8080  -41.6236 C.2       5 UNK         0.5000 
     46 O           1.0548  -16.2981  -42.6274 O.2       5 UNK        -0.5000 
     47 CA          1.8837  -14.3003  -41.5747 C.3       5 UNK         0.1400 
     48 CB          2.2177  -13.7353  -42.9655 C.3       5 UNK        -0.1800 
     49 N           0.7666  -13.5432  -41.0173 N.am      5 UNK        -0.5000 
     50 C           0.4248  -13.5006  -39.7233 C.2       4 UNK         0.5000 
     51 O           1.0336  -14.1041  -38.8385 O.2       4 UNK        -0.5000 
     52 CA         -0.7783  -12.6154  -39.3436 C.3       4 UNK         0.1400 
     53 CB         -0.2977  -11.3273  -38.6573 C.3       4 UNK        -0.1800 
     54 N          -1.6136  -12.2465  -40.4885 N.am      4 UNK        -0.5000 
     55 C          -2.5575  -13.0182  -41.0375 C.2       3 UNK         0.5000 
     56 O          -2.8087  -14.1614  -40.6566 O.2       3 UNK        -0.5000 
     57 CA         -3.3549  -12.4159  -42.2108 C.3       3 UNK         0.1400 
     58 CB         -4.3059  -11.3010  -41.7339 C.3       3 UNK        -0.1800 
     59 N          -2.5295  -11.9747  -43.3435 N.am      3 UNK        -0.5000 
     60 C          -1.6312  -10.9786  -43.4098 C.2       2 UNK         0.5000 
     61 O          -1.3573  -10.2465  -42.4576 O.2       2 UNK        -0.5000 
     62 CA         -0.8961  -10.7874  -44.7542 C.3       2 UNK         0.1400 
     63 CB          0.5639  -10.3435  -44.5539 C.3       2 UNK        -0.1800 
     64 N          -0.9091  -12.0221  -45.5415 N.am      2 UNK        -0.5000 
     65 C          -1.4957  -12.1890  -46.7347 C.2       1 UNK         0.5000 
     66 O          -2.0317  -11.2811  -47.3708 O.2       1 UNK        -0.5000 
     67 C           1.0662  -21.7890  -48.8454 C.2       11 UNK         0.5000 
     68 O           0.9847  -22.5648  -49.7980 O.2       11 UNK        -0.5000 
     69 N           0.0756  -20.9679  -48.4696 N.am      12 UNK        -0.5000 
     70 CA         -1.2349  -20.8815  -49.1159 C.3       12 UNK         0.1400 
     71 CB         -1.9426  -19.6040  -48.6379 C.3       12 UNK        -0.1800 
     72 C          -2.1286  -22.1108  -48.8690 C.2       12 UNK         0.5000 
     73 O          -2.9672  -22.4235  -49.7179 O.2       12 UNK        -0.5000 
     74 N          -1.9129  -22.7772  -47.7272 N.am      13 UNK        -0.5000 
     75 CA         -2.6268  -23.9336  -47.1851 C.3       13 UNK         0.1400 
     76 CB         -2.6547  -25.1038  -48.1902 C.3       13 UNK        -0.1800 
     77 C          -4.0356  -23.5818  -46.6691 C.2       13 UNK         0.5000 
     78 O          -4.5367  -22.4734  -46.8824 O.2       13 UNK        -0.5000 
     79 N          -4.6516  -24.5489  -45.9750 N.am      14 UNK        -0.5000 
     80 CA         -6.0050  -24.4617  -45.4247 C.3       14 UNK         0.1400 
     81 CB         -6.3300  -25.7593  -44.6698 C.3       14 UNK        -0.1800 
     82 C          -7.0460  -24.1973  -46.5261 C.2       14 UNK         0.5000 
     83 O          -7.0191  -24.8693  -47.5588 O.2       14 UNK        -0.5000 
     84 N          -7.9027  -23.1915  -46.3024 N.am      15 UNK        -0.5000 
     85 CA         -8.9169  -22.6784  -47.2339 C.3       15 UNK         0.1400 
     86 CB        -10.0322  -23.7238  -47.4479 C.3       15 UNK        -0.1800 
     87 C          -8.3353  -22.1515  -48.5679 C.2       15 UNK         0.5000 
     88 O          -9.0559  -22.1045  -49.5661 O.2       15 UNK        -0.5000 
     89 N          -7.0465  -21.7696  -48.5606 N.am      16 UNK        -0.5000 
     90 CA         -6.2469  -21.3124  -49.7024 C.3       16 UNK         0.1400 
     91 CB         -6.7885  -19.9738  -50.2503 C.3       16 UNK        -0.1800 
     92 C          -6.0801  -22.3896  -50.7976 C.2       16 UNK         0.5000 
     93 O          -5.9691  -22.0504  -51.9762 O.2       16 UNK        -0.5000 
     94 N          -6.0700  -23.6712  -50.3983 N.am      17 UNK        -0.5000 
     95 CA         -6.0495  -24.8296  -51.2953 C.3       17 UNK         0.1400 
     96 CB         -6.1794  -26.1177  -50.4692 C.3       17 UNK        -0.1800 
     97 C          -4.8270  -24.9123  -52.2293 C.2       17 UNK         0.5000 
     98 O          -4.9734  -25.3800  -53.3592 O.2       17 UNK        -0.5000 
     99 N          -3.6568  -24.4565  -51.7621 N.am      18 UNK        -0.5000 
    100 CA        -2.4390  -24.3879  -52.5699 C.3       18 UNK         0.1400 
    101 CB        -1.2069  -24.6409  -51.6905 C.3       18 UNK        -0.1800 
    102 C         -2.3362  -23.0388  -53.2969 C.2       18 UNK         0.5000 
    103 O         -1.9013  -23.0078  -54.4485 O.2       18 UNK        -0.5000 
    104 N         -2.7787  -21.9536  -52.6431 N.am      19 UNK        -0.5000 
    105 CA        -2.8183  -20.5971  -53.2004 C.3       19 UNK         0.1400 
    106 CB        -3.1191  -19.5739  -52.0955 C.3       19 UNK        -0.1800 
    107 C         -3.7628  -20.4213  -54.4022 C.2       19 UNK         0.5000 
    108 O         -3.5453  -19.5168  -55.2085 O.2       19 UNK        -0.5000 
    109 N         -4.7523  -21.3133  -54.5347 N.am      20 UNK        -0.5000 
    110 CA        -5.6138  -21.4535  -55.7089 C.3       20 UNK         0.1400 
    111 CB        -6.6741  -22.5264  -55.4179 C.3       20 UNK        -0.1800 
    112 C         -4.8420  -21.7925  -57.0034 C.2       20 UNK         0.5000 
    113 O         -5.3160  -21.4534  -58.0886 O.2       20 UNK        -0.5000 
    114 N         -3.6725  -22.4337  -56.8674 N.am      21 UNK        -0.5000 
    115 CA        -2.7379  -22.7108  -57.9546 C.3       21 UNK         0.1400 
    116 CB        -2.2958  -24.1821  -57.8828 C.3       21 UNK        -0.1800 
    117 C         -1.5282  -21.7643  -57.8744 C.2       21 UNK         0.5000 
    118 O         -1.2311  -21.0774  -58.8522 O.2       21 UNK        -0.5000 
    119 N         -0.8577  -21.7450  -56.7126 N.am      22 UNK        -0.5000 
    120 CA         0.3728  -20.9846  -56.4280 C.3       22 UNK         0.1400 
    121 C          1.5999  -21.3877  -57.3091 C.2       22 UNK         0.5000 
    122 N          1.6709  -22.6214  -57.7953 N.am      22 UNK        -0.7600 
    123 O          2.5062  -20.5949  -57.5491 O.2       22 UNK        -0.5000 
    124 C124        0.1109  -19.4521  -56.3496 C.3       23 UNK        -0.0398 
    125 S125        1.2552  -18.5730  -55.2253 S.3       23 UNK        -0.2404 
    126 C126        0.4637  -18.8719  -53.6161 C.3       23 UNK        -0.0205 
    127 H127       -2.5273  -15.6177  -43.3154 H         1 UNK         0.0600 
    128 H128       -1.1772  -16.2298  -44.2637 H         1 UNK         0.0600 
    129 H129       -2.8179  -16.8198  -44.5793 H         1 UNK         0.0600 
    130 H130       -0.7159  -15.3023  -46.2898 H         1 UNK         0.3000 
    131 H131       -2.4474  -13.7465  -47.8446 H         1 UNK         0.0600 
    132 H132        0.6102  -13.6204  -47.8288 H         1 UNK         0.0800 
    133 H133       -0.4380  -13.0829  -49.1200 H         1 UNK         0.0800 
    134 H134        1.9850  -14.8652  -49.5337 H         1 UNK         0.0800 
    135 H135        0.9458  -14.5433  -50.9006 H         1 UNK         0.0800 
    136 H136       -0.0231  -16.5906  -52.1896 H         1 UNK         0.1150 
    137 H137        2.7423  -19.8528  -52.5051 H         1 UNK         0.1150 
    138 H138        3.2958  -16.8547  -49.4909 H         1 UNK         0.1150 
    139 H139        5.1340  -19.1382  -51.3348 H         1 UNK         0.0800 
    140 H140        4.9271  -18.5634  -49.7000 H         1 UNK         0.0800 
    141 H141        2.7026  -19.6331  -48.4171 H         1 UNK         0.0800 
    142 H142        4.0311  -20.4167  -47.6073 H         1 UNK         0.0800 
    143 H143        2.9060  -22.6757  -48.2092 H         1 UNK         0.0600 
    144 H144        2.3118  -20.9368  -46.0413 H         1 UNK         0.3000 
    145 H145        0.4619  -23.2933  -44.1054 H         1 UNK         0.0600 
    146 H146        2.2486  -22.7408  -42.4760 H         1 UNK         0.0600 
    147 H147        2.8626  -23.8432  -43.6995 H         1 UNK         0.0600 
    148 H148        3.2810  -22.1356  -43.7687 H         1 UNK         0.0600 
    149 H149        1.2939  -20.6358  -43.5373 H         1 UNK         0.3000 
    150 H150       -1.5170  -18.9532  -45.0161 H         1 UNK         0.0600 
    151 H151       -1.3833  -18.0264  -42.6348 H         1 UNK         0.0600 
    152 H152       -0.5974  -19.5205  -42.1473 H         1 UNK         0.0600 
    153 H153       -2.2369  -19.5559  -42.7679 H         1 UNK         0.0600 
    154 H154        0.7851  -17.8994  -43.7534 H         1 UNK         0.3000 
    155 H155        2.9411  -17.7838  -46.6104 H         1 UNK         0.0600 
    156 H156        1.3687  -15.5945  -45.1611 H         1 UNK         0.0600 
    157 H157        1.6153  -15.7692  -46.8918 H         1 UNK         0.0600 
    158 H158        2.9738  -15.3705  -45.8595 H         1 UNK         0.0600 
    159 H159        3.1082  -16.9647  -43.8363 H         1 UNK         0.3000 
    160 H160        4.6178  -19.9800  -42.6722 H         1 UNK         0.0600 
    161 H161        5.7887  -17.1814  -43.1328 H         1 UNK         0.0600 
    162 H162        6.4908  -18.6894  -43.7067 H         1 UNK         0.0600 
    163 H163        6.3820  -18.3788  -41.9815 H         1 UNK         0.0600 
    164 H164        4.0145  -17.4705  -41.4210 H         1 UNK         0.3000 
    165 H165        0.6506  -18.1712  -40.5370 H         1 UNK         0.0600 
    166 H166        1.4845  -17.8621  -38.2270 H         1 UNK         0.0600 
    167 H167        1.9304  -19.4555  -38.8164 H         1 UNK         0.0600 
    168 H168        3.1397  -18.1787  -38.7483 H         1 UNK         0.0600 
    169 H169        2.2734  -16.0300  -39.7365 H         1 UNK         0.3000 
    170 H170        2.7607  -14.1534  -40.9407 H         1 UNK         0.0600 
    171 H171        3.0117  -14.3108  -43.4427 H         1 UNK         0.0600 
    172 H172        1.3521  -13.7497  -43.6281 H         1 UNK         0.0600 
    173 H173        2.5675  -12.7056  -42.8936 H         1 UNK         0.0600 
    174 H174        0.1929  -13.0324  -41.6700 H         1 UNK         0.3000 
    175 H175       -1.3847  -13.1763  -38.6294 H         1 UNK         0.0600 
    176 H176        0.3089  -10.7173  -39.3279 H         1 UNK         0.0600 
    177 H177       -1.1401  -10.7215  -38.3227 H         1 UNK         0.0600 
    178 H178        0.3081  -11.5527  -37.7785 H         1 UNK         0.0600 
    179 H179       -1.4535  -11.3339  -40.9080 H         1 UNK         0.3000 
    180 H180       -3.9791  -13.2201  -42.6036 H         1 UNK         0.0600 
    181 H181       -4.9285  -10.9399  -42.5524 H         1 UNK         0.0600 
    182 H182       -3.7680  -10.4473  -41.3212 H         1 UNK         0.0600 
    183 H183       -4.9751  -11.6693  -40.9553 H         1 UNK         0.0600 
    184 H184       -2.6873  -12.5117  -44.1895 H         1 UNK         0.3000 
    185 H185       -1.4229   -9.9912  -45.2834 H         1 UNK         0.0600 
    186 H186        1.1271  -11.0667  -43.9648 H         1 UNK         0.0600 
    187 H187        1.0724  -10.2217  -45.5104 H         1 UNK         0.0600 
    188 H188        0.6173   -9.3846  -44.0369 H         1 UNK         0.0600 
    189 H189       -0.5019  -12.8343  -45.1013 H         1 UNK         0.3000 
    190 H190        0.2466  -20.3082  -47.7129 H         1 UNK         0.3000 
    191 H191       -1.0686  -20.8115  -50.1917 H         1 UNK         0.0600 
    192 H192       -2.9349  -19.5109  -49.0803 H         1 UNK         0.0600 
    193 H193       -1.3761  -18.7136  -48.9128 H         1 UNK         0.0600 
    194 H194       -2.0678  -19.5994  -47.5543 H         1 UNK         0.0600 
    195 H195       -1.2728  -22.3461  -47.0696 H         1 UNK         0.3000 
    196 H196       -2.0427  -24.2486  -46.3191 H         1 UNK         0.0600 
    197 H197       -3.3482  -24.9187  -49.0089 H         1 UNK         0.0600 
    198 H198       -1.6673  -25.2821  -48.6164 H         1 UNK         0.0600 
    199 H199       -2.9687  -26.0298  -47.7082 H         1 UNK         0.0600 
    200 H200       -4.1849  -25.4362  -45.8596 H         1 UNK         0.3000 
    201 H201       -6.0198  -23.6343  -44.7122 H         1 UNK         0.0600 
    202 H202       -6.2995  -26.6271  -45.3302 H         1 UNK         0.0600 
    203 H203       -7.3280  -25.7159  -44.2315 H         1 UNK         0.0600 
    204 H204       -5.6255  -25.9309  -43.8558 H         1 UNK         0.0600 
    205 H205       -7.8284  -22.6867  -45.4297 H         1 UNK         0.3000 
    206 H206       -9.3676  -21.8140  -46.7445 H         1 UNK         0.0600 
    207 H207      -10.4290  -24.0780  -46.4965 H         1 UNK         0.0600 
    208 H208      -10.8669  -23.2988  -48.0064 H         1 UNK         0.0600 
    209 H209       -9.6743  -24.5897  -48.0056 H         1 UNK         0.0600 
    210 H210       -6.5220  -21.8853  -47.7011 H         1 UNK         0.3000 
    211 H211       -5.2472  -21.1217  -49.3116 H         1 UNK         0.0600 
    212 H212       -6.1306  -19.5601  -51.0139 H         1 UNK         0.0600 
    213 H213       -6.8707  -19.2292  -49.4587 H         1 UNK         0.0600 
    214 H214       -7.7717  -20.0890  -50.7065 H         1 UNK         0.0600 
    215 H215       -6.1927  -23.8705  -49.4131 H         1 UNK         0.3000 
    216 H216       -6.9312  -24.7526  -51.9349 H         1 UNK         0.0600 
    217 H217       -5.3819  -26.2055  -49.7306 H         1 UNK         0.0600 
    218 H218       -6.1371  -27.0015  -51.1071 H         1 UNK         0.0600 
    219 H219       -7.1317  -26.1496  -49.9400 H         1 UNK         0.0600 
    220 H220       -3.6223  -24.0187  -50.8478 H         1 UNK         0.3000 
    221 H221       -2.4567  -25.1707  -53.3313 H         1 UNK         0.0600 
    222 H222       -1.2643  -25.6141  -51.2032 H         1 UNK         0.0600 
    223 H223       -1.0960  -23.8854  -50.9152 H         1 UNK         0.0600 
    224 H224       -0.2940  -24.6283  -52.2871 H         1 UNK         0.0600 
    225 H225       -3.1119  -22.0697  -51.6923 H         1 UNK         0.3000 
    226 H226       -1.8253  -20.3902  -53.5913 H         1 UNK         0.0600 
    227 H227       -3.9004  -19.9250  -51.4236 H         1 UNK         0.0600 
    228 H228       -2.2286  -19.3694  -51.5048 H         1 UNK         0.0600 
    229 H229       -3.4421  -18.6168  -52.5077 H         1 UNK         0.0600 
    230 H230       -4.9333  -21.9412  -53.7590 H         1 UNK         0.3000 
    231 H231       -6.1207  -20.4995  -55.8663 H         1 UNK         0.0600 
    232 H232       -6.2180  -23.4976  -55.2212 H         1 UNK         0.0600 
    233 H233       -7.3536  -22.6459  -56.2627 H         1 UNK         0.0600 
    234 H234       -7.2778  -22.2591  -54.5503 H         1 UNK         0.0600 
    235 H235       -3.3445  -22.6448  -55.9326 H         1 UNK         0.3000 
    236 H236       -3.2178  -22.5557  -58.9231 H         1 UNK         0.0600 
    237 H237       -3.1459  -24.8512  -58.0169 H         1 UNK         0.0600 
    238 H238       -1.5749  -24.4121  -58.6683 H         1 UNK         0.0600 
    239 H239       -1.8314  -24.4246  -56.9263 H         1 UNK         0.0600 
    240 H240       -1.1894  -22.3293  -55.9474 H         1 UNK         0.3000 
    241 H241        0.6506  -21.3139  -55.4267 H         1 UNK         0.0600 
    242 H242        2.4623  -22.8857  -58.3610 H         1 UNK         0.3800 
    243 H243        0.9448  -23.2929  -57.6043 H         1 UNK         0.3800 
    244 H244       -0.9051  -19.2592  -56.0031 H         1 UNK         0.0800 
    245 H245        0.1704  -19.0019  -57.3417 H         1 UNK         0.0800 
    246 H246       -0.5418  -18.4487  -53.6270 H         1 UNK         0.0800 
    247 H247        0.3630  -19.9459  -53.4585 H         1 UNK         0.0800 
@<TRIPOS>BOND
     1    1    2 1    
     2    1  127 1    
     3    1  128 1    
     4    1  129 1    
     5    2    3 2    
     6    2    4 am   BACKBONE|DICT|INTERRES
     7    4    5 1    
     8    4  130 1    
     9    5    6 1    
    10    5   65 1    
    11    5  131 1    
    12    6    7 1    
    13    6  132 1    
    14    6  133 1    
    15    7    8 1    
    16    8    9 1    
    17    8  134 1    
    18    8  135 1    
    19    9   10 ar   
    20    9   14 ar   
    21   10   11 ar   
    22   10  136 1    
    23   11   12 ar   
    24   11  126 1    
    25   12   13 ar   
    26   12  137 1    
    27   13   14 ar   
    28   13   15 1    
    29   14  138 1    
    30   15   16 1    
    31   15  139 1    
    32   15  140 1    
    33   16   17 1    
    34   17   18 1    
    35   17  141 1    
    36   17  142 1    
    37   18   19 1    
    38   18   67 1    
    39   18  143 1    
    40   19   20 am   BACKBONE|DICT|INTERRES
    41   19  144 1    
    42   20   21 2    
    43   20   22 1    
    44   22   23 1    
    45   22   24 1    
    46   22  145 1    
    47   23  146 1    
    48   23  147 1    
    49   23  148 1    
    50   24   25 am   BACKBONE|DICT|INTERRES
    51   24  149 1    
    52   25   26 2    
    53   25   27 1    
    54   27   28 1    
    55   27   29 1    
    56   27  150 1    
    57   28  151 1    
    58   28  152 1    
    59   28  153 1    
    60   29   30 am   BACKBONE|DICT|INTERRES
    61   29  154 1    
    62   30   31 2    
    63   30   32 1    
    64   32   33 1    
    65   32   34 1    
    66   32  155 1    
    67   33  156 1    
    68   33  157 1    
    69   33  158 1    
    70   34   35 am   BACKBONE|DICT|INTERRES
    71   34  159 1    
    72   35   36 2    
    73   35   37 1    
    74   37   38 1    
    75   37   39 1    
    76   37  160 1    
    77   38  161 1    
    78   38  162 1    
    79   38  163 1    
    80   39   40 am   BACKBONE|DICT|INTERRES
    81   39  164 1    
    82   40   41 2    
    83   40   42 1    
    84   42   43 1    
    85   42   44 1    
    86   42  165 1    
    87   43  166 1    
    88   43  167 1    
    89   43  168 1    
    90   44   45 am   BACKBONE|DICT|INTERRES
    91   44  169 1    
    92   45   46 2    
    93   45   47 1    
    94   47   48 1    
    95   47   49 1    
    96   47  170 1    
    97   48  171 1    
    98   48  172 1    
    99   48  173 1    
   100   49   50 am   BACKBONE|DICT|INTERRES
   101   49  174 1    
   102   50   51 2    
   103   50   52 1    
   104   52   53 1    
   105   52   54 1    
   106   52  175 1    
   107   53  176 1    
   108   53  177 1    
   109   53  178 1    
   110   54   55 am   BACKBONE|DICT|INTERRES
   111   54  179 1    
   112   55   56 2    
   113   55   57 1    
   114   57   58 1    
   115   57   59 1    
   116   57  180 1    
   117   58  181 1    
   118   58  182 1    
   119   58  183 1    
   120   59   60 am   BACKBONE|DICT|INTERRES
   121   59  184 1    
   122   60   61 2    
   123   60   62 1    
   124   62   63 1    
   125   62   64 1    
   126   62  185 1    
   127   63  186 1    
   128   63  187 1    
   129   63  188 1    
   130   64   65 am   BACKBONE|DICT|INTERRES
   131   64  189 1    
   132   65   66 2    
   133   67   68 2    
   134   67   69 am   BACKBONE|DICT|INTERRES
   135   69   70 1    
   136   69  190 1    
   137   70   71 1    
   138   70   72 1    
   139   70  191 1    
   140   71  192 1    
   141   71  193 1    
   142   71  194 1    
   143   72   73 2    
   144   72   74 am   BACKBONE|DICT|INTERRES
   145   74   75 1    
   146   74  195 1    
   147   75   76 1    
   148   75   77 1    
   149   75  196 1    
   150   76  197 1    
   151   76  198 1    
   152   76  199 1    
   153   77   78 2    
   154   77   79 am   BACKBONE|DICT|INTERRES
   155   79   80 1    
   156   79  200 1    
   157   80   81 1    
   158   80   82 1    
   159   80  201 1    
   160   81  202 1    
   161   81  203 1    
   162   81  204 1    
   163   82   83 2    
   164   82   84 am   BACKBONE|DICT|INTERRES
   165   84   85 1    
   166   84  205 1    
   167   85   86 1    
   168   85   87 1    
   169   85  206 1    
   170   86  207 1    
   171   86  208 1    
   172   86  209 1    
   173   87   88 2    
   174   87   89 am   BACKBONE|DICT|INTERRES
   175   89   90 1    
   176   89  210 1    
   177   90   91 1    
   178   90   92 1    
   179   90  211 1    
   180   91  212 1    
   181   91  213 1    
   182   91  214 1    
   183   92   93 2    
   184   92   94 am   BACKBONE|DICT|INTERRES
   185   94   95 1    
   186   94  215 1    
   187   95   96 1    
   188   95   97 1    
   189   95  216 1    
   190   96  217 1    
   191   96  218 1    
   192   96  219 1    
   193   97   98 2    
   194   97   99 am   BACKBONE|DICT|INTERRES
   195   99  100 1    
   196   99  220 1    
   197  100  101 1    
   198  100  102 1    
   199  100  221 1    
   200  101  222 1    
   201  101  223 1    
   202  101  224 1    
   203  102  103 2    
   204  102  104 am   BACKBONE|DICT|INTERRES
   205  104  105 1    
   206  104  225 1    
   207  105  106 1    
   208  105  107 1    
   209  105  226 1    
   210  106  227 1    
   211  106  228 1    
   212  106  229 1    
   213  107  108 2    
   214  107  109 am   BACKBONE|DICT|INTERRES
   215  109  110 1    
   216  109  230 1    
   217  110  111 1    
   218  110  112 1    
   219  110  231 1    
   220  111  232 1    
   221  111  233 1    
   222  111  234 1    
   223  112  113 2    
   224  112  114 am   BACKBONE|DICT|INTERRES
   225  114  115 1    
   226  114  235 1    
   227  115  116 1    
   228  115  117 1    
   229  115  236 1    
   230  116  237 1    
   231  116  238 1    
   232  116  239 1    
   233  117  118 2    
   234  117  119 am   BACKBONE|DICT|INTERRES
   235  119  120 1    
   236  119  240 1    
   237  120  121 1    
   238  120  124 1    
   239  120  241 1    
   240  121  122 am   BACKBONE|DICT|INTERRES
   241  121  123 2    
   242  122  242 1    
   243  122  243 1    
   244  124  125 1    
   245  124  244 1    
   246  124  245 1    
   247  125  126 1    
   248  126  246 1    
   249  126  247 1    
@<TRIPOS>SUBSTRUCTURE
     1 UNK         1 GROUP             0       ****    0 ROOT    
