@<TRIPOS>MOLECULE
3R540
247   249    1
SMALL
USER_CHARGES


@<TRIPOS>ATOM
      1 CA         -0.7075  -16.5145  -50.8226 C.3       0 UNK        -0.1800 
      2 C          -0.7441  -15.0021  -50.9683 C.2       0 UNK         0.5000 
      3 O          -1.7865  -14.4457  -51.3106 O.2       0 UNK        -0.5000 
      4 N           0.3955  -14.3522  -50.7074 N.am      1 UNK        -0.5000 
      5 CA          0.5987  -12.9051  -50.6997 C.3       1 UNK         0.1400 
      6 C6          2.0998  -12.5097  -50.8071 C.3       23 UNK        -0.0398 
      7 S7          3.3396  -13.0604  -49.5568 S.3       23 UNK        -0.2404 
      8 C8          2.7719  -14.6174  -48.7733 C.3       23 UNK        -0.0205 
      9 C9          2.9295  -15.9026  -49.5922 C.ar      23 UNK        -0.0193 
     10 C10         3.1930  -15.9110  -50.9694 C.ar      23 UNK        -0.1150 
     11 C11         3.2886  -17.1119  -51.6794 C.ar      23 UNK        -0.0193 
     12 C12         3.1448  -18.3207  -50.9905 C.ar      23 UNK        -0.1150 
     13 C13         2.8871  -18.3349  -49.6189 C.ar      23 UNK        -0.0193 
     14 C14         2.7824  -17.1248  -48.9283 C.ar      23 UNK        -0.1150 
     15 C15         2.7401  -19.6623  -48.8924 C.3       23 UNK        -0.0205 
     16 S16         0.9908  -20.0903  -48.6190 S.3       23 UNK        -0.2404 
     17 C17         1.0356  -21.9122  -48.7480 C.3       23 UNK        -0.0398 
     18 CA          0.2067  -22.6839  -47.6933 C.3       11 UNK         0.1400 
     19 N           0.6682  -22.4874  -46.3142 N.am      11 UNK        -0.5000 
     20 C           0.3522  -23.3169  -45.3081 C.2       10 UNK         0.5000 
     21 O          -0.3158  -24.3374  -45.4739 O.2       10 UNK        -0.5000 
     22 CA          0.7721  -22.9306  -43.8779 C.3       10 UNK         0.1400 
     23 CB          1.1769  -24.1527  -43.0281 C.3       10 UNK        -0.1800 
     24 N           1.7826  -21.8761  -43.8047 N.am      10 UNK        -0.5000 
     25 C           3.0730  -21.9266  -44.1618 C.2       9 UNK         0.5000 
     26 O           3.6104  -22.9075  -44.6760 O.2       9 UNK        -0.5000 
     27 CA          3.9050  -20.6536  -43.9065 C.3       9 UNK         0.1400 
     28 CB          4.1828  -19.9297  -45.2306 C.3       9 UNK        -0.1800 
     29 N           3.2504  -19.7153  -42.9906 N.am      9 UNK        -0.5000 
     30 C           3.1400  -19.8807  -41.6659 C.2       8 UNK         0.5000 
     31 O           3.6568  -20.8113  -41.0468 O.2       8 UNK        -0.5000 
     32 CA          2.2731  -18.8530  -40.9150 C.3       8 UNK         0.1400 
     33 CB          3.0708  -17.5699  -40.6384 C.3       8 UNK        -0.1800 
     34 N           1.0320  -18.5207  -41.6230 N.am      8 UNK        -0.5000 
     35 C           0.0226  -19.3782  -41.8382 C.2       7 UNK         0.5000 
     36 O           0.0328  -20.5500  -41.4636 O.2       7 UNK        -0.5000 
     37 CA         -1.1914  -18.8562  -42.6275 C.3       7 UNK         0.1400 
     38 CB         -2.1135  -18.0187  -41.7294 C.3       7 UNK        -0.1800 
     39 N          -0.7930  -18.0715  -43.7934 N.am      7 UNK        -0.5000 
     40 C          -0.2594  -18.5864  -44.9089 C.2       6 UNK         0.5000 
     41 O          -0.1524  -19.7959  -45.1209 O.2       6 UNK        -0.5000 
     42 CA          0.2695  -17.5859  -45.9530 C.3       6 UNK         0.1400 
     43 CB         -0.8222  -17.2094  -46.9630 C.3       6 UNK        -0.1800 
     44 N           0.8228  -16.3659  -45.3628 N.am      6 UNK        -0.5000 
     45 C           1.9113  -16.3264  -44.5822 C.2       5 UNK         0.5000 
     46 O           2.5835  -17.3147  -44.2978 O.2       5 UNK        -0.5000 
     47 CA          2.2811  -14.9662  -43.9706 C.3       5 UNK         0.1400 
     48 CB          3.0444  -14.0971  -44.9789 C.3       5 UNK        -0.1800 
     49 N           1.1025  -14.2504  -43.4852 N.am      5 UNK        -0.5000 
     50 C           0.3816  -14.6267  -42.4195 C.2       4 UNK         0.5000 
     51 O           0.6537  -15.6016  -41.7199 O.2       4 UNK        -0.5000 
     52 CA         -0.8803  -13.8011  -42.1133 C.3       4 UNK         0.1400 
     53 CB         -0.5229  -12.5372  -41.3171 C.3       4 UNK        -0.1800 
     54 N          -1.6073  -13.4239  -43.3257 N.am      4 UNK        -0.5000 
     55 C          -2.2185  -14.2946  -44.1413 C.2       3 UNK         0.5000 
     56 O          -2.2626  -15.5072  -43.9392 O.2       3 UNK        -0.5000 
     57 CA         -2.8408  -13.7153  -45.4239 C.3       3 UNK         0.1400 
     58 CB         -4.2620  -13.2006  -45.1516 C.3       3 UNK        -0.1800 
     59 N          -2.0402  -12.6447  -46.0264 N.am      3 UNK        -0.5000 
     60 C          -0.7984  -12.8064  -46.5000 C.2       2 UNK         0.5000 
     61 O          -0.1653  -13.8617  -46.4176 O.2       2 UNK        -0.5000 
     62 CA         -0.1393  -11.5847  -47.1597 C.3       2 UNK         0.1400 
     63 CB          0.9114  -10.9585  -46.2308 C.3       2 UNK        -0.1800 
     64 N           0.4984  -11.9965  -48.4074 N.am      2 UNK        -0.5000 
     65 C          -0.1691  -12.2216  -49.5448 C.2       1 UNK         0.5000 
     66 O          -1.3517  -11.9107  -49.6974 O.2       1 UNK        -0.5000 
     67 C          -1.3139  -22.4536  -47.8272 C.2       11 UNK         0.5000 
     68 O          -1.9634  -23.1482  -48.6099 O.2       11 UNK        -0.5000 
     69 N          -1.8664  -21.5463  -47.0054 N.am      12 UNK        -0.5000 
     70 CA         -3.3071  -21.3294  -46.8604 C.3       12 UNK         0.1400 
     71 CB         -3.5530  -20.0874  -45.9913 C.3       12 UNK        -0.1800 
     72 C          -4.0342  -22.5551  -46.2777 C.2       12 UNK         0.5000 
     73 O          -5.1350  -22.8778  -46.7232 O.2       12 UNK        -0.5000 
     74 N          -3.3919  -23.2280  -45.3133 N.am      13 UNK        -0.5000 
     75 CA         -3.8941  -24.4468  -44.6821 C.3       13 UNK         0.1400 
     76 CB         -3.1562  -24.6816  -43.3551 C.3       13 UNK        -0.1800 
     77 C          -3.7700  -25.6685  -45.6083 C.2       13 UNK         0.5000 
     78 O          -4.7141  -26.4525  -45.6998 O.2       13 UNK        -0.5000 
     79 N          -2.6244  -25.7947  -46.2941 N.am      14 UNK        -0.5000 
     80 CA         -2.3201  -26.8818  -47.2268 C.3       14 UNK         0.1400 
     81 CB         -0.8439  -26.8046  -47.6437 C.3       14 UNK        -0.1800 
     82 C          -3.2318  -26.8876  -48.4661 C.2       14 UNK         0.5000 
     83 O          -3.6945  -27.9542  -48.8724 O.2       14 UNK        -0.5000 
     84 N          -3.4947  -25.6994  -49.0287 N.am      15 UNK        -0.5000 
     85 CA         -4.4206  -25.5143  -50.1488 C.3       15 UNK         0.1400 
     86 CB         -4.1148  -24.1737  -50.8298 C.3       15 UNK        -0.1800 
     87 C          -5.9005  -25.5598  -49.7201 C.2       15 UNK         0.5000 
     88 O          -6.7688  -25.7295  -50.5751 O.2       15 UNK        -0.5000 
     89 N          -6.1599  -25.3625  -48.4193 N.am      16 UNK        -0.5000 
     90 CA         -7.4484  -25.2705  -47.7189 C.3       16 UNK         0.1400 
     91 CB         -8.3054  -26.5326  -47.9332 C.3       16 UNK        -0.1800 
     92 C          -8.2499  -23.9858  -48.0147 C.2       16 UNK         0.5000 
     93 O          -9.0060  -23.5391  -47.1507 O.2       16 UNK        -0.5000 
     94 N          -8.0622  -23.3982  -49.1989 N.am      17 UNK        -0.5000 
     95 CA         -8.6133  -22.1228  -49.6315 C.3       17 UNK         0.1400 
     96 CB        -10.0312  -22.3277  -50.1916 C.3       17 UNK        -0.1800 
     97 C          -7.6789  -21.5308  -50.6950 C.2       17 UNK         0.5000 
     98 O          -6.9499  -22.2758  -51.3547 O.2       17 UNK        -0.5000 
     99 N          -7.7126  -20.1992  -50.8358 N.am      18 UNK        -0.5000 
    100 CA        -7.0235  -19.3715  -51.8400 C.3       18 UNK         0.1400 
    101 CB        -7.5193  -19.7229  -53.2580 C.3       18 UNK        -0.1800 
    102 C         -5.4792  -19.3680  -51.7868 C.2       18 UNK         0.5000 
    103 O         -4.8677  -18.6209  -52.5516 O.2       18 UNK        -0.5000 
    104 N         -4.8689  -20.1928  -50.9204 N.am      19 UNK        -0.5000 
    105 CA        -3.4214  -20.3712  -50.7328 C.3       19 UNK         0.1400 
    106 CB        -2.8309  -19.1538  -50.0015 C.3       19 UNK        -0.1800 
    107 C         -2.6829  -20.7156  -52.0443 C.2       19 UNK         0.5000 
    108 O         -1.6087  -20.1797  -52.3228 O.2       19 UNK        -0.5000 
    109 N         -3.3306  -21.5676  -52.8547 N.am      20 UNK        -0.5000 
    110 CA        -2.9271  -22.0204  -54.1914 C.3       20 UNK         0.1400 
    111 CB        -1.6255  -22.8455  -54.1131 C.3       20 UNK        -0.1800 
    112 C         -2.8453  -20.8932  -55.2471 C.2       20 UNK         0.5000 
    113 O         -2.2618  -21.1077  -56.3107 O.2       20 UNK        -0.5000 
    114 N         -3.4284  -19.7210  -54.9436 N.am      21 UNK        -0.5000 
    115 CA        -3.4138  -18.4855  -55.7341 C.3       21 UNK         0.1400 
    116 CB        -4.2372  -18.6546  -57.0281 C.3       21 UNK        -0.1800 
    117 C         -1.9886  -17.9424  -55.9838 C.2       21 UNK         0.5000 
    118 O         -1.7216  -17.3765  -57.0459 O.2       21 UNK        -0.5000 
    119 N         -1.0954  -18.1419  -55.0045 N.am      22 UNK        -0.5000 
    120 CA         0.3050  -17.6979  -55.0296 C.3       22 UNK         0.1400 
    121 C          0.4532  -16.1504  -55.0964 C.2       22 UNK         0.5000 
    122 N          1.3817  -15.6402  -55.8943 N.am      22 UNK        -0.7600 
    123 O         -0.2434  -15.4116  -54.4060 O.2       22 UNK        -0.5000 
    124 C124        1.0817  -18.2894  -53.8273 C.3       23 UNK        -0.0398 
    125 S125        2.8713  -18.4580  -54.1462 S.3       23 UNK        -0.2404 
    126 C126        3.5651  -17.0666  -53.1828 C.3       23 UNK        -0.0205 
    127 H127       -1.2750  -16.8043  -49.9407 H         1 UNK         0.0600 
    128 H128       -1.1513  -16.9917  -51.6966 H         1 UNK         0.0600 
    129 H129        0.3075  -16.8931  -50.7068 H         1 UNK         0.0600 
    130 H130        1.2067  -14.8953  -50.4465 H         1 UNK         0.3000 
    131 H131        0.1305  -12.5311  -51.6131 H         1 UNK         0.0600 
    132 H132        2.1728  -11.4220  -50.8605 H         1 UNK         0.0800 
    133 H133        2.4673  -12.8466  -51.7770 H         1 UNK         0.0800 
    134 H134        1.7465  -14.5241  -48.4156 H         1 UNK         0.0800 
    135 H135        3.3796  -14.7382  -47.8760 H         1 UNK         0.0800 
    136 H136        3.3224  -14.9854  -51.5083 H         1 UNK         0.1150 
    137 H137        3.2313  -19.2589  -51.5192 H         1 UNK         0.1150 
    138 H138        2.5886  -17.1338  -47.8659 H         1 UNK         0.1150 
    139 H139        3.2313  -20.4457  -49.4711 H         1 UNK         0.0800 
    140 H140        3.2617  -19.6205  -47.9386 H         1 UNK         0.0800 
    141 H141        2.0697  -22.2522  -48.6831 H         1 UNK         0.0800 
    142 H142        0.7042  -22.1825  -49.7523 H         1 UNK         0.0800 
    143 H143        0.3630  -23.7402  -47.9206 H         1 UNK         0.0600 
    144 H144        1.1414  -21.6199  -46.1028 H         1 UNK         0.3000 
    145 H145       -0.1228  -22.5053  -43.4224 H         1 UNK         0.0600 
    146 H146        1.4498  -23.8540  -42.0158 H         1 UNK         0.0600 
    147 H147        0.3543  -24.8634  -42.9432 H         1 UNK         0.0600 
    148 H148        2.0224  -24.6871  -43.4615 H         1 UNK         0.0600 
    149 H149        1.4521  -21.0048  -43.4135 H         1 UNK         0.3000 
    150 H150        4.8583  -20.9613  -43.4723 H         1 UNK         0.0600 
    151 H151        4.6689  -20.5897  -45.9503 H         1 UNK         0.0600 
    152 H152        4.8366  -19.0702  -45.0815 H         1 UNK         0.0600 
    153 H153        3.2563  -19.5701  -45.6784 H         1 UNK         0.0600 
    154 H154        2.8519  -18.8791  -43.4153 H         1 UNK         0.3000 
    155 H155        1.9992  -19.2925  -39.9536 H         1 UNK         0.0600 
    156 H156        3.3447  -17.0593  -41.5618 H         1 UNK         0.0600 
    157 H157        3.9925  -17.7907  -40.0987 H         1 UNK         0.0600 
    158 H158        2.4964  -16.8728  -40.0281 H         1 UNK         0.0600 
    159 H159        0.9273  -17.5549  -41.9183 H         1 UNK         0.3000 
    160 H160       -1.7588  -19.7222  -42.9745 H         1 UNK         0.0600 
    161 H161       -3.0116  -17.7130  -42.2664 H         1 UNK         0.0600 
    162 H162       -1.6181  -17.1170  -41.3688 H         1 UNK         0.0600 
    163 H163       -2.4339  -18.5898  -40.8572 H         1 UNK         0.0600 
    164 H164       -0.9318  -17.0686  -43.7381 H         1 UNK         0.3000 
    165 H165        1.0758  -18.0863  -46.4886 H         1 UNK         0.0600 
    166 H166       -0.4378  -16.5149  -47.7099 H         1 UNK         0.0600 
    167 H167       -1.1846  -18.0909  -47.4925 H         1 UNK         0.0600 
    168 H168       -1.6765  -16.7386  -46.4760 H         1 UNK         0.0600 
    169 H169        0.3495  -15.4940  -45.5857 H         1 UNK         0.3000 
    170 H170        2.9409  -15.1502  -43.1203 H         1 UNK         0.0600 
    171 H171        3.9493  -14.6015  -45.3201 H         1 UNK         0.0600 
    172 H172        2.4406  -13.8776  -45.8580 H         1 UNK         0.0600 
    173 H173        3.3486  -13.1497  -44.5337 H         1 UNK         0.0600 
    174 H174        0.7782  -13.4748  -44.0426 H         1 UNK         0.3000 
    175 H175       -1.5404  -14.4173  -41.4990 H         1 UNK         0.0600 
    176 H176       -1.4185  -11.9858  -41.0303 H         1 UNK         0.0600 
    177 H177        0.0082  -12.7924  -40.3991 H         1 UNK         0.0600 
    178 H178        0.1167  -11.8650  -41.8905 H         1 UNK         0.0600 
    179 H179       -1.6190  -12.4446  -43.5694 H         1 UNK         0.3000 
    180 H180       -2.9075  -14.5275  -46.1507 H         1 UNK         0.0600 
    181 H181       -4.2612  -12.3605  -44.4560 H         1 UNK         0.0600 
    182 H182       -4.8846  -13.9848  -44.7187 H         1 UNK         0.0600 
    183 H183       -4.7466  -12.8746  -46.0722 H         1 UNK         0.0600 
    184 H184       -2.4932  -11.7480  -46.1297 H         1 UNK         0.3000 
    185 H185       -0.9013  -10.8314  -47.3715 H         1 UNK         0.0600 
    186 H186        1.7264  -11.6477  -46.0135 H         1 UNK         0.0600 
    187 H187        1.3449  -10.0640  -46.6783 H         1 UNK         0.0600 
    188 H188        0.4672  -10.6625  -45.2796 H         1 UNK         0.0600 
    189 H189        1.4659  -12.2832  -48.3485 H         1 UNK         0.3000 
    190 H190       -1.2564  -21.0130  -46.3941 H         1 UNK         0.3000 
    191 H191       -3.7294  -21.1411  -47.8471 H         1 UNK         0.0600 
    192 H192       -3.1141  -19.1971  -46.4403 H         1 UNK         0.0600 
    193 H193       -3.1287  -20.2028  -44.9936 H         1 UNK         0.0600 
    194 H194       -4.6206  -19.8973  -45.8744 H         1 UNK         0.0600 
    195 H195       -2.4739  -22.9167  -45.0366 H         1 UNK         0.3000 
    196 H196       -4.9534  -24.3053  -44.4558 H         1 UNK         0.0600 
    197 H197       -3.5468  -25.5629  -42.8448 H         1 UNK         0.0600 
    198 H198       -3.2789  -23.8346  -42.6798 H         1 UNK         0.0600 
    199 H199       -2.0883  -24.8388  -43.5051 H         1 UNK         0.0600 
    200 H200       -1.8694  -25.1393  -46.1069 H         1 UNK         0.3000 
    201 H201       -2.4733  -27.8243  -46.6971 H         1 UNK         0.0600 
    202 H202       -0.1849  -26.8548  -46.7767 H         1 UNK         0.0600 
    203 H203       -0.6263  -25.8800  -48.1781 H         1 UNK         0.0600 
    204 H204       -0.5802  -27.6336  -48.3015 H         1 UNK         0.0600 
    205 H205       -3.0352  -24.8659  -48.6743 H         1 UNK         0.3000 
    206 H206       -4.2582  -26.3117  -50.8770 H         1 UNK         0.0600 
    207 H207       -3.0699  -24.1101  -51.1342 H         1 UNK         0.0600 
    208 H208       -4.7252  -24.0437  -51.7242 H         1 UNK         0.0600 
    209 H209       -4.3256  -23.3373  -50.1634 H         1 UNK         0.0600 
    210 H210       -5.3601  -25.1962  -47.8243 H         1 UNK         0.3000 
    211 H211       -7.1918  -25.2285  -46.6592 H         1 UNK         0.0600 
    212 H212       -8.6522  -26.6223  -48.9627 H         1 UNK         0.0600 
    213 H213       -9.1899  -26.5119  -47.2954 H         1 UNK         0.0600 
    214 H214       -7.7464  -27.4348  -47.6848 H         1 UNK         0.0600 
    215 H215       -7.4407  -23.8371  -49.8705 H         1 UNK         0.3000 
    216 H216       -8.6484  -21.4386  -48.7810 H         1 UNK         0.0600 
    217 H217      -10.4586  -21.3845  -50.5339 H         1 UNK         0.0600 
    218 H218      -10.7023  -22.7310  -49.4331 H         1 UNK         0.0600 
    219 H219      -10.0311  -23.0158  -51.0381 H         1 UNK         0.0600 
    220 H220       -8.3204  -19.6808  -50.2162 H         1 UNK         0.3000 
    221 H221       -7.3264  -18.3440  -51.6333 H         1 UNK         0.0600 
    222 H222       -7.2125  -20.7249  -53.5593 H         1 UNK         0.0600 
    223 H223       -8.6064  -19.6723  -53.3196 H         1 UNK         0.0600 
    224 H224       -7.1222  -19.0267  -53.9980 H         1 UNK         0.0600 
    225 H225       -5.4652  -20.8122  -50.3900 H         1 UNK         0.3000 
    226 H226       -3.2872  -21.2388  -50.0893 H         1 UNK         0.0600 
    227 H227       -3.3153  -18.9954  -49.0387 H         1 UNK         0.0600 
    228 H228       -1.7651  -19.2851  -49.8113 H         1 UNK         0.0600 
    229 H229       -2.9598  -18.2463  -50.5897 H         1 UNK         0.0600 
    230 H230       -4.2302  -21.9059  -52.5411 H         1 UNK         0.3000 
    231 H231       -3.7189  -22.6890  -54.5317 H         1 UNK         0.0600 
    232 H232       -1.7045  -23.6376  -53.3686 H         1 UNK         0.0600 
    233 H233       -0.7672  -22.2250  -53.8537 H         1 UNK         0.0600 
    234 H234       -1.4049  -23.3225  -55.0686 H         1 UNK         0.0600 
    235 H235       -3.8684  -19.6289  -54.0341 H         1 UNK         0.3000 
    236 H236       -3.9161  -17.7334  -55.1240 H         1 UNK         0.0600 
    237 H237       -4.3503  -17.7020  -57.5468 H         1 UNK         0.0600 
    238 H238       -3.7645  -19.3501  -57.7221 H         1 UNK         0.0600 
    239 H239       -5.2392  -19.0249  -56.8113 H         1 UNK         0.0600 
    240 H240       -1.3986  -18.6230  -54.1679 H         1 UNK         0.3000 
    241 H241        0.7283  -18.1162  -55.9452 H         1 UNK         0.0600 
    242 H242        1.4901  -14.6394  -55.9418 H         1 UNK         0.3800 
    243 H243        1.9716  -16.2296  -56.4610 H         1 UNK         0.3800 
    244 H244        0.9016  -17.7157  -52.9187 H         1 UNK         0.0800 
    245 H245        0.7212  -19.2961  -53.6096 H         1 UNK         0.0800 
    246 H246        3.1831  -16.1355  -53.6037 H         1 UNK         0.0800 
    247 H247        4.6453  -17.0497  -53.3310 H         1 UNK         0.0800 
@<TRIPOS>BOND
     1    1    2 1    
     2    1  127 1    
     3    1  128 1    
     4    1  129 1    
     5    2    3 2    
     6    2    4 am   BACKBONE|DICT|INTERRES
     7    4    5 1    
     8    4  130 1    
     9    5    6 1    
    10    5   65 1    
    11    5  131 1    
    12    6    7 1    
    13    6  132 1    
    14    6  133 1    
    15    7    8 1    
    16    8    9 1    
    17    8  134 1    
    18    8  135 1    
    19    9   10 ar   
    20    9   14 ar   
    21   10   11 ar   
    22   10  136 1    
    23   11   12 ar   
    24   11  126 1    
    25   12   13 ar   
    26   12  137 1    
    27   13   14 ar   
    28   13   15 1    
    29   14  138 1    
    30   15   16 1    
    31   15  139 1    
    32   15  140 1    
    33   16   17 1    
    34   17   18 1    
    35   17  141 1    
    36   17  142 1    
    37   18   19 1    
    38   18   67 1    
    39   18  143 1    
    40   19   20 am   BACKBONE|DICT|INTERRES
    41   19  144 1    
    42   20   21 2    
    43   20   22 1    
    44   22   23 1    
    45   22   24 1    
    46   22  145 1    
    47   23  146 1    
    48   23  147 1    
    49   23  148 1    
    50   24   25 am   BACKBONE|DICT|INTERRES
    51   24  149 1    
    52   25   26 2    
    53   25   27 1    
    54   27   28 1    
    55   27   29 1    
    56   27  150 1    
    57   28  151 1    
    58   28  152 1    
    59   28  153 1    
    60   29   30 am   BACKBONE|DICT|INTERRES
    61   29  154 1    
    62   30   31 2    
    63   30   32 1    
    64   32   33 1    
    65   32   34 1    
    66   32  155 1    
    67   33  156 1    
    68   33  157 1    
    69   33  158 1    
    70   34   35 am   BACKBONE|DICT|INTERRES
    71   34  159 1    
    72   35   36 2    
    73   35   37 1    
    74   37   38 1    
    75   37   39 1    
    76   37  160 1    
    77   38  161 1    
    78   38  162 1    
    79   38  163 1    
    80   39   40 am   BACKBONE|DICT|INTERRES
    81   39  164 1    
    82   40   41 2    
    83   40   42 1    
    84   42   43 1    
    85   42   44 1    
    86   42  165 1    
    87   43  166 1    
    88   43  167 1    
    89   43  168 1    
    90   44   45 am   BACKBONE|DICT|INTERRES
    91   44  169 1    
    92   45   46 2    
    93   45   47 1    
    94   47   48 1    
    95   47   49 1    
    96   47  170 1    
    97   48  171 1    
    98   48  172 1    
    99   48  173 1    
   100   49   50 am   BACKBONE|DICT|INTERRES
   101   49  174 1    
   102   50   51 2    
   103   50   52 1    
   104   52   53 1    
   105   52   54 1    
   106   52  175 1    
   107   53  176 1    
   108   53  177 1    
   109   53  178 1    
   110   54   55 am   BACKBONE|DICT|INTERRES
   111   54  179 1    
   112   55   56 2    
   113   55   57 1    
   114   57   58 1    
   115   57   59 1    
   116   57  180 1    
   117   58  181 1    
   118   58  182 1    
   119   58  183 1    
   120   59   60 am   BACKBONE|DICT|INTERRES
   121   59  184 1    
   122   60   61 2    
   123   60   62 1    
   124   62   63 1    
   125   62   64 1    
   126   62  185 1    
   127   63  186 1    
   128   63  187 1    
   129   63  188 1    
   130   64   65 am   BACKBONE|DICT|INTERRES
   131   64  189 1    
   132   65   66 2    
   133   67   68 2    
   134   67   69 am   BACKBONE|DICT|INTERRES
   135   69   70 1    
   136   69  190 1    
   137   70   71 1    
   138   70   72 1    
   139   70  191 1    
   140   71  192 1    
   141   71  193 1    
   142   71  194 1    
   143   72   73 2    
   144   72   74 am   BACKBONE|DICT|INTERRES
   145   74   75 1    
   146   74  195 1    
   147   75   76 1    
   148   75   77 1    
   149   75  196 1    
   150   76  197 1    
   151   76  198 1    
   152   76  199 1    
   153   77   78 2    
   154   77   79 am   BACKBONE|DICT|INTERRES
   155   79   80 1    
   156   79  200 1    
   157   80   81 1    
   158   80   82 1    
   159   80  201 1    
   160   81  202 1    
   161   81  203 1    
   162   81  204 1    
   163   82   83 2    
   164   82   84 am   BACKBONE|DICT|INTERRES
   165   84   85 1    
   166   84  205 1    
   167   85   86 1    
   168   85   87 1    
   169   85  206 1    
   170   86  207 1    
   171   86  208 1    
   172   86  209 1    
   173   87   88 2    
   174   87   89 am   BACKBONE|DICT|INTERRES
   175   89   90 1    
   176   89  210 1    
   177   90   91 1    
   178   90   92 1    
   179   90  211 1    
   180   91  212 1    
   181   91  213 1    
   182   91  214 1    
   183   92   93 2    
   184   92   94 am   BACKBONE|DICT|INTERRES
   185   94   95 1    
   186   94  215 1    
   187   95   96 1    
   188   95   97 1    
   189   95  216 1    
   190   96  217 1    
   191   96  218 1    
   192   96  219 1    
   193   97   98 2    
   194   97   99 am   BACKBONE|DICT|INTERRES
   195   99  100 1    
   196   99  220 1    
   197  100  101 1    
   198  100  102 1    
   199  100  221 1    
   200  101  222 1    
   201  101  223 1    
   202  101  224 1    
   203  102  103 2    
   204  102  104 am   BACKBONE|DICT|INTERRES
   205  104  105 1    
   206  104  225 1    
   207  105  106 1    
   208  105  107 1    
   209  105  226 1    
   210  106  227 1    
   211  106  228 1    
   212  106  229 1    
   213  107  108 2    
   214  107  109 am   BACKBONE|DICT|INTERRES
   215  109  110 1    
   216  109  230 1    
   217  110  111 1    
   218  110  112 1    
   219  110  231 1    
   220  111  232 1    
   221  111  233 1    
   222  111  234 1    
   223  112  113 2    
   224  112  114 am   BACKBONE|DICT|INTERRES
   225  114  115 1    
   226  114  235 1    
   227  115  116 1    
   228  115  117 1    
   229  115  236 1    
   230  116  237 1    
   231  116  238 1    
   232  116  239 1    
   233  117  118 2    
   234  117  119 am   BACKBONE|DICT|INTERRES
   235  119  120 1    
   236  119  240 1    
   237  120  121 1    
   238  120  124 1    
   239  120  241 1    
   240  121  122 am   BACKBONE|DICT|INTERRES
   241  121  123 2    
   242  122  242 1    
   243  122  243 1    
   244  124  125 1    
   245  124  244 1    
   246  124  245 1    
   247  125  126 1    
   248  126  246 1    
   249  126  247 1    
@<TRIPOS>SUBSTRUCTURE
     1 UNK         1 GROUP             0       ****    0 ROOT    
