@<TRIPOS>MOLECULE
3R540
247   249    1
SMALL
USER_CHARGES


@<TRIPOS>ATOM
      1 CA          1.4743  -10.4084  -47.8009 C.3       0 UNK        -0.1800 
      2 C           1.8629  -11.8062  -47.3444 C.2       0 UNK         0.5000 
      3 O           1.4608  -12.2253  -46.2584 O.2       0 UNK        -0.5000 
      4 N           2.6184  -12.5341  -48.1758 N.am      1 UNK        -0.5000 
      5 CA          3.1638  -13.8785  -47.9256 C.3       1 UNK         0.1400 
      6 C6          4.0722  -14.3564  -49.0876 C.3       23 UNK        -0.0398 
      7 S7          3.3007  -14.2165  -50.7418 S.3       23 UNK        -0.2404 
      8 C8          3.8667  -15.7378  -51.5631 C.3       23 UNK        -0.0205 
      9 C9          2.8754  -16.8819  -51.4108 C.ar      23 UNK        -0.0193 
     10 C10         1.7800  -16.9722  -52.2752 C.ar      23 UNK        -0.1150 
     11 C11         0.8969  -18.0526  -52.1963 C.ar      23 UNK        -0.0193 
     12 C12         1.1165  -19.0478  -51.2405 C.ar      23 UNK        -0.1150 
     13 C13         2.1976  -18.9631  -50.3595 C.ar      23 UNK        -0.0193 
     14 C14         3.0736  -17.8757  -50.4475 C.ar      23 UNK        -0.1150 
     15 C15         2.4397  -20.0586  -49.3330 C.3       23 UNK        -0.0205 
     16 S16         1.7368  -19.6386  -47.7093 S.3       23 UNK        -0.2404 
     17 C17         0.0285  -20.2678  -47.8423 C.3       23 UNK        -0.0398 
     18 CA         -0.1187  -21.7285  -47.3453 C.3       11 UNK         0.1400 
     19 N           0.3788  -21.9398  -45.9790 N.am      11 UNK        -0.5000 
     20 C           0.4769  -23.1374  -45.3808 C.2       10 UNK         0.5000 
     21 O           0.2013  -24.2026  -45.9310 O.2       10 UNK        -0.5000 
     22 CA          0.9030  -23.1502  -43.9041 C.3       10 UNK         0.1400 
     23 CB          2.4318  -23.0880  -43.7656 C.3       10 UNK        -0.1800 
     24 N           0.2854  -22.0570  -43.1560 N.am      10 UNK        -0.5000 
     25 C          -1.0080  -22.0209  -42.8053 C.2       9 UNK         0.5000 
     26 O          -1.8061  -22.9267  -43.0453 O.2       9 UNK        -0.5000 
     27 CA         -1.5020  -20.7391  -42.1081 C.3       9 UNK         0.1400 
     28 CB         -1.1915  -20.7836  -40.6048 C.3       9 UNK        -0.1800 
     29 N          -0.9232  -19.5259  -42.6849 N.am      9 UNK        -0.5000 
     30 C          -1.1432  -19.1096  -43.9400 C.2       8 UNK         0.5000 
     31 O          -1.9054  -19.6745  -44.7224 O.2       8 UNK        -0.5000 
     32 CA         -0.3385  -17.8921  -44.4269 C.3       8 UNK         0.1400 
     33 CB         -1.1237  -16.5982  -44.1681 C.3       8 UNK        -0.1800 
     34 N           0.9983  -17.7761  -43.8390 N.am      8 UNK        -0.5000 
     35 C           1.9491  -18.7236  -43.8904 C.2       7 UNK         0.5000 
     36 O           1.7782  -19.8246  -44.4108 O.2       7 UNK        -0.5000 
     37 CA          3.3049  -18.4285  -43.2200 C.3       7 UNK         0.1400 
     38 CB          4.3455  -18.0431  -44.2823 C.3       7 UNK        -0.1800 
     39 N           3.2526  -17.3756  -42.2069 N.am      7 UNK        -0.5000 
     40 C           2.5298  -17.4003  -41.0777 C.2       6 UNK         0.5000 
     41 O           1.8678  -18.3714  -40.7090 O.2       6 UNK        -0.5000 
     42 CA          2.5067  -16.0979  -40.2499 C.3       6 UNK         0.1400 
     43 CB          3.4759  -16.1983  -39.0624 C.3       6 UNK        -0.1800 
     44 N           2.8291  -14.8965  -41.0322 N.am      6 UNK        -0.5000 
     45 C           2.1028  -14.4340  -42.0593 C.2       5 UNK         0.5000 
     46 O           1.0716  -14.9753  -42.4633 O.2       5 UNK        -0.5000 
     47 CA          2.6758  -13.2182  -42.8075 C.3       5 UNK         0.1400 
     48 CB          3.6109  -13.6872  -43.9328 C.3       5 UNK        -0.1800 
     49 N           1.6240  -12.3903  -43.3917 N.am      5 UNK        -0.5000 
     50 C           0.7774  -11.6241  -42.6919 C.2       4 UNK         0.5000 
     51 O           0.8143  -11.5077  -41.4659 O.2       4 UNK        -0.5000 
     52 CA         -0.2784  -10.8449  -43.4914 C.3       4 UNK         0.1400 
     53 CB          0.3070   -9.5106  -43.9812 C.3       4 UNK        -0.1800 
     54 N          -0.7566  -11.6022  -44.6494 N.am      4 UNK        -0.5000 
     55 C          -1.9608  -12.1799  -44.7339 C.2       3 UNK         0.5000 
     56 O          -2.7821  -12.1889  -43.8161 O.2       3 UNK        -0.5000 
     57 CA         -2.3263  -12.8440  -46.0694 C.3       3 UNK         0.1400 
     58 CB         -2.7004  -11.7909  -47.1275 C.3       3 UNK        -0.1800 
     59 N          -1.2614  -13.7116  -46.5764 N.am      3 UNK        -0.5000 
     60 C          -1.4891  -14.8178  -47.2996 C.2       2 UNK         0.5000 
     61 O          -2.6156  -15.1950  -47.6246 O.2       2 UNK        -0.5000 
     62 CA         -0.2605  -15.6373  -47.7301 C.3       2 UNK         0.1400 
     63 CB         -0.5322  -16.5462  -48.9371 C.3       2 UNK        -0.1800 
     64 N           0.8726  -14.7675  -48.0213 N.am      2 UNK        -0.5000 
     65 C           2.1151  -14.9519  -47.5618 C.2       1 UNK         0.5000 
     66 O           2.4527  -15.9005  -46.8535 O.2       1 UNK        -0.5000 
     67 C          -1.5757  -22.2132  -47.4938 C.2       11 UNK         0.5000 
     68 O          -1.8816  -22.9202  -48.4537 O.2       11 UNK        -0.5000 
     69 N          -2.4240  -21.8777  -46.5095 N.am      12 UNK        -0.5000 
     70 CA         -3.8084  -22.3317  -46.4048 C.3       12 UNK         0.1400 
     71 CB         -4.5096  -21.6043  -45.2480 C.3       12 UNK        -0.1800 
     72 C          -3.9157  -23.8577  -46.2445 C.2       12 UNK         0.5000 
     73 O          -4.6668  -24.4893  -46.9900 O.2       12 UNK        -0.5000 
     74 N          -3.1400  -24.4199  -45.3038 N.am      13 UNK        -0.5000 
     75 CA         -3.0819  -25.8551  -45.0109 C.3       13 UNK         0.1400 
     76 CB         -2.1800  -26.1006  -43.7928 C.3       13 UNK        -0.1800 
     77 C          -2.6196  -26.7094  -46.2050 C.2       13 UNK         0.5000 
     78 O          -3.1504  -27.8019  -46.4093 O.2       13 UNK        -0.5000 
     79 N          -1.6887  -26.1804  -47.0093 N.am      14 UNK        -0.5000 
     80 CA         -1.1964  -26.7652  -48.2585 C.3       14 UNK         0.1400 
     81 CB          0.1833  -26.1586  -48.5729 C.3       14 UNK        -0.1800 
     82 C          -2.1913  -26.6012  -49.4315 C.2       14 UNK         0.5000 
     83 O          -1.7857  -26.2162  -50.5289 O.2       14 UNK        -0.5000 
     84 N          -3.4790  -26.8816  -49.1791 N.am      15 UNK        -0.5000 
     85 CA         -4.6165  -26.8130  -50.1051 C.3       15 UNK         0.1400 
     86 CB         -4.5391  -27.9690  -51.1235 C.3       15 UNK        -0.1800 
     87 C          -4.7655  -25.4332  -50.7810 C.2       15 UNK         0.5000 
     88 O          -4.9849  -25.3562  -51.9926 O.2       15 UNK        -0.5000 
     89 N          -4.5790  -24.3633  -49.9912 N.am      16 UNK        -0.5000 
     90 CA         -4.5494  -22.9556  -50.4136 C.3       16 UNK         0.1400 
     91 CB         -5.9618  -22.4974  -50.8238 C.3       16 UNK        -0.1800 
     92 C          -3.4926  -22.6591  -51.5014 C.2       16 UNK         0.5000 
     93 O          -3.6986  -21.7739  -52.3349 O.2       16 UNK        -0.5000 
     94 N          -2.4159  -23.4616  -51.5199 N.am      17 UNK        -0.5000 
     95 CA         -1.3364  -23.5137  -52.5111 C.3       17 UNK         0.1400 
     96 CB         -0.4585  -22.2550  -52.3928 C.3       17 UNK        -0.1800 
     97 C          -1.8269  -23.7669  -53.9554 C.2       17 UNK         0.5000 
     98 O          -1.1247  -23.4202  -54.9060 O.2       17 UNK        -0.5000 
     99 N          -3.0422  -24.3250  -54.0916 N.am      18 UNK        -0.5000 
    100 CA        -3.8378  -24.4675  -55.3167 C.3       18 UNK         0.1400 
    101 CB        -3.1545  -25.4299  -56.3098 C.3       18 UNK        -0.1800 
    102 C         -4.2316  -23.1206  -55.9719 C.2       18 UNK         0.5000 
    103 O         -4.6815  -23.1151  -57.1189 O.2       18 UNK        -0.5000 
    104 N         -4.0716  -22.0074  -55.2421 N.am      19 UNK        -0.5000 
    105 CA        -4.3337  -20.6446  -55.7052 C.3       19 UNK         0.1400 
    106 CB        -3.1889  -19.7417  -55.2184 C.3       19 UNK        -0.1800 
    107 C         -5.6832  -20.1041  -55.2014 C.2       19 UNK         0.5000 
    108 O         -6.1390  -19.0759  -55.7034 O.2       19 UNK        -0.5000 
    109 N         -6.2824  -20.7785  -54.2073 N.am      20 UNK        -0.5000 
    110 CA        -7.5349  -20.4710  -53.5008 C.3       20 UNK         0.1400 
    111 CB        -8.7371  -20.4009  -54.4619 C.3       20 UNK        -0.1800 
    112 C         -7.4477  -19.2178  -52.6084 C.2       20 UNK         0.5000 
    113 O         -7.7568  -19.2954  -51.4188 O.2       20 UNK        -0.5000 
    114 N         -6.9878  -18.0980  -53.1792 N.am      21 UNK        -0.5000 
    115 CA        -6.7839  -16.8140  -52.5036 C.3       21 UNK         0.1400 
    116 CB        -6.4391  -15.7501  -53.5567 C.3       21 UNK        -0.1800 
    117 C         -5.6994  -16.8590  -51.4089 C.2       21 UNK         0.5000 
    118 O         -5.7643  -16.0768  -50.4606 O.2       21 UNK        -0.5000 
    119 N         -4.7412  -17.7816  -51.5550 N.am      22 UNK        -0.5000 
    120 CA        -3.6570  -18.0448  -50.5962 C.3       22 UNK         0.1400 
    121 C         -4.0596  -18.9977  -49.4303 C.2       22 UNK         0.5000 
    122 N         -5.3141  -19.4167  -49.3044 N.am      22 UNK        -0.7600 
    123 O         -3.2180  -19.3604  -48.6154 O.2       22 UNK        -0.5000 
    124 C124       -2.3715  -18.5300  -51.3141 C.3       23 UNK        -0.0398 
    125 S125       -1.7610  -17.3219  -52.5394 S.3       23 UNK        -0.2404 
    126 C126       -0.2717  -18.1571  -53.1658 C.3       23 UNK        -0.0205 
    127 H127        0.3909  -10.2950  -47.7897 H         1 UNK         0.0600 
    128 H128        1.8275  -10.1993  -48.8109 H         1 UNK         0.0600 
    129 H129        1.9022   -9.6644  -47.1295 H         1 UNK         0.0600 
    130 H130        2.8778  -12.1383  -49.0686 H         1 UNK         0.3000 
    131 H131        3.8000  -13.7820  -47.0436 H         1 UNK         0.0600 
    132 H132        4.4092  -15.3805  -48.9157 H         1 UNK         0.0800 
    133 H133        4.9806  -13.7529  -49.1022 H         1 UNK         0.0800 
    134 H134        4.8516  -16.0249  -51.1917 H         1 UNK         0.0800 
    135 H135        4.0024  -15.5244  -52.6245 H         1 UNK         0.0800 
    136 H136        1.6227  -16.2054  -53.0208 H         1 UNK         0.1150 
    137 H137        0.4431  -19.8882  -51.1811 H         1 UNK         0.1150 
    138 H138        3.9174  -17.8131  -49.7749 H         1 UNK         0.1150 
    139 H139        2.0375  -21.0116  -49.6802 H         1 UNK         0.0800 
    140 H140        3.5135  -20.2111  -49.2155 H         1 UNK         0.0800 
    141 H141       -0.3054  -20.1798  -48.8768 H         1 UNK         0.0800 
    142 H142       -0.6178  -19.6042  -47.2662 H         1 UNK         0.0800 
    143 H143        0.4898  -22.3573  -47.9988 H         1 UNK         0.0600 
    144 H144        0.6883  -21.1162  -45.4717 H         1 UNK         0.3000 
    145 H145        0.5689  -24.0932  -43.4668 H         1 UNK         0.0600 
    146 H146        2.7346  -23.1098  -42.7188 H         1 UNK         0.0600 
    147 H147        2.8983  -23.9428  -44.2569 H         1 UNK         0.0600 
    148 H148        2.8486  -22.1881  -44.2173 H         1 UNK         0.0600 
    149 H149        0.8522  -21.2307  -43.0188 H         1 UNK         0.3000 
    150 H150       -2.5858  -20.6893  -42.2330 H         1 UNK         0.0600 
    151 H151       -1.6177  -21.6758  -40.1441 H         1 UNK         0.0600 
    152 H152       -1.6123  -19.9197  -40.0900 H         1 UNK         0.0600 
    153 H153       -0.1173  -20.7955  -40.4152 H         1 UNK         0.0600 
    154 H154       -0.2604  -19.0175  -42.1153 H         1 UNK         0.3000 
    155 H155       -0.2025  -18.0130  -45.5014 H         1 UNK         0.0600 
    156 H156       -1.3115  -16.4500  -43.1040 H         1 UNK         0.0600 
    157 H157       -2.0899  -16.6176  -44.6742 H         1 UNK         0.0600 
    158 H158       -0.5812  -15.7252  -44.5299 H         1 UNK         0.0600 
    159 H159        1.2059  -16.8993  -43.3746 H         1 UNK         0.3000 
    160 H160        3.6333  -19.3476  -42.7307 H         1 UNK         0.0600 
    161 H161        5.3344  -17.9163  -43.8417 H         1 UNK         0.0600 
    162 H162        4.4275  -18.8167  -45.0474 H         1 UNK         0.0600 
    163 H163        4.0780  -17.1135  -44.7869 H         1 UNK         0.0600 
    164 H164        3.7628  -16.5311  -42.4159 H         1 UNK         0.3000 
    165 H165        1.4941  -15.9801  -39.8584 H         1 UNK         0.0600 
    166 H166        3.4085  -15.3187  -38.4220 H         1 UNK         0.0600 
    167 H167        3.2468  -17.0669  -38.4434 H         1 UNK         0.0600 
    168 H168        4.5104  -16.2954  -39.3942 H         1 UNK         0.0600 
    169 H169        3.6710  -14.4049  -40.7676 H         1 UNK         0.3000 
    170 H170        3.2466  -12.6053  -42.1068 H         1 UNK         0.0600 
    171 H171        3.0885  -14.3311  -44.6408 H         1 UNK         0.0600 
    172 H172        4.0184  -12.8415  -44.4873 H         1 UNK         0.0600 
    173 H173        4.4547  -14.2524  -43.5354 H         1 UNK         0.0600 
    174 H174        1.5329  -12.4255  -44.4022 H         1 UNK         0.3000 
    175 H175       -1.1041  -10.6176  -42.8138 H         1 UNK         0.0600 
    176 H176        1.1530   -9.6631  -44.6524 H         1 UNK         0.0600 
    177 H177       -0.4419   -8.9248  -44.5144 H         1 UNK         0.0600 
    178 H178        0.6568   -8.9064  -43.1433 H         1 UNK         0.0600 
    179 H179       -0.1057  -11.6784  -45.4239 H         1 UNK         0.3000 
    180 H180       -3.2133  -13.4500  -45.8706 H         1 UNK         0.0600 
    181 H181       -1.8439  -11.1768  -47.4050 H         1 UNK         0.0600 
    182 H182       -3.4787  -11.1227  -46.7567 H         1 UNK         0.0600 
    183 H183       -3.0824  -12.2609  -48.0339 H         1 UNK         0.0600 
    184 H184       -0.3094  -13.4713  -46.3274 H         1 UNK         0.3000 
    185 H185       -0.0204  -16.2777  -46.8838 H         1 UNK         0.0600 
    186 H186       -1.3119  -17.2709  -48.7047 H         1 UNK         0.0600 
    187 H187       -0.8480  -15.9765  -49.8115 H         1 UNK         0.0600 
    188 H188        0.3594  -17.1092  -49.2078 H         1 UNK         0.0600 
    189 H189        0.6840  -13.9548  -48.5907 H         1 UNK         0.3000 
    190 H190       -2.1072  -21.2383  -45.7854 H         1 UNK         0.3000 
    191 H191       -4.3205  -22.0525  -47.3253 H         1 UNK         0.0600 
    192 H192       -4.0160  -21.7895  -44.2937 H         1 UNK         0.0600 
    193 H193       -5.5463  -21.9291  -45.1520 H         1 UNK         0.0600 
    194 H194       -4.5204  -20.5267  -45.4135 H         1 UNK         0.0600 
    195 H195       -2.5686  -23.8200  -44.7175 H         1 UNK         0.3000 
    196 H196       -4.0932  -26.1756  -44.7529 H         1 UNK         0.0600 
    197 H197       -2.1348  -27.1622  -43.5465 H         1 UNK         0.0600 
    198 H198       -2.5558  -25.5799  -42.9120 H         1 UNK         0.0600 
    199 H199       -1.1600  -25.7619  -43.9744 H         1 UNK         0.0600 
    200 H200       -1.2788  -25.2892  -46.7463 H         1 UNK         0.3000 
    201 H201       -1.0596  -27.8377  -48.1077 H         1 UNK         0.0600 
    202 H202        0.8808  -26.3185  -47.7505 H         1 UNK         0.0600 
    203 H203        0.6228  -26.6133  -49.4615 H         1 UNK         0.0600 
    204 H204        0.1158  -25.0840  -48.7491 H         1 UNK         0.0600 
    205 H205       -3.6972  -27.1883  -48.2367 H         1 UNK         0.3000 
    206 H206       -5.5150  -26.9571  -49.5037 H         1 UNK         0.0600 
    207 H207       -4.4637  -28.9330  -50.6204 H         1 UNK         0.0600 
    208 H208       -5.4312  -28.0002  -51.7501 H         1 UNK         0.0600 
    209 H209       -3.6775  -27.8675  -51.7845 H         1 UNK         0.0600 
    210 H210       -4.4051  -24.5257  -49.0036 H         1 UNK         0.3000 
    211 H211       -4.2517  -22.3678  -49.5477 H         1 UNK         0.0600 
    212 H212       -6.3204  -23.0281  -51.7058 H         1 UNK         0.0600 
    213 H213       -5.9729  -21.4336  -51.0548 H         1 UNK         0.0600 
    214 H214       -6.6782  -22.6597  -50.0187 H         1 UNK         0.0600 
    215 H215       -2.3622  -24.1829  -50.8092 H         1 UNK         0.3000 
    216 H216       -0.7195  -24.3736  -52.2481 H         1 UNK         0.0600 
    217 H217        0.4169  -22.3166  -53.0401 H         1 UNK         0.0600 
    218 H218       -0.0984  -22.1323  -51.3715 H         1 UNK         0.0600 
    219 H219       -1.0114  -21.3580  -52.6689 H         1 UNK         0.0600 
    220 H220       -3.5335  -24.5875  -53.2423 H         1 UNK         0.3000 
    221 H221       -4.7751  -24.9304  -55.0049 H         1 UNK         0.0600 
    222 H222       -2.2460  -25.0006  -56.7327 H         1 UNK         0.0600 
    223 H223       -2.8892  -26.3707  -55.8275 H         1 UNK         0.0600 
    224 H224       -3.8178  -25.6698  -57.1415 H         1 UNK         0.0600 
    225 H225       -3.7216  -22.0911  -54.2924 H         1 UNK         0.3000 
    226 H226       -4.3522  -20.6121  -56.7964 H         1 UNK         0.0600 
    227 H227       -2.2265  -20.0867  -55.5967 H         1 UNK         0.0600 
    228 H228       -3.3231  -18.7141  -55.5589 H         1 UNK         0.0600 
    229 H229       -3.1304  -19.7214  -54.1306 H         1 UNK         0.0600 
    230 H230       -5.7795  -21.5780  -53.8486 H         1 UNK         0.3000 
    231 H231       -7.7145  -21.3164  -52.8361 H         1 UNK         0.0600 
    232 H232       -8.8188  -21.3109  -55.0562 H         1 UNK         0.0600 
    233 H233       -8.6696  -19.5570  -55.1487 H         1 UNK         0.0600 
    234 H234       -9.6692  -20.2907  -53.9065 H         1 UNK         0.0600 
    235 H235       -6.7329  -18.1503  -54.1621 H         1 UNK         0.3000 
    236 H236       -7.7243  -16.5340  -52.0246 H         1 UNK         0.0600 
    237 H237       -6.3033  -14.7713  -53.0946 H         1 UNK         0.0600 
    238 H238       -5.5175  -15.9947  -54.0867 H         1 UNK         0.0600 
    239 H239       -7.2353  -15.6528  -54.2950 H         1 UNK         0.0600 
    240 H240       -4.7759  -18.3831  -52.3635 H         1 UNK         0.3000 
    241 H241       -3.4081  -17.1000  -50.1091 H         1 UNK         0.0600 
    242 H242       -5.5580  -20.0023  -48.5240 H         1 UNK         0.3800 
    243 H243       -6.0285  -19.1343  -49.9611 H         1 UNK         0.3800 
    244 H244       -2.5473  -19.4833  -51.8110 H         1 UNK         0.0800 
    245 H245       -1.5776  -18.7061  -50.5895 H         1 UNK         0.0800 
    246 H246        0.0039  -17.7031  -54.1188 H         1 UNK         0.0800 
    247 H247       -0.4966  -19.2002  -53.3879 H         1 UNK         0.0800 
@<TRIPOS>BOND
     1    1    2 1    
     2    1  127 1    
     3    1  128 1    
     4    1  129 1    
     5    2    3 2    
     6    2    4 am   BACKBONE|DICT|INTERRES
     7    4    5 1    
     8    4  130 1    
     9    5    6 1    
    10    5   65 1    
    11    5  131 1    
    12    6    7 1    
    13    6  132 1    
    14    6  133 1    
    15    7    8 1    
    16    8    9 1    
    17    8  134 1    
    18    8  135 1    
    19    9   10 ar   
    20    9   14 ar   
    21   10   11 ar   
    22   10  136 1    
    23   11   12 ar   
    24   11  126 1    
    25   12   13 ar   
    26   12  137 1    
    27   13   14 ar   
    28   13   15 1    
    29   14  138 1    
    30   15   16 1    
    31   15  139 1    
    32   15  140 1    
    33   16   17 1    
    34   17   18 1    
    35   17  141 1    
    36   17  142 1    
    37   18   19 1    
    38   18   67 1    
    39   18  143 1    
    40   19   20 am   BACKBONE|DICT|INTERRES
    41   19  144 1    
    42   20   21 2    
    43   20   22 1    
    44   22   23 1    
    45   22   24 1    
    46   22  145 1    
    47   23  146 1    
    48   23  147 1    
    49   23  148 1    
    50   24   25 am   BACKBONE|DICT|INTERRES
    51   24  149 1    
    52   25   26 2    
    53   25   27 1    
    54   27   28 1    
    55   27   29 1    
    56   27  150 1    
    57   28  151 1    
    58   28  152 1    
    59   28  153 1    
    60   29   30 am   BACKBONE|DICT|INTERRES
    61   29  154 1    
    62   30   31 2    
    63   30   32 1    
    64   32   33 1    
    65   32   34 1    
    66   32  155 1    
    67   33  156 1    
    68   33  157 1    
    69   33  158 1    
    70   34   35 am   BACKBONE|DICT|INTERRES
    71   34  159 1    
    72   35   36 2    
    73   35   37 1    
    74   37   38 1    
    75   37   39 1    
    76   37  160 1    
    77   38  161 1    
    78   38  162 1    
    79   38  163 1    
    80   39   40 am   BACKBONE|DICT|INTERRES
    81   39  164 1    
    82   40   41 2    
    83   40   42 1    
    84   42   43 1    
    85   42   44 1    
    86   42  165 1    
    87   43  166 1    
    88   43  167 1    
    89   43  168 1    
    90   44   45 am   BACKBONE|DICT|INTERRES
    91   44  169 1    
    92   45   46 2    
    93   45   47 1    
    94   47   48 1    
    95   47   49 1    
    96   47  170 1    
    97   48  171 1    
    98   48  172 1    
    99   48  173 1    
   100   49   50 am   BACKBONE|DICT|INTERRES
   101   49  174 1    
   102   50   51 2    
   103   50   52 1    
   104   52   53 1    
   105   52   54 1    
   106   52  175 1    
   107   53  176 1    
   108   53  177 1    
   109   53  178 1    
   110   54   55 am   BACKBONE|DICT|INTERRES
   111   54  179 1    
   112   55   56 2    
   113   55   57 1    
   114   57   58 1    
   115   57   59 1    
   116   57  180 1    
   117   58  181 1    
   118   58  182 1    
   119   58  183 1    
   120   59   60 am   BACKBONE|DICT|INTERRES
   121   59  184 1    
   122   60   61 2    
   123   60   62 1    
   124   62   63 1    
   125   62   64 1    
   126   62  185 1    
   127   63  186 1    
   128   63  187 1    
   129   63  188 1    
   130   64   65 am   BACKBONE|DICT|INTERRES
   131   64  189 1    
   132   65   66 2    
   133   67   68 2    
   134   67   69 am   BACKBONE|DICT|INTERRES
   135   69   70 1    
   136   69  190 1    
   137   70   71 1    
   138   70   72 1    
   139   70  191 1    
   140   71  192 1    
   141   71  193 1    
   142   71  194 1    
   143   72   73 2    
   144   72   74 am   BACKBONE|DICT|INTERRES
   145   74   75 1    
   146   74  195 1    
   147   75   76 1    
   148   75   77 1    
   149   75  196 1    
   150   76  197 1    
   151   76  198 1    
   152   76  199 1    
   153   77   78 2    
   154   77   79 am   BACKBONE|DICT|INTERRES
   155   79   80 1    
   156   79  200 1    
   157   80   81 1    
   158   80   82 1    
   159   80  201 1    
   160   81  202 1    
   161   81  203 1    
   162   81  204 1    
   163   82   83 2    
   164   82   84 am   BACKBONE|DICT|INTERRES
   165   84   85 1    
   166   84  205 1    
   167   85   86 1    
   168   85   87 1    
   169   85  206 1    
   170   86  207 1    
   171   86  208 1    
   172   86  209 1    
   173   87   88 2    
   174   87   89 am   BACKBONE|DICT|INTERRES
   175   89   90 1    
   176   89  210 1    
   177   90   91 1    
   178   90   92 1    
   179   90  211 1    
   180   91  212 1    
   181   91  213 1    
   182   91  214 1    
   183   92   93 2    
   184   92   94 am   BACKBONE|DICT|INTERRES
   185   94   95 1    
   186   94  215 1    
   187   95   96 1    
   188   95   97 1    
   189   95  216 1    
   190   96  217 1    
   191   96  218 1    
   192   96  219 1    
   193   97   98 2    
   194   97   99 am   BACKBONE|DICT|INTERRES
   195   99  100 1    
   196   99  220 1    
   197  100  101 1    
   198  100  102 1    
   199  100  221 1    
   200  101  222 1    
   201  101  223 1    
   202  101  224 1    
   203  102  103 2    
   204  102  104 am   BACKBONE|DICT|INTERRES
   205  104  105 1    
   206  104  225 1    
   207  105  106 1    
   208  105  107 1    
   209  105  226 1    
   210  106  227 1    
   211  106  228 1    
   212  106  229 1    
   213  107  108 2    
   214  107  109 am   BACKBONE|DICT|INTERRES
   215  109  110 1    
   216  109  230 1    
   217  110  111 1    
   218  110  112 1    
   219  110  231 1    
   220  111  232 1    
   221  111  233 1    
   222  111  234 1    
   223  112  113 2    
   224  112  114 am   BACKBONE|DICT|INTERRES
   225  114  115 1    
   226  114  235 1    
   227  115  116 1    
   228  115  117 1    
   229  115  236 1    
   230  116  237 1    
   231  116  238 1    
   232  116  239 1    
   233  117  118 2    
   234  117  119 am   BACKBONE|DICT|INTERRES
   235  119  120 1    
   236  119  240 1    
   237  120  121 1    
   238  120  124 1    
   239  120  241 1    
   240  121  122 am   BACKBONE|DICT|INTERRES
   241  121  123 2    
   242  122  242 1    
   243  122  243 1    
   244  124  125 1    
   245  124  244 1    
   246  124  245 1    
   247  125  126 1    
   248  126  246 1    
   249  126  247 1    
@<TRIPOS>SUBSTRUCTURE
     1 UNK         1 GROUP             0       ****    0 ROOT    
