@<TRIPOS>MOLECULE
3R540
247   249    1
SMALL
USER_CHARGES


@<TRIPOS>ATOM
      1 CA          1.0439  -13.0311  -45.4466 C.3       0 UNK        -0.1800 
      2 C          -0.1747  -13.1574  -46.3488 C.2       0 UNK         0.5000 
      3 O          -1.2331  -12.6199  -46.0239 O.2       0 UNK        -0.5000 
      4 N          -0.0206  -13.8450  -47.4892 N.am      1 UNK        -0.5000 
      5 CA         -1.0827  -14.1906  -48.4492 C.3       1 UNK         0.1400 
      6 C6         -0.5509  -15.0692  -49.6081 C.3       23 UNK        -0.0398 
      7 S7          0.2536  -16.6035  -49.0318 S.3       23 UNK        -0.2404 
      8 C8          2.0192  -16.2952  -49.3786 C.3       23 UNK        -0.0205 
      9 C9          2.6762  -17.5057  -50.0267 C.ar      23 UNK        -0.0193 
     10 C10         3.1199  -17.4511  -51.3527 C.ar      23 UNK        -0.1150 
     11 C11         3.6947  -18.5730  -51.9623 C.ar      23 UNK        -0.0193 
     12 C12         3.8481  -19.7457  -51.2155 C.ar      23 UNK        -0.1150 
     13 C13         3.4308  -19.8071  -49.8827 C.ar      23 UNK        -0.0193 
     14 C14         2.8460  -18.6837  -49.2953 C.ar      23 UNK        -0.1150 
     15 C15         3.6368  -21.0799  -49.0755 C.3       23 UNK        -0.0205 
     16 S16         2.4269  -22.3639  -49.5119 S.3       23 UNK        -0.2404 
     17 C17         0.9127  -21.7900  -48.6691 C.3       23 UNK        -0.0398 
     18 CA          0.2948  -22.9245  -47.8176 C.3       11 UNK         0.1400 
     19 N           1.1364  -23.2703  -46.6676 N.am      11 UNK        -0.5000 
     20 C           1.0823  -24.4447  -46.0269 C.2       10 UNK         0.5000 
     21 O           0.2965  -25.3453  -46.3192 O.2       10 UNK        -0.5000 
     22 CA          2.0336  -24.6195  -44.8291 C.3       10 UNK         0.1400 
     23 CB          3.4315  -25.0363  -45.3096 C.3       10 UNK        -0.1800 
     24 N           2.1516  -23.4268  -43.9852 N.am      10 UNK        -0.5000 
     25 C           1.1427  -22.7966  -43.3717 C.2       9 UNK         0.5000 
     26 O          -0.0366  -23.1138  -43.5188 O.2       9 UNK        -0.5000 
     27 CA          1.4844  -21.5969  -42.4681 C.3       9 UNK         0.1400 
     28 CB          1.8138  -22.0593  -41.0370 C.3       9 UNK        -0.1800 
     29 N           2.5170  -20.6946  -42.9954 N.am      9 UNK        -0.5000 
     30 C           3.8271  -20.9172  -43.1901 C.2       8 UNK         0.5000 
     31 O           4.3750  -21.9967  -42.9650 O.2       8 UNK        -0.5000 
     32 CA          4.6688  -19.7625  -43.7744 C.3       8 UNK         0.1400 
     33 CB          5.1152  -20.1031  -45.2049 C.3       8 UNK        -0.1800 
     34 N           3.9602  -18.4825  -43.8070 N.am      8 UNK        -0.5000 
     35 C           3.7315  -17.6930  -42.7486 C.2       7 UNK         0.5000 
     36 O           4.1680  -17.9170  -41.6195 O.2       7 UNK        -0.5000 
     37 CA          2.8330  -16.4634  -42.9927 C.3       7 UNK         0.1400 
     38 CB          3.6875  -15.2106  -43.2395 C.3       7 UNK        -0.1800 
     39 N           1.9023  -16.6350  -44.1146 N.am      7 UNK        -0.5000 
     40 C           0.8902  -17.5128  -44.1401 C.2       6 UNK         0.5000 
     41 O           0.6411  -18.3015  -43.2265 O.2       6 UNK        -0.5000 
     42 CA          0.0582  -17.5660  -45.4338 C.3       6 UNK         0.1400 
     43 CB          0.3190  -18.8959  -46.1602 C.3       6 UNK        -0.1800 
     44 N          -1.3789  -17.4319  -45.1981 N.am      6 UNK        -0.5000 
     45 C          -1.9747  -16.4069  -44.5761 C.2       5 UNK         0.5000 
     46 O          -1.3736  -15.4339  -44.1150 O.2       5 UNK        -0.5000 
     47 CA         -3.5036  -16.5124  -44.4214 C.3       5 UNK         0.1400 
     48 CB         -3.8617  -17.3695  -43.1967 C.3       5 UNK        -0.1800 
     49 N          -4.1219  -15.1969  -44.2667 N.am      5 UNK        -0.5000 
     50 C          -4.2650  -14.2951  -45.2458 C.2       4 UNK         0.5000 
     51 O          -3.9915  -14.5254  -46.4242 O.2       4 UNK        -0.5000 
     52 CA         -4.8188  -12.9125  -44.8567 C.3       4 UNK         0.1400 
     53 CB         -5.0084  -12.7100  -43.3343 C.3       4 UNK        -0.1800 
     54 N          -3.9390  -11.8807  -45.3986 N.am      4 UNK        -0.5000 
     55 C          -4.2767  -10.5993  -45.5848 C.2       3 UNK         0.5000 
     56 O          -5.4042  -10.1506  -45.3724 O.2       3 UNK        -0.5000 
     57 CA         -3.1745   -9.6538  -46.0850 C.3       3 UNK         0.1400 
     58 CB         -2.1828   -9.3325  -44.9546 C.3       3 UNK        -0.1800 
     59 N          -2.4457  -10.2301  -47.2127 N.am      3 UNK        -0.5000 
     60 C          -2.6129   -9.8711  -48.4928 C.2       2 UNK         0.5000 
     61 O          -3.4278   -9.0250  -48.8637 O.2       2 UNK        -0.5000 
     62 CA         -1.7072  -10.5438  -49.5443 C.3       2 UNK         0.1400 
     63 CB         -0.5518   -9.6075  -49.9315 C.3       2 UNK        -0.1800 
     64 N          -1.1465  -11.8174  -49.0948 N.am      2 UNK        -0.5000 
     65 C          -1.8295  -12.9683  -49.0300 C.2       1 UNK         0.5000 
     66 O          -2.9953  -13.0866  -49.4077 O.2       1 UNK        -0.5000 
     67 C          -1.1639  -22.6131  -47.4160 C.2       11 UNK         0.5000 
     68 O          -2.0590  -22.7532  -48.2519 O.2       11 UNK        -0.5000 
     69 N          -1.3886  -22.2271  -46.1507 N.am      12 UNK        -0.5000 
     70 CA         -2.7221  -22.0741  -45.5690 C.3       12 UNK         0.1400 
     71 CB         -2.6759  -21.0895  -44.3910 C.3       12 UNK        -0.1800 
     72 C          -3.2868  -23.4369  -45.1344 C.2       12 UNK         0.5000 
     73 O          -4.4560  -23.7196  -45.3927 O.2       12 UNK        -0.5000 
     74 N          -2.4336  -24.2741  -44.5255 N.am      13 UNK        -0.5000 
     75 CA         -2.7446  -25.6406  -44.0983 C.3       13 UNK         0.1400 
     76 CB         -1.5563  -26.2104  -43.3099 C.3       13 UNK        -0.1800 
     77 C          -3.1255  -26.5750  -45.2630 C.2       13 UNK         0.5000 
     78 O          -3.9527  -27.4685  -45.0767 O.2       13 UNK        -0.5000 
     79 N          -2.5687  -26.3203  -46.4554 N.am      14 UNK        -0.5000 
     80 CA         -2.8946  -26.9651  -47.7308 C.3       14 UNK         0.1400 
     81 CB         -1.7497  -26.6854  -48.7220 C.3       14 UNK        -0.1800 
     82 C          -4.2717  -26.5310  -48.2891 C.2       14 UNK         0.5000 
     83 O          -4.3638  -26.0901  -49.4367 O.2       14 UNK        -0.5000 
     84 N          -5.3159  -26.6273  -47.4515 N.am      15 UNK        -0.5000 
     85 CA         -6.7263  -26.2950  -47.7056 C.3       15 UNK         0.1400 
     86 CB         -7.3400  -27.3313  -48.6693 C.3       15 UNK        -0.1800 
     87 C          -6.9625  -24.8440  -48.1855 C.2       15 UNK         0.5000 
     88 O          -7.9596  -24.5748  -48.8572 O.2       15 UNK        -0.5000 
     89 N          -6.0149  -23.9489  -47.8691 N.am      16 UNK        -0.5000 
     90 CA         -5.8620  -22.5751  -48.3563 C.3       16 UNK         0.1400 
     91 CB         -6.9777  -21.6706  -47.7973 C.3       16 UNK        -0.1800 
     92 C          -5.7123  -22.4485  -49.8896 C.2       16 UNK         0.5000 
     93 O          -5.8219  -21.3398  -50.4128 O.2       16 UNK        -0.5000 
     94 N          -5.4474  -23.5595  -50.5929 N.am      17 UNK        -0.5000 
     95 CA         -5.3508  -23.6066  -52.0506 C.3       17 UNK         0.1400 
     96 CB         -5.4217  -25.0650  -52.5275 C.3       17 UNK        -0.1800 
     97 C          -4.0734  -22.9215  -52.5520 C.2       17 UNK         0.5000 
     98 O          -4.1364  -22.0971  -53.4635 O.2       17 UNK        -0.5000 
     99 N          -2.9421  -23.2313  -51.9067 N.am      18 UNK        -0.5000 
    100 CA        -1.6508  -22.6107  -52.1937 C.3       18 UNK         0.1400 
    101 CB        -0.5310  -23.4537  -51.5757 C.3       18 UNK        -0.1800 
    102 C         -1.5897  -21.1436  -51.7302 C.2       18 UNK         0.5000 
    103 O         -0.9487  -20.3301  -52.3944 O.2       18 UNK        -0.5000 
    104 N         -2.2936  -20.8145  -50.6358 N.am      19 UNK        -0.5000 
    105 CA        -2.4737  -19.4448  -50.1437 C.3       19 UNK         0.1400 
    106 CB        -3.0835  -19.4701  -48.7336 C.3       19 UNK        -0.1800 
    107 C         -3.3180  -18.5648  -51.0898 C.2       19 UNK         0.5000 
    108 O         -3.1178  -17.3513  -51.1197 O.2       19 UNK        -0.5000 
    109 N         -4.2317  -19.1826  -51.8503 N.am      20 UNK        -0.5000 
    110 CA        -5.0150  -18.5239  -52.8932 C.3       20 UNK         0.1400 
    111 CB        -6.3331  -19.2853  -53.1046 C.3       20 UNK        -0.1800 
    112 C         -4.2289  -18.4096  -54.2119 C.2       20 UNK         0.5000 
    113 O         -4.2561  -17.3512  -54.8410 O.2       20 UNK        -0.5000 
    114 N         -3.5540  -19.4973  -54.6139 N.am      21 UNK        -0.5000 
    115 CA        -2.7976  -19.5931  -55.8665 C.3       21 UNK         0.1400 
    116 CB        -2.4460  -21.0641  -56.1345 C.3       21 UNK        -0.1800 
    117 C         -1.5244  -18.7263  -55.8929 C.2       21 UNK         0.5000 
    118 O         -1.1663  -18.2070  -56.9510 O.2       21 UNK        -0.5000 
    119 N         -0.8714  -18.5879  -54.7369 N.am      22 UNK        -0.5000 
    120 CA         0.3226  -17.7647  -54.5185 C.3       22 UNK         0.1400 
    121 C          0.2009  -16.9964  -53.1805 C.2       22 UNK         0.5000 
    122 N         -0.1072  -17.6811  -52.0904 N.am      22 UNK        -0.7600 
    123 O          0.3784  -15.7821  -53.1307 O.2       22 UNK        -0.5000 
    124 C124        1.6149  -18.6213  -54.5919 C.3       23 UNK        -0.0398 
    125 S125        3.1448  -17.6216  -54.5818 S.3       23 UNK        -0.2404 
    126 C126        4.2035  -18.5341  -53.4038 C.3       23 UNK        -0.0205 
    127 H127        1.2720  -11.9802  -45.2692 H         1 UNK         0.0600 
    128 H128        1.9249  -13.5028  -45.8822 H         1 UNK         0.0600 
    129 H129        0.8426  -13.5042  -44.4853 H         1 UNK         0.0600 
    130 H130        0.8834  -14.2392  -47.7014 H         1 UNK         0.3000 
    131 H131       -1.8192  -14.7784  -47.8987 H         1 UNK         0.0600 
    132 H132        0.1290  -14.5017  -50.2453 H         1 UNK         0.0800 
    133 H133       -1.3772  -15.3682  -50.2562 H         1 UNK         0.0800 
    134 H134        2.5315  -16.0642  -48.4440 H         1 UNK         0.0800 
    135 H135        2.1425  -15.4209  -50.0184 H         1 UNK         0.0800 
    136 H136        3.0023  -16.5369  -51.9168 H         1 UNK         0.1150 
    137 H137        4.3033  -20.6160  -51.6673 H         1 UNK         0.1150 
    138 H138        2.5195  -18.7216  -48.2679 H         1 UNK         0.1150 
    139 H139        4.6396  -21.4648  -49.2661 H         1 UNK         0.0800 
    140 H140        3.5885  -20.8786  -48.0058 H         1 UNK         0.0800 
    141 H141        0.2216  -21.4495  -49.4395 H         1 UNK         0.0800 
    142 H142        1.1288  -20.9178  -48.0531 H         1 UNK         0.0800 
    143 H143        0.2380  -23.8138  -48.4484 H         1 UNK         0.0600 
    144 H144        1.8171  -22.5876  -46.3708 H         1 UNK         0.3000 
    145 H145        1.6339  -25.4216  -44.2062 H         1 UNK         0.0600 
    146 H146        4.0876  -25.2576  -44.4676 H         1 UNK         0.0600 
    147 H147        3.3817  -25.9343  -45.9270 H         1 UNK         0.0600 
    148 H148        3.9033  -24.2531  -45.9046 H         1 UNK         0.0600 
    149 H149        3.0908  -23.0989  -43.7761 H         1 UNK         0.3000 
    150 H150        0.5777  -20.9926  -42.4098 H         1 UNK         0.0600 
    151 H151        0.9876  -22.6333  -40.6155 H         1 UNK         0.0600 
    152 H152        1.9868  -21.2077  -40.3789 H         1 UNK         0.0600 
    153 H153        2.6993  -22.6944  -41.0046 H         1 UNK         0.0600 
    154 H154        2.1683  -19.7685  -43.2128 H         1 UNK         0.3000 
    155 H155        5.5586  -19.6565  -43.1504 H         1 UNK         0.0600 
    156 H156        4.2606  -20.2123  -45.8720 H         1 UNK         0.0600 
    157 H157        5.6758  -21.0385  -45.2317 H         1 UNK         0.0600 
    158 H158        5.7631  -19.3269  -45.6124 H         1 UNK         0.0600 
    159 H159        3.5787  -18.2015  -44.6975 H         1 UNK         0.3000 
    160 H160        2.2434  -16.3037  -42.0875 H         1 UNK         0.0600 
    161 H161        4.2782  -15.2984  -44.1522 H         1 UNK         0.0600 
    162 H162        4.3812  -15.0423  -42.4146 H         1 UNK         0.0600 
    163 H163        3.0661  -14.3191  -43.3248 H         1 UNK         0.0600 
    164 H164        2.0442  -16.0261  -44.9063 H         1 UNK         0.3000 
    165 H165        0.3630  -16.7435  -46.0827 H         1 UNK         0.0600 
    166 H166       -0.1876  -18.9299  -47.1247 H         1 UNK         0.0600 
    167 H167        1.3840  -19.0371  -46.3415 H         1 UNK         0.0600 
    168 H168       -0.0208  -19.7481  -45.5717 H         1 UNK         0.0600 
    169 H169       -1.9508  -18.1948  -45.5244 H         1 UNK         0.3000 
    170 H170       -3.9141  -16.9872  -45.3153 H         1 UNK         0.0600 
    171 H171       -3.4338  -18.3691  -43.2750 H         1 UNK         0.0600 
    172 H172       -3.4866  -16.9267  -42.2730 H         1 UNK         0.0600 
    173 H173       -4.9412  -17.4868  -43.0989 H         1 UNK         0.0600 
    174 H174       -4.3359  -14.9134  -43.3222 H         1 UNK         0.3000 
    175 H175       -5.7937  -12.8265  -45.3406 H         1 UNK         0.0600 
    176 H176       -4.0610  -12.7777  -42.7980 H         1 UNK         0.0600 
    177 H177       -5.4398  -11.7337  -43.1140 H         1 UNK         0.0600 
    178 H178       -5.6904  -13.4507  -42.9151 H         1 UNK         0.0600 
    179 H179       -2.9976  -12.1913  -45.6349 H         1 UNK         0.3000 
    180 H180       -3.6506   -8.7161  -46.3796 H         1 UNK         0.0600 
    181 H181       -1.4357   -8.6095  -45.2823 H         1 UNK         0.0600 
    182 H182       -1.6562  -10.2233  -44.6098 H         1 UNK         0.0600 
    183 H183       -2.6973   -8.9016  -44.0948 H         1 UNK         0.0600 
    184 H184       -1.8096  -10.9890  -46.9923 H         1 UNK         0.3000 
    185 H185       -2.3128  -10.7228  -50.4353 H         1 UNK         0.0600 
    186 H186        0.0613  -10.0425  -50.7210 H         1 UNK         0.0600 
    187 H187       -0.9291   -8.6540  -50.3035 H         1 UNK         0.0600 
    188 H188        0.0962   -9.3943  -49.0804 H         1 UNK         0.0600 
    189 H189       -0.1927  -11.8052  -48.7643 H         1 UNK         0.3000 
    190 H190       -0.6126  -22.2081  -45.5039 H         1 UNK         0.3000 
    191 H191       -3.3923  -21.6521  -46.3191 H         1 UNK         0.0600 
    192 H192       -3.6737  -20.9322  -43.9796 H         1 UNK         0.0600 
    193 H193       -2.2985  -20.1185  -44.7057 H         1 UNK         0.0600 
    194 H194       -2.0427  -21.4460  -43.5791 H         1 UNK         0.0600 
    195 H195       -1.5033  -23.9334  -44.2961 H         1 UNK         0.3000 
    196 H196       -3.6041  -25.5863  -43.4272 H         1 UNK         0.0600 
    197 H197       -0.6661  -26.2976  -43.9323 H         1 UNK         0.0600 
    198 H198       -1.3081  -25.5785  -42.4568 H         1 UNK         0.0600 
    199 H199       -1.7849  -27.2045  -42.9238 H         1 UNK         0.0600 
    200 H200       -1.8483  -25.6093  -46.4896 H         1 UNK         0.3000 
    201 H201       -2.9413  -28.0436  -47.5685 H         1 UNK         0.0600 
    202 H202       -1.6486  -25.6187  -48.9263 H         1 UNK         0.0600 
    203 H203       -1.9201  -27.1893  -49.6742 H         1 UNK         0.0600 
    204 H204       -0.7957  -27.0429  -48.3340 H         1 UNK         0.0600 
    205 H205       -5.1101  -26.9765  -46.5192 H         1 UNK         0.3000 
    206 H206       -7.2392  -26.3841  -46.7471 H         1 UNK         0.0600 
    207 H207       -7.1782  -28.3478  -48.3106 H         1 UNK         0.0600 
    208 H208       -8.4174  -27.1920  -48.7651 H         1 UNK         0.0600 
    209 H209       -6.9093  -27.2556  -49.6685 H         1 UNK         0.0600 
    210 H210       -5.2784  -24.2574  -47.2445 H         1 UNK         0.3000 
    211 H211       -4.9168  -22.2226  -47.9463 H         1 UNK         0.0600 
    212 H212       -6.7899  -20.6227  -48.0340 H         1 UNK         0.0600 
    213 H213       -7.0400  -21.7497  -46.7119 H         1 UNK         0.0600 
    214 H214       -7.9528  -21.9293  -48.2106 H         1 UNK         0.0600 
    215 H215       -5.3023  -24.4342  -50.0980 H         1 UNK         0.3000 
    216 H216       -6.2060  -23.0713  -52.4688 H         1 UNK         0.0600 
    217 H217       -4.5892  -25.6579  -52.1470 H         1 UNK         0.0600 
    218 H218       -5.3938  -25.1204  -53.6164 H         1 UNK         0.0600 
    219 H219       -6.3464  -25.5409  -52.2000 H         1 UNK         0.0600 
    220 H220       -2.9792  -23.9007  -51.1509 H         1 UNK         0.3000 
    221 H221       -1.5030  -22.6128  -53.2752 H         1 UNK         0.0600 
    222 H222       -0.4848  -24.4409  -52.0355 H         1 UNK         0.0600 
    223 H223       -0.6832  -23.5942  -50.5083 H         1 UNK         0.0600 
    224 H224        0.4415  -22.9822  -51.7211 H         1 UNK         0.0600 
    225 H225       -2.7494  -21.5510  -50.1141 H         1 UNK         0.3000 
    226 H226       -1.4861  -18.9880  -50.0637 H         1 UNK         0.0600 
    227 H227       -4.0549  -19.9638  -48.7219 H         1 UNK         0.0600 
    228 H228       -2.4308  -19.9854  -48.0309 H         1 UNK         0.0600 
    229 H229       -3.2253  -18.4573  -48.3538 H         1 UNK         0.0600 
    230 H230       -4.3936  -20.1722  -51.7152 H         1 UNK         0.3000 
    231 H231       -5.2667  -17.5132  -52.5645 H         1 UNK         0.0600 
    232 H232       -6.1631  -20.3147  -53.4203 H         1 UNK         0.0600 
    233 H233       -6.9438  -18.8035  -53.8690 H         1 UNK         0.0600 
    234 H234       -6.9213  -19.3126  -52.1871 H         1 UNK         0.0600 
    235 H235       -3.6387  -20.3526  -54.0716 H         1 UNK         0.3000 
    236 H236       -3.4461  -19.2491  -56.6750 H         1 UNK         0.0600 
    237 H237       -3.3428  -21.6818  -56.1867 H         1 UNK         0.0600 
    238 H238       -1.9196  -21.1740  -57.0834 H         1 UNK         0.0600 
    239 H239       -1.8033  -21.4704  -55.3536 H         1 UNK         0.0600 
    240 H240       -1.2268  -19.0631  -53.9145 H         1 UNK         0.3000 
    241 H241        0.3750  -17.0086  -55.3045 H         1 UNK         0.0600 
    242 H242       -0.1601  -17.1991  -51.2068 H         1 UNK         0.3800 
    243 H243       -0.2586  -18.6853  -52.1313 H         1 UNK         0.3800 
    244 H244        1.6154  -19.2056  -55.5128 H         1 UNK         0.0800 
    245 H245        1.6355  -19.3478  -53.7776 H         1 UNK         0.0800 
    246 H246        4.3404  -19.5470  -53.7857 H         1 UNK         0.0800 
    247 H247        5.1916  -18.0727  -53.4017 H         1 UNK         0.0800 
@<TRIPOS>BOND
     1    1    2 1    
     2    1  127 1    
     3    1  128 1    
     4    1  129 1    
     5    2    3 2    
     6    2    4 am   BACKBONE|DICT|INTERRES
     7    4    5 1    
     8    4  130 1    
     9    5    6 1    
    10    5   65 1    
    11    5  131 1    
    12    6    7 1    
    13    6  132 1    
    14    6  133 1    
    15    7    8 1    
    16    8    9 1    
    17    8  134 1    
    18    8  135 1    
    19    9   10 ar   
    20    9   14 ar   
    21   10   11 ar   
    22   10  136 1    
    23   11   12 ar   
    24   11  126 1    
    25   12   13 ar   
    26   12  137 1    
    27   13   14 ar   
    28   13   15 1    
    29   14  138 1    
    30   15   16 1    
    31   15  139 1    
    32   15  140 1    
    33   16   17 1    
    34   17   18 1    
    35   17  141 1    
    36   17  142 1    
    37   18   19 1    
    38   18   67 1    
    39   18  143 1    
    40   19   20 am   BACKBONE|DICT|INTERRES
    41   19  144 1    
    42   20   21 2    
    43   20   22 1    
    44   22   23 1    
    45   22   24 1    
    46   22  145 1    
    47   23  146 1    
    48   23  147 1    
    49   23  148 1    
    50   24   25 am   BACKBONE|DICT|INTERRES
    51   24  149 1    
    52   25   26 2    
    53   25   27 1    
    54   27   28 1    
    55   27   29 1    
    56   27  150 1    
    57   28  151 1    
    58   28  152 1    
    59   28  153 1    
    60   29   30 am   BACKBONE|DICT|INTERRES
    61   29  154 1    
    62   30   31 2    
    63   30   32 1    
    64   32   33 1    
    65   32   34 1    
    66   32  155 1    
    67   33  156 1    
    68   33  157 1    
    69   33  158 1    
    70   34   35 am   BACKBONE|DICT|INTERRES
    71   34  159 1    
    72   35   36 2    
    73   35   37 1    
    74   37   38 1    
    75   37   39 1    
    76   37  160 1    
    77   38  161 1    
    78   38  162 1    
    79   38  163 1    
    80   39   40 am   BACKBONE|DICT|INTERRES
    81   39  164 1    
    82   40   41 2    
    83   40   42 1    
    84   42   43 1    
    85   42   44 1    
    86   42  165 1    
    87   43  166 1    
    88   43  167 1    
    89   43  168 1    
    90   44   45 am   BACKBONE|DICT|INTERRES
    91   44  169 1    
    92   45   46 2    
    93   45   47 1    
    94   47   48 1    
    95   47   49 1    
    96   47  170 1    
    97   48  171 1    
    98   48  172 1    
    99   48  173 1    
   100   49   50 am   BACKBONE|DICT|INTERRES
   101   49  174 1    
   102   50   51 2    
   103   50   52 1    
   104   52   53 1    
   105   52   54 1    
   106   52  175 1    
   107   53  176 1    
   108   53  177 1    
   109   53  178 1    
   110   54   55 am   BACKBONE|DICT|INTERRES
   111   54  179 1    
   112   55   56 2    
   113   55   57 1    
   114   57   58 1    
   115   57   59 1    
   116   57  180 1    
   117   58  181 1    
   118   58  182 1    
   119   58  183 1    
   120   59   60 am   BACKBONE|DICT|INTERRES
   121   59  184 1    
   122   60   61 2    
   123   60   62 1    
   124   62   63 1    
   125   62   64 1    
   126   62  185 1    
   127   63  186 1    
   128   63  187 1    
   129   63  188 1    
   130   64   65 am   BACKBONE|DICT|INTERRES
   131   64  189 1    
   132   65   66 2    
   133   67   68 2    
   134   67   69 am   BACKBONE|DICT|INTERRES
   135   69   70 1    
   136   69  190 1    
   137   70   71 1    
   138   70   72 1    
   139   70  191 1    
   140   71  192 1    
   141   71  193 1    
   142   71  194 1    
   143   72   73 2    
   144   72   74 am   BACKBONE|DICT|INTERRES
   145   74   75 1    
   146   74  195 1    
   147   75   76 1    
   148   75   77 1    
   149   75  196 1    
   150   76  197 1    
   151   76  198 1    
   152   76  199 1    
   153   77   78 2    
   154   77   79 am   BACKBONE|DICT|INTERRES
   155   79   80 1    
   156   79  200 1    
   157   80   81 1    
   158   80   82 1    
   159   80  201 1    
   160   81  202 1    
   161   81  203 1    
   162   81  204 1    
   163   82   83 2    
   164   82   84 am   BACKBONE|DICT|INTERRES
   165   84   85 1    
   166   84  205 1    
   167   85   86 1    
   168   85   87 1    
   169   85  206 1    
   170   86  207 1    
   171   86  208 1    
   172   86  209 1    
   173   87   88 2    
   174   87   89 am   BACKBONE|DICT|INTERRES
   175   89   90 1    
   176   89  210 1    
   177   90   91 1    
   178   90   92 1    
   179   90  211 1    
   180   91  212 1    
   181   91  213 1    
   182   91  214 1    
   183   92   93 2    
   184   92   94 am   BACKBONE|DICT|INTERRES
   185   94   95 1    
   186   94  215 1    
   187   95   96 1    
   188   95   97 1    
   189   95  216 1    
   190   96  217 1    
   191   96  218 1    
   192   96  219 1    
   193   97   98 2    
   194   97   99 am   BACKBONE|DICT|INTERRES
   195   99  100 1    
   196   99  220 1    
   197  100  101 1    
   198  100  102 1    
   199  100  221 1    
   200  101  222 1    
   201  101  223 1    
   202  101  224 1    
   203  102  103 2    
   204  102  104 am   BACKBONE|DICT|INTERRES
   205  104  105 1    
   206  104  225 1    
   207  105  106 1    
   208  105  107 1    
   209  105  226 1    
   210  106  227 1    
   211  106  228 1    
   212  106  229 1    
   213  107  108 2    
   214  107  109 am   BACKBONE|DICT|INTERRES
   215  109  110 1    
   216  109  230 1    
   217  110  111 1    
   218  110  112 1    
   219  110  231 1    
   220  111  232 1    
   221  111  233 1    
   222  111  234 1    
   223  112  113 2    
   224  112  114 am   BACKBONE|DICT|INTERRES
   225  114  115 1    
   226  114  235 1    
   227  115  116 1    
   228  115  117 1    
   229  115  236 1    
   230  116  237 1    
   231  116  238 1    
   232  116  239 1    
   233  117  118 2    
   234  117  119 am   BACKBONE|DICT|INTERRES
   235  119  120 1    
   236  119  240 1    
   237  120  121 1    
   238  120  124 1    
   239  120  241 1    
   240  121  122 am   BACKBONE|DICT|INTERRES
   241  121  123 2    
   242  122  242 1    
   243  122  243 1    
   244  124  125 1    
   245  124  244 1    
   246  124  245 1    
   247  125  126 1    
   248  126  246 1    
   249  126  247 1    
@<TRIPOS>SUBSTRUCTURE
     1 UNK         1 GROUP             0       ****    0 ROOT    
