@<TRIPOS>MOLECULE
3R540
247   249    1
SMALL
USER_CHARGES


@<TRIPOS>ATOM
      1 CA          5.1365  -15.6583  -50.1247 C.3       0 UNK        -0.1800 
      2 C           4.2236  -15.8097  -48.9170 C.2       0 UNK         0.5000 
      3 O           4.0383  -16.9229  -48.4236 O.2       0 UNK        -0.5000 
      4 N           3.6575  -14.6970  -48.4331 N.am      1 UNK        -0.5000 
      5 CA          2.7338  -14.6336  -47.2936 C.3       1 UNK         0.1400 
      6 C6          1.8049  -13.3927  -47.3643 C.3       23 UNK        -0.0398 
      7 S7          0.7760  -13.3919  -48.8734 S.3       23 UNK        -0.2404 
      8 C8         -0.8757  -13.8291  -48.2204 C.3       23 UNK        -0.0205 
      9 C9         -1.7607  -14.6686  -49.1486 C.ar      23 UNK        -0.0193 
     10 C10        -1.4538  -14.8881  -50.4987 C.ar      23 UNK        -0.1150 
     11 C11        -2.2926  -15.6547  -51.3111 C.ar      23 UNK        -0.0193 
     12 C12        -3.4589  -16.2019  -50.7730 C.ar      23 UNK        -0.1150 
     13 C13        -3.7915  -15.9860  -49.4321 C.ar      23 UNK        -0.0193 
     14 C14        -2.9374  -15.2224  -48.6290 C.ar      23 UNK        -0.1150 
     15 C15        -5.1126  -16.5076  -48.8788 C.3       23 UNK        -0.0205 
     16 S16        -5.2978  -18.3121  -49.0481 S.3       23 UNK        -0.2404 
     17 C17        -4.6580  -18.9232  -47.4529 C.3       23 UNK        -0.0398 
     18 CA         -4.1251  -20.3693  -47.5856 C.3       11 UNK         0.1400 
     19 N          -2.9665  -20.4281  -48.4816 N.am      11 UNK        -0.5000 
     20 C          -2.2798  -21.5169  -48.8502 C.2       10 UNK         0.5000 
     21 O          -2.5719  -22.6653  -48.5150 O.2       10 UNK        -0.5000 
     22 CA         -1.0057  -21.2675  -49.6791 C.3       10 UNK         0.1400 
     23 CB         -1.3467  -21.3432  -51.1718 C.3       10 UNK        -0.1800 
     24 N          -0.3474  -19.9827  -49.4067 N.am      10 UNK        -0.5000 
     25 C           0.0232  -19.5134  -48.2052 C.2       9 UNK         0.5000 
     26 O          -0.1568  -20.1282  -47.1507 O.2       9 UNK        -0.5000 
     27 CA          0.6101  -18.0940  -48.1454 C.3       9 UNK         0.1400 
     28 CB          0.7283  -17.4051  -49.5186 C.3       9 UNK        -0.1800 
     29 N          -0.2758  -17.3133  -47.2856 N.am      9 UNK        -0.5000 
     30 C           0.0227  -16.9271  -46.0427 C.2       8 UNK         0.5000 
     31 O           1.1447  -17.0205  -45.5453 O.2       8 UNK        -0.5000 
     32 CA         -1.1365  -16.3647  -45.2134 C.3       8 UNK         0.1400 
     33 CB         -1.8645  -17.5024  -44.4859 C.3       8 UNK        -0.1800 
     34 N          -0.6279  -15.4242  -44.2204 N.am      8 UNK        -0.5000 
     35 C          -1.0960  -14.1850  -44.0283 C.2       7 UNK         0.5000 
     36 O          -1.9877  -13.6863  -44.7162 O.2       7 UNK        -0.5000 
     37 CA         -0.4930  -13.3484  -42.8864 C.3       7 UNK         0.1400 
     38 CB         -1.4298  -13.3507  -41.6684 C.3       7 UNK        -0.1800 
     39 N           0.8290  -13.8187  -42.4728 N.am      7 UNK        -0.5000 
     40 C           1.8962  -13.0332  -42.2895 C.2       6 UNK         0.5000 
     41 O           1.8802  -11.8078  -42.4267 O.2       6 UNK        -0.5000 
     42 CA          3.1920  -13.7544  -41.8693 C.3       6 UNK         0.1400 
     43 CB          4.3970  -12.8085  -41.6878 C.3       6 UNK        -0.1800 
     44 N           3.0113  -14.6098  -40.6942 N.am      6 UNK        -0.5000 
     45 C           2.6562  -14.2397  -39.4549 C.2       5 UNK         0.5000 
     46 O           2.4479  -13.0750  -39.1108 O.2       5 UNK        -0.5000 
     47 CA          2.5217  -15.3933  -38.4367 C.3       5 UNK         0.1400 
     48 CB          1.9281  -14.9527  -37.0812 C.3       5 UNK        -0.1800 
     49 N           1.7923  -16.5396  -38.9946 N.am      5 UNK        -0.5000 
     50 C           0.5142  -16.5591  -39.4049 C.2       4 UNK         0.5000 
     51 O          -0.2653  -15.6151  -39.2740 O.2       4 UNK        -0.5000 
     52 CA          0.0527  -17.8560  -40.1064 C.3       4 UNK         0.1400 
     53 CB         -1.3096  -17.7001  -40.8150 C.3       4 UNK        -0.1800 
     54 N           1.0593  -18.3928  -41.0350 N.am      4 UNK        -0.5000 
     55 C           1.5816  -17.7649  -42.0985 C.2       3 UNK         0.5000 
     56 O           1.2730  -16.6182  -42.4359 O.2       3 UNK        -0.5000 
     57 CA          2.6324  -18.5533  -42.9006 C.3       3 UNK         0.1400 
     58 CB          1.9900  -19.7014  -43.6972 C.3       3 UNK        -0.1800 
     59 N           3.3504  -17.6782  -43.8263 N.am      3 UNK        -0.5000 
     60 C           4.4460  -16.9777  -43.5102 C.2       2 UNK         0.5000 
     61 O           4.9667  -17.0099  -42.3942 O.2       2 UNK        -0.5000 
     62 CA          5.0799  -16.0920  -44.5997 C.3       2 UNK         0.1400 
     63 CB          6.3660  -16.7469  -45.1280 C.3       2 UNK        -0.1800 
     64 N           4.1938  -15.8449  -45.7374 N.am      2 UNK        -0.5000 
     65 C           3.5033  -14.7196  -45.9553 C.2       1 UNK         0.5000 
     66 O           3.4995  -13.7631  -45.1802 O.2       1 UNK        -0.5000 
     67 C          -3.8847  -21.0092  -46.1976 C.2       11 UNK         0.5000 
     68 O          -4.8537  -21.4388  -45.5716 O.2       11 UNK        -0.5000 
     69 N          -2.6206  -21.0995  -45.7598 N.am      12 UNK        -0.5000 
     70 CA         -2.2118  -21.8555  -44.5767 C.3       12 UNK         0.1400 
     71 CB         -1.6695  -20.8966  -43.5083 C.3       12 UNK        -0.1800 
     72 C          -1.1647  -22.9193  -44.9396 C.2       12 UNK         0.5000 
     73 O          -1.2967  -24.0630  -44.5041 O.2       12 UNK        -0.5000 
     74 N          -0.1602  -22.5463  -45.7471 N.am      13 UNK        -0.5000 
     75 CA          0.9985  -23.3790  -46.0889 C.3       13 UNK         0.1400 
     76 CB          2.0310  -22.5221  -46.8375 C.3       13 UNK        -0.1800 
     77 C           0.6625  -24.6404  -46.9067 C.2       13 UNK         0.5000 
     78 O           1.3874  -25.6310  -46.8078 O.2       13 UNK        -0.5000 
     79 N          -0.4263  -24.5865  -47.6824 N.am      14 UNK        -0.5000 
     80 CA         -0.9612  -25.6996  -48.4665 C.3       14 UNK         0.1400 
     81 CB         -0.9026  -25.3293  -49.9601 C.3       14 UNK        -0.1800 
     82 C          -2.3965  -26.0404  -48.0239 C.2       14 UNK         0.5000 
     83 O          -3.1252  -26.6772  -48.7842 O.2       14 UNK        -0.5000 
     84 N          -2.8036  -25.5752  -46.8303 N.am      15 UNK        -0.5000 
     85 CA         -4.1365  -25.7247  -46.2286 C.3       15 UNK         0.1400 
     86 CB         -4.3503  -27.1825  -45.7726 C.3       15 UNK        -0.1800 
     87 C          -5.2873  -25.2077  -47.1242 C.2       15 UNK         0.5000 
     88 O          -6.3972  -25.7394  -47.0709 O.2       15 UNK        -0.5000 
     89 N          -4.9830  -24.1966  -47.9510 N.am      16 UNK        -0.5000 
     90 CA         -5.8320  -23.5772  -48.9698 C.3       16 UNK         0.1400 
     91 CB         -7.1007  -22.9520  -48.3538 C.3       16 UNK        -0.1800 
     92 C          -6.1420  -24.4710  -50.1873 C.2       16 UNK         0.5000 
     93 O          -6.9685  -24.0813  -51.0125 O.2       16 UNK        -0.5000 
     94 N          -5.4481  -25.6097  -50.3412 N.am      17 UNK        -0.5000 
     95 CA         -5.5854  -26.4917  -51.5060 C.3       17 UNK         0.1400 
     96 CB         -4.9176  -27.8434  -51.2141 C.3       17 UNK        -0.1800 
     97 C          -5.0043  -25.8704  -52.7914 C.2       17 UNK         0.5000 
     98 O          -5.5034  -26.1510  -53.8813 O.2       17 UNK        -0.5000 
     99 N          -3.9796  -25.0216  -52.6325 N.am      18 UNK        -0.5000 
    100 CA        -3.3107  -24.2902  -53.7095 C.3       18 UNK         0.1400 
    101 CB        -1.7925  -24.5130  -53.5996 C.3       18 UNK        -0.1800 
    102 C         -3.6702  -22.7909  -53.7093 C.2       18 UNK         0.5000 
    103 O         -3.0320  -22.0194  -54.4255 O.2       18 UNK        -0.5000 
    104 N         -4.6913  -22.3788  -52.9401 N.am      19 UNK        -0.5000 
    105 CA        -5.1648  -20.9885  -52.8851 C.3       19 UNK         0.1400 
    106 CB        -6.2115  -20.8304  -51.7742 C.3       19 UNK        -0.1800 
    107 C         -5.7181  -20.4816  -54.2319 C.2       19 UNK         0.5000 
    108 O         -5.5752  -19.2987  -54.5410 O.2       19 UNK        -0.5000 
    109 N         -6.2818  -21.3971  -55.0327 N.am      20 UNK        -0.5000 
    110 CA        -6.7364  -21.1453  -56.4013 C.3       20 UNK         0.1400 
    111 CB        -7.5680  -22.3448  -56.8801 C.3       20 UNK        -0.1800 
    112 C         -5.5814  -20.8622  -57.3838 C.2       20 UNK         0.5000 
    113 O         -5.7829  -20.1280  -58.3516 O.2       20 UNK        -0.5000 
    114 N         -4.3975  -21.4343  -57.1180 N.am      21 UNK        -0.5000 
    115 CA        -3.1672  -21.1622  -57.8625 C.3       21 UNK         0.1400 
    116 CB        -2.2092  -22.3580  -57.7398 C.3       21 UNK        -0.1800 
    117 C         -2.4976  -19.8634  -57.3787 C.2       21 UNK         0.5000 
    118 O         -1.9464  -19.1276  -58.1983 O.2       21 UNK        -0.5000 
    119 N         -2.5749  -19.5989  -56.0662 N.am      22 UNK        -0.5000 
    120 CA        -2.1493  -18.3428  -55.4309 C.3       22 UNK         0.1400 
    121 C         -2.9561  -17.1108  -55.9318 C.2       22 UNK         0.5000 
    122 N         -4.2822  -17.1680  -55.9227 N.am      22 UNK        -0.7600 
    123 O         -2.3791  -16.1043  -56.3337 O.2       22 UNK        -0.5000 
    124 C124       -2.1763  -18.4514  -53.8813 C.3       23 UNK        -0.0398 
    125 S125       -0.9665  -17.3531  -53.0682 S.3       23 UNK        -0.2404 
    126 C126       -1.9544  -15.8485  -52.7804 C.3       23 UNK        -0.0205 
    127 H127        6.1399  -16.0080  -49.8821 H         1 UNK         0.0600 
    128 H128        5.2068  -14.6209  -50.4526 H         1 UNK         0.0600 
    129 H129        4.7581  -16.2531  -50.9561 H         1 UNK         0.0600 
    130 H130        3.8600  -13.8110  -48.8735 H         1 UNK         0.3000 
    131 H131        2.0940  -15.5116  -47.3481 H         1 UNK         0.0600 
    132 H132        2.3946  -12.4745  -47.3550 H         1 UNK         0.0800 
    133 H133        1.1592  -13.3423  -46.4857 H         1 UNK         0.0800 
    134 H134       -1.4029  -12.9082  -47.9682 H         1 UNK         0.0800 
    135 H135       -0.7476  -14.3702  -47.2861 H         1 UNK         0.0800 
    136 H136       -0.5622  -14.4651  -50.9366 H         1 UNK         0.1150 
    137 H137       -4.1216  -16.7780  -51.4038 H         1 UNK         0.1150 
    138 H138       -3.2051  -15.0312  -47.5993 H         1 UNK         0.1150 
    139 H139       -5.2474  -16.2202  -47.8348 H         1 UNK         0.0800 
    140 H140       -5.9230  -16.0281  -49.4295 H         1 UNK         0.0800 
    141 H141       -5.4751  -18.8720  -46.7306 H         1 UNK         0.0800 
    142 H142       -3.8767  -18.2549  -47.0881 H         1 UNK         0.0800 
    143 H143       -4.9106  -20.9618  -48.0519 H         1 UNK         0.0600 
    144 H144       -2.6527  -19.5397  -48.8412 H         1 UNK         0.3000 
    145 H145       -0.2971  -22.0628  -49.4414 H         1 UNK         0.0600 
    146 H146       -0.4505  -21.2992  -51.7910 H         1 UNK         0.0600 
    147 H147       -1.8587  -22.2756  -51.4034 H         1 UNK         0.0600 
    148 H148       -2.0065  -20.5288  -51.4714 H         1 UNK         0.0600 
    149 H149       -0.1727  -19.3986  -50.2121 H         1 UNK         0.3000 
    150 H150        1.6101  -18.1759  -47.7152 H         1 UNK         0.0600 
    151 H151        1.4286  -17.9330  -50.1669 H         1 UNK         0.0600 
    152 H152        1.1017  -16.3873  -49.4139 H         1 UNK         0.0600 
    153 H153       -0.2310  -17.3491  -50.0319 H         1 UNK         0.0600 
    154 H154       -1.2205  -17.1984  -47.6206 H         1 UNK         0.3000 
    155 H155       -1.8430  -15.8804  -45.8873 H         1 UNK         0.0600 
    156 H156       -1.1995  -18.0048  -43.7843 H         1 UNK         0.0600 
    157 H157       -2.2325  -18.2516  -45.1868 H         1 UNK         0.0600 
    158 H158       -2.7214  -17.1289  -43.9252 H         1 UNK         0.0600 
    159 H159        0.1452  -15.7773  -43.6621 H         1 UNK         0.3000 
    160 H160       -0.4250  -12.3254  -43.2619 H         1 UNK         0.0600 
    161 H161       -1.5801  -14.3591  -41.2823 H         1 UNK         0.0600 
    162 H162       -2.4101  -12.9485  -41.9269 H         1 UNK         0.0600 
    163 H163       -1.0285  -12.7394  -40.8597 H         1 UNK         0.0600 
    164 H164        0.9385  -14.8205  -42.3325 H         1 UNK         0.3000 
    165 H165        3.4319  -14.4295  -42.6873 H         1 UNK         0.0600 
    166 H166        4.5972  -12.2579  -42.6078 H         1 UNK         0.0600 
    167 H167        4.2263  -12.0763  -40.8983 H         1 UNK         0.0600 
    168 H168        5.3005  -13.3660  -41.4412 H         1 UNK         0.0600 
    169 H169        3.1236  -15.5981  -40.8694 H         1 UNK         0.3000 
    170 H170        3.5370  -15.7434  -38.2444 H         1 UNK         0.0600 
    171 H171        2.5595  -14.2002  -36.6075 H         1 UNK         0.0600 
    172 H172        0.9341  -14.5186  -37.1909 H         1 UNK         0.0600 
    173 H173        1.8533  -15.7933  -36.3916 H         1 UNK         0.0600 
    174 H174        2.3426  -17.3730  -39.1469 H         1 UNK         0.3000 
    175 H175       -0.0706  -18.6005  -39.3187 H         1 UNK         0.0600 
    176 H176       -1.2862  -16.9134  -41.5691 H         1 UNK         0.0600 
    177 H177       -1.6091  -18.6269  -41.3034 H         1 UNK         0.0600 
    178 H178       -2.0933  -17.4424  -40.1019 H         1 UNK         0.0600 
    179 H179        1.3796  -19.3285  -40.8274 H         1 UNK         0.3000 
    180 H180        3.3397  -18.9896  -42.1922 H         1 UNK         0.0600 
    181 H181        2.7445  -20.2602  -44.2505 H         1 UNK         0.0600 
    182 H182        1.2544  -19.3411  -44.4152 H         1 UNK         0.0600 
    183 H183        1.4877  -20.4094  -43.0375 H         1 UNK         0.0600 
    184 H184        2.8691  -17.4780  -44.6978 H         1 UNK         0.3000 
    185 H185        5.3564  -15.1462  -44.1293 H         1 UNK         0.0600 
    186 H186        6.1611  -17.7036  -45.6103 H         1 UNK         0.0600 
    187 H187        6.8638  -16.1053  -45.8554 H         1 UNK         0.0600 
    188 H188        7.0747  -16.9305  -44.3193 H         1 UNK         0.0600 
    189 H189        4.1604  -16.5588  -46.4588 H         1 UNK         0.3000 
    190 H190       -1.8751  -20.7305  -46.3405 H         1 UNK         0.3000 
    191 H191       -3.0622  -22.3875  -44.1451 H         1 UNK         0.0600 
    192 H192       -0.8315  -20.3149  -43.8874 H         1 UNK         0.0600 
    193 H193       -2.4418  -20.2011  -43.1800 H         1 UNK         0.0600 
    194 H194       -1.3242  -21.4399  -42.6279 H         1 UNK         0.0600 
    195 H195       -0.1322  -21.5943  -46.1052 H         1 UNK         0.3000 
    196 H196        1.4499  -23.7099  -45.1514 H         1 UNK         0.0600 
    197 H197        1.6505  -22.1851  -47.8019 H         1 UNK         0.0600 
    198 H198        2.3084  -21.6400  -46.2608 H         1 UNK         0.0600 
    199 H199        2.9444  -23.0875  -47.0262 H         1 UNK         0.0600 
    200 H200       -0.9819  -23.7394  -47.6958 H         1 UNK         0.3000 
    201 H201       -0.3672  -26.6026  -48.3148 H         1 UNK         0.0600 
    202 H202       -1.5570  -24.4898  -50.1914 H         1 UNK         0.0600 
    203 H203       -1.2109  -26.1673  -50.5866 H         1 UNK         0.0600 
    204 H204        0.1096  -25.0579  -50.2600 H         1 UNK         0.0600 
    205 H205       -2.1275  -25.0803  -46.2613 H         1 UNK         0.3000 
    206 H206       -4.1412  -25.0936  -45.3386 H         1 UNK         0.0600 
    207 H207       -3.5371  -27.5167  -45.1284 H         1 UNK         0.0600 
    208 H208       -5.2750  -27.2855  -45.2037 H         1 UNK         0.0600 
    209 H209       -4.4090  -27.8655  -46.6207 H         1 UNK         0.0600 
    210 H210       -4.0297  -23.8455  -47.9349 H         1 UNK         0.3000 
    211 H211       -5.2304  -22.7659  -49.3753 H         1 UNK         0.0600 
    212 H212       -7.6079  -22.3088  -49.0739 H         1 UNK         0.0600 
    213 H213       -6.8620  -22.3390  -47.4849 H         1 UNK         0.0600 
    214 H214       -7.8155  -23.7127  -48.0395 H         1 UNK         0.0600 
    215 H215       -4.7672  -25.8859  -49.6400 H         1 UNK         0.3000 
    216 H216       -6.6497  -26.6705  -51.6731 H         1 UNK         0.0600 
    217 H217       -3.8367  -27.7452  -51.1086 H         1 UNK         0.0600 
    218 H218       -5.1026  -28.5507  -52.0234 H         1 UNK         0.0600 
    219 H219       -5.3058  -28.2876  -50.2973 H         1 UNK         0.0600 
    220 H220       -3.6399  -24.8600  -51.6958 H         1 UNK         0.3000 
    221 H221       -3.6265  -24.6766  -54.6804 H         1 UNK         0.0600 
    222 H222       -1.5484  -25.5736  -53.6620 H         1 UNK         0.0600 
    223 H223       -1.3891  -24.1359  -52.6614 H         1 UNK         0.0600 
    224 H224       -1.2597  -24.0135  -54.4099 H         1 UNK         0.0600 
    225 H225       -5.2145  -23.0633  -52.4127 H         1 UNK         0.3000 
    226 H226       -4.3120  -20.3574  -52.6286 H         1 UNK         0.0600 
    227 H227       -7.0638  -21.4941  -51.9223 H         1 UNK         0.0600 
    228 H228       -5.7811  -21.0386  -50.7962 H         1 UNK         0.0600 
    229 H229       -6.5935  -19.8091  -51.7404 H         1 UNK         0.0600 
    230 H230       -6.3664  -22.3440  -54.6937 H         1 UNK         0.3000 
    231 H231       -7.3816  -20.2643  -56.3877 H         1 UNK         0.0600 
    232 H232       -6.9798  -23.2633  -56.8943 H         1 UNK         0.0600 
    233 H233       -7.9447  -22.1804  -57.8906 H         1 UNK         0.0600 
    234 H234       -8.4320  -22.5086  -56.2357 H         1 UNK         0.0600 
    235 H235       -4.3000  -21.9879  -56.2789 H         1 UNK         0.3000 
    236 H236       -3.4116  -21.0400  -58.9200 H         1 UNK         0.0600 
    237 H237       -2.6786  -23.2770  -58.0909 H         1 UNK         0.0600 
    238 H238       -1.3145  -22.1993  -58.3429 H         1 UNK         0.0600 
    239 H239       -1.8830  -22.5191  -56.7126 H         1 UNK         0.0600 
    240 H240       -2.9818  -20.3016  -55.4600 H         1 UNK         0.3000 
    241 H241       -1.1121  -18.1928  -55.7374 H         1 UNK         0.0600 
    242 H242       -4.8153  -16.3801  -56.2533 H         1 UNK         0.3800 
    243 H243       -4.7665  -17.9763  -55.5372 H         1 UNK         0.3800 
    244 H244       -1.9067  -19.4660  -53.5869 H         1 UNK         0.0800 
    245 H245       -3.1750  -18.2829  -53.4753 H         1 UNK         0.0800 
    246 H246       -2.8732  -15.8656  -53.3667 H         1 UNK         0.0800 
    247 H247       -1.3888  -14.9900  -53.1457 H         1 UNK         0.0800 
@<TRIPOS>BOND
     1    1    2 1    
     2    1  127 1    
     3    1  128 1    
     4    1  129 1    
     5    2    3 2    
     6    2    4 am   BACKBONE|DICT|INTERRES
     7    4    5 1    
     8    4  130 1    
     9    5    6 1    
    10    5   65 1    
    11    5  131 1    
    12    6    7 1    
    13    6  132 1    
    14    6  133 1    
    15    7    8 1    
    16    8    9 1    
    17    8  134 1    
    18    8  135 1    
    19    9   10 ar   
    20    9   14 ar   
    21   10   11 ar   
    22   10  136 1    
    23   11   12 ar   
    24   11  126 1    
    25   12   13 ar   
    26   12  137 1    
    27   13   14 ar   
    28   13   15 1    
    29   14  138 1    
    30   15   16 1    
    31   15  139 1    
    32   15  140 1    
    33   16   17 1    
    34   17   18 1    
    35   17  141 1    
    36   17  142 1    
    37   18   19 1    
    38   18   67 1    
    39   18  143 1    
    40   19   20 am   BACKBONE|DICT|INTERRES
    41   19  144 1    
    42   20   21 2    
    43   20   22 1    
    44   22   23 1    
    45   22   24 1    
    46   22  145 1    
    47   23  146 1    
    48   23  147 1    
    49   23  148 1    
    50   24   25 am   BACKBONE|DICT|INTERRES
    51   24  149 1    
    52   25   26 2    
    53   25   27 1    
    54   27   28 1    
    55   27   29 1    
    56   27  150 1    
    57   28  151 1    
    58   28  152 1    
    59   28  153 1    
    60   29   30 am   BACKBONE|DICT|INTERRES
    61   29  154 1    
    62   30   31 2    
    63   30   32 1    
    64   32   33 1    
    65   32   34 1    
    66   32  155 1    
    67   33  156 1    
    68   33  157 1    
    69   33  158 1    
    70   34   35 am   BACKBONE|DICT|INTERRES
    71   34  159 1    
    72   35   36 2    
    73   35   37 1    
    74   37   38 1    
    75   37   39 1    
    76   37  160 1    
    77   38  161 1    
    78   38  162 1    
    79   38  163 1    
    80   39   40 am   BACKBONE|DICT|INTERRES
    81   39  164 1    
    82   40   41 2    
    83   40   42 1    
    84   42   43 1    
    85   42   44 1    
    86   42  165 1    
    87   43  166 1    
    88   43  167 1    
    89   43  168 1    
    90   44   45 am   BACKBONE|DICT|INTERRES
    91   44  169 1    
    92   45   46 2    
    93   45   47 1    
    94   47   48 1    
    95   47   49 1    
    96   47  170 1    
    97   48  171 1    
    98   48  172 1    
    99   48  173 1    
   100   49   50 am   BACKBONE|DICT|INTERRES
   101   49  174 1    
   102   50   51 2    
   103   50   52 1    
   104   52   53 1    
   105   52   54 1    
   106   52  175 1    
   107   53  176 1    
   108   53  177 1    
   109   53  178 1    
   110   54   55 am   BACKBONE|DICT|INTERRES
   111   54  179 1    
   112   55   56 2    
   113   55   57 1    
   114   57   58 1    
   115   57   59 1    
   116   57  180 1    
   117   58  181 1    
   118   58  182 1    
   119   58  183 1    
   120   59   60 am   BACKBONE|DICT|INTERRES
   121   59  184 1    
   122   60   61 2    
   123   60   62 1    
   124   62   63 1    
   125   62   64 1    
   126   62  185 1    
   127   63  186 1    
   128   63  187 1    
   129   63  188 1    
   130   64   65 am   BACKBONE|DICT|INTERRES
   131   64  189 1    
   132   65   66 2    
   133   67   68 2    
   134   67   69 am   BACKBONE|DICT|INTERRES
   135   69   70 1    
   136   69  190 1    
   137   70   71 1    
   138   70   72 1    
   139   70  191 1    
   140   71  192 1    
   141   71  193 1    
   142   71  194 1    
   143   72   73 2    
   144   72   74 am   BACKBONE|DICT|INTERRES
   145   74   75 1    
   146   74  195 1    
   147   75   76 1    
   148   75   77 1    
   149   75  196 1    
   150   76  197 1    
   151   76  198 1    
   152   76  199 1    
   153   77   78 2    
   154   77   79 am   BACKBONE|DICT|INTERRES
   155   79   80 1    
   156   79  200 1    
   157   80   81 1    
   158   80   82 1    
   159   80  201 1    
   160   81  202 1    
   161   81  203 1    
   162   81  204 1    
   163   82   83 2    
   164   82   84 am   BACKBONE|DICT|INTERRES
   165   84   85 1    
   166   84  205 1    
   167   85   86 1    
   168   85   87 1    
   169   85  206 1    
   170   86  207 1    
   171   86  208 1    
   172   86  209 1    
   173   87   88 2    
   174   87   89 am   BACKBONE|DICT|INTERRES
   175   89   90 1    
   176   89  210 1    
   177   90   91 1    
   178   90   92 1    
   179   90  211 1    
   180   91  212 1    
   181   91  213 1    
   182   91  214 1    
   183   92   93 2    
   184   92   94 am   BACKBONE|DICT|INTERRES
   185   94   95 1    
   186   94  215 1    
   187   95   96 1    
   188   95   97 1    
   189   95  216 1    
   190   96  217 1    
   191   96  218 1    
   192   96  219 1    
   193   97   98 2    
   194   97   99 am   BACKBONE|DICT|INTERRES
   195   99  100 1    
   196   99  220 1    
   197  100  101 1    
   198  100  102 1    
   199  100  221 1    
   200  101  222 1    
   201  101  223 1    
   202  101  224 1    
   203  102  103 2    
   204  102  104 am   BACKBONE|DICT|INTERRES
   205  104  105 1    
   206  104  225 1    
   207  105  106 1    
   208  105  107 1    
   209  105  226 1    
   210  106  227 1    
   211  106  228 1    
   212  106  229 1    
   213  107  108 2    
   214  107  109 am   BACKBONE|DICT|INTERRES
   215  109  110 1    
   216  109  230 1    
   217  110  111 1    
   218  110  112 1    
   219  110  231 1    
   220  111  232 1    
   221  111  233 1    
   222  111  234 1    
   223  112  113 2    
   224  112  114 am   BACKBONE|DICT|INTERRES
   225  114  115 1    
   226  114  235 1    
   227  115  116 1    
   228  115  117 1    
   229  115  236 1    
   230  116  237 1    
   231  116  238 1    
   232  116  239 1    
   233  117  118 2    
   234  117  119 am   BACKBONE|DICT|INTERRES
   235  119  120 1    
   236  119  240 1    
   237  120  121 1    
   238  120  124 1    
   239  120  241 1    
   240  121  122 am   BACKBONE|DICT|INTERRES
   241  121  123 2    
   242  122  242 1    
   243  122  243 1    
   244  124  125 1    
   245  124  244 1    
   246  124  245 1    
   247  125  126 1    
   248  126  246 1    
   249  126  247 1    
@<TRIPOS>SUBSTRUCTURE
     1 UNK         1 GROUP             0       ****    0 ROOT    
