@<TRIPOS>MOLECULE
3R540
247   249    1
SMALL
USER_CHARGES


@<TRIPOS>ATOM
      1 CA         -0.9372  -12.9051  -49.2523 C.3       0 UNK        -0.1800 
      2 C          -1.6512  -11.6670  -49.7937 C.2       0 UNK         0.5000 
      3 O          -0.9992  -10.7970  -50.3668 O.2       0 UNK        -0.5000 
      4 N          -2.9774  -11.5374  -49.6444 N.am      1 UNK        -0.5000 
      5 CA         -3.8808  -12.4771  -48.9630 C.3       1 UNK         0.1400 
      6 C6         -5.3444  -12.3566  -49.4548 C.3       23 UNK        -0.0398 
      7 S7         -5.5030  -12.5096  -51.2682 S.3       23 UNK        -0.2404 
      8 C8         -5.8333  -14.2890  -51.4751 C.3       23 UNK        -0.0205 
      9 C9         -4.6364  -15.1480  -51.0916 C.ar      23 UNK        -0.0193 
     10 C10        -3.4773  -15.1280  -51.8720 C.ar      23 UNK        -0.1150 
     11 C11        -2.3829  -15.9279  -51.5350 C.ar      23 UNK        -0.0193 
     12 C12        -2.4524  -16.7534  -50.4090 C.ar      23 UNK        -0.1150 
     13 C13        -3.6037  -16.7801  -49.6119 C.ar      23 UNK        -0.0193 
     14 C14        -4.6913  -15.9743  -49.9652 C.ar      23 UNK        -0.1150 
     15 C15        -3.7398  -17.7077  -48.4060 C.3       23 UNK        -0.0205 
     16 S16        -2.1770  -18.1262  -47.5579 S.3       23 UNK        -0.2404 
     17 C17        -2.7771  -19.4010  -46.4012 C.3       23 UNK        -0.0398 
     18 CA         -2.3919  -20.8394  -46.8304 C.3       11 UNK         0.1400 
     19 N          -0.9664  -21.1351  -46.6449 N.am      11 UNK        -0.5000 
     20 C          -0.3671  -22.2890  -46.9788 C.2       10 UNK         0.5000 
     21 O          -0.9374  -23.2149  -47.5531 O.2       10 UNK        -0.5000 
     22 CA          1.0936  -22.4785  -46.5324 C.3       10 UNK         0.1400 
     23 CB          2.0654  -21.7559  -47.4778 C.3       10 UNK        -0.1800 
     24 N           1.3089  -22.0494  -45.1490 N.am      10 UNK        -0.5000 
     25 C           0.7243  -22.6185  -44.0835 C.2       9 UNK         0.5000 
     26 O           0.0023  -23.6126  -44.1508 O.2       9 UNK        -0.5000 
     27 CA          0.9273  -21.9320  -42.7213 C.3       9 UNK         0.1400 
     28 CB          2.2525  -22.3576  -42.0719 C.3       9 UNK        -0.1800 
     29 N           0.8647  -20.4746  -42.8310 N.am      9 UNK        -0.5000 
     30 C          -0.2551  -19.7910  -43.1086 C.2       8 UNK         0.5000 
     31 O          -1.3613  -20.3161  -43.2352 O.2       8 UNK        -0.5000 
     32 CA         -0.1059  -18.2743  -43.3311 C.3       8 UNK         0.1400 
     33 CB         -0.2238  -17.5147  -42.0024 C.3       8 UNK        -0.1800 
     34 N           1.1519  -17.9169  -43.9891 N.am      8 UNK        -0.5000 
     35 C           1.4892  -18.2920  -45.2309 C.2       7 UNK         0.5000 
     36 O           0.7551  -18.9561  -45.9585 O.2       7 UNK        -0.5000 
     37 CA          2.9022  -17.9189  -45.7141 C.3       7 UNK         0.1400 
     38 CB          2.9607  -16.4618  -46.1961 C.3       7 UNK        -0.1800 
     39 N           3.9148  -18.1384  -44.6805 N.am      7 UNK        -0.5000 
     40 C           4.2343  -19.3319  -44.1643 C.2       6 UNK         0.5000 
     41 O           3.7328  -20.3866  -44.5533 O.2       6 UNK        -0.5000 
     42 CA          5.2279  -19.3637  -42.9842 C.3       6 UNK         0.1400 
     43 CB          6.6871  -19.4010  -43.4766 C.3       6 UNK        -0.1800 
     44 N           5.0037  -18.3059  -41.9860 N.am      6 UNK        -0.5000 
     45 C           5.1920  -16.9854  -42.1115 C.2       5 UNK         0.5000 
     46 O           5.6883  -16.4488  -43.1051 O.2       5 UNK        -0.5000 
     47 CA          4.6939  -16.1134  -40.9407 C.3       5 UNK         0.1400 
     48 CB          5.8507  -15.7811  -39.9865 C.3       5 UNK        -0.1800 
     49 N           4.0763  -14.8649  -41.3984 N.am      5 UNK        -0.5000 
     50 C           3.0498  -14.7806  -42.2566 C.2       4 UNK         0.5000 
     51 O           2.4558  -15.7694  -42.6940 O.2       4 UNK        -0.5000 
     52 CA          2.6384  -13.3630  -42.7075 C.3       4 UNK         0.1400 
     53 CB          3.8589  -12.5083  -43.0991 C.3       4 UNK        -0.1800 
     54 N           1.7376  -13.4190  -43.8586 N.am      4 UNK        -0.5000 
     55 C           0.4034  -13.4898  -43.8005 C.2       3 UNK         0.5000 
     56 O          -0.2505  -13.4577  -42.7550 O.2       3 UNK        -0.5000 
     57 CA         -0.3135  -13.6430  -45.1555 C.3       3 UNK         0.1400 
     58 CB         -0.6675  -15.1108  -45.4285 C.3       3 UNK        -0.1800 
     59 N          -1.5359  -12.8519  -45.2516 N.am      3 UNK        -0.5000 
     60 C          -1.6066  -11.5165  -45.2408 C.2       2 UNK         0.5000 
     61 O          -0.6314  -10.7766  -45.0977 O.2       2 UNK        -0.5000 
     62 CA         -2.9994  -10.9265  -45.5396 C.3       2 UNK         0.1400 
     63 CB         -3.0755   -9.4123  -45.2743 C.3       2 UNK        -0.1800 
     64 N          -3.3439  -11.1797  -46.9393 N.am      2 UNK        -0.5000 
     65 C          -3.8112  -12.3377  -47.4280 C.2       1 UNK         0.5000 
     66 O          -4.1310  -13.2912  -46.7174 O.2       1 UNK        -0.5000 
     67 C          -3.2918  -21.8666  -46.1165 C.2       11 UNK         0.5000 
     68 O          -4.2182  -22.3841  -46.7413 O.2       11 UNK        -0.5000 
     69 N          -2.9934  -22.1619  -44.8434 N.am      12 UNK        -0.5000 
     70 CA         -3.7168  -23.1412  -44.0318 C.3       12 UNK         0.1400 
     71 CB         -3.2239  -23.0759  -42.5784 C.3       12 UNK        -0.1800 
     72 C          -3.6141  -24.5743  -44.5850 C.2       12 UNK         0.5000 
     73 O          -4.6335  -25.2584  -44.6778 O.2       12 UNK        -0.5000 
     74 N          -2.3998  -24.9886  -44.9736 N.am      13 UNK        -0.5000 
     75 CA         -2.1137  -26.2986  -45.5634 C.3       13 UNK         0.1400 
     76 CB         -0.5930  -26.4880  -45.6717 C.3       13 UNK        -0.1800 
     77 C          -2.7831  -26.5024  -46.9351 C.2       13 UNK         0.5000 
     78 O          -3.2916  -27.5897  -47.2106 O.2       13 UNK        -0.5000 
     79 N          -2.7879  -25.4476  -47.7591 N.am      14 UNK        -0.5000 
     80 CA         -3.4164  -25.4182  -49.0791 C.3       14 UNK         0.1400 
     81 CB         -2.8356  -24.2316  -49.8596 C.3       14 UNK        -0.1800 
     82 C          -4.9503  -25.2930  -49.0359 C.2       14 UNK         0.5000 
     83 O          -5.5900  -25.4955  -50.0671 O.2       14 UNK        -0.5000 
     84 N          -5.5063  -24.8970  -47.8809 N.am      15 UNK        -0.5000 
     85 CA         -6.8987  -24.4799  -47.6731 C.3       15 UNK         0.1400 
     86 CB         -7.8686  -25.6676  -47.8423 C.3       15 UNK        -0.1800 
     87 C          -7.2632  -23.2580  -48.5472 C.2       15 UNK         0.5000 
     88 O          -8.3467  -23.2016  -49.1309 O.2       15 UNK        -0.5000 
     89 N          -6.3122  -22.3162  -48.6311 N.am      16 UNK        -0.5000 
     90 CA         -6.3241  -21.0709  -49.4027 C.3       16 UNK         0.1400 
     91 CB         -7.4016  -20.1050  -48.8700 C.3       16 UNK        -0.1800 
     92 C          -6.3839  -21.2493  -50.9367 C.2       16 UNK         0.5000 
     93 O          -6.7117  -20.2927  -51.6405 O.2       16 UNK        -0.5000 
     94 N          -6.0383  -22.4416  -51.4457 N.am      17 UNK        -0.5000 
     95 CA         -5.8874  -22.7131  -52.8754 C.3       17 UNK         0.1400 
     96 CB         -5.8656  -24.2314  -53.1116 C.3       17 UNK        -0.1800 
     97 C          -4.5999  -22.0520  -53.3953 C.2       17 UNK         0.5000 
     98 O          -3.5091  -22.5309  -53.0784 O.2       17 UNK        -0.5000 
     99 N          -4.7483  -20.9557  -54.1527 N.am      18 UNK        -0.5000 
    100 CA        -3.6826  -20.0487  -54.6024 C.3       18 UNK         0.1400 
    101 CB        -4.2872  -18.9862  -55.5319 C.3       18 UNK        -0.1800 
    102 C         -2.4752  -20.7266  -55.2777 C.2       18 UNK         0.5000 
    103 O         -1.3435  -20.2846  -55.0817 O.2       18 UNK        -0.5000 
    104 N         -2.7324  -21.8151  -56.0158 N.am      19 UNK        -0.5000 
    105 CA        -1.7251  -22.6390  -56.6883 C.3       19 UNK         0.1400 
    106 CB        -2.4406  -23.7205  -57.5124 C.3       19 UNK        -0.1800 
    107 C         -0.6920  -23.2826  -55.7391 C.2       19 UNK         0.5000 
    108 O          0.4257  -23.5618  -56.1755 O.2       19 UNK        -0.5000 
    109 N         -1.0748  -23.4970  -54.4736 N.am      20 UNK        -0.5000 
    110 CA        -0.2051  -23.9999  -53.4128 C.3       20 UNK         0.1400 
    111 CB        -0.8448  -25.2492  -52.7876 C.3       20 UNK        -0.1800 
    112 C          0.0573  -22.9194  -52.3502 C.2       20 UNK         0.5000 
    113 O          1.1969  -22.7808  -51.9038 O.2       20 UNK        -0.5000 
    114 N         -0.9844  -22.1608  -51.9767 N.am      21 UNK        -0.5000 
    115 CA        -0.9595  -21.1402  -50.9257 C.3       21 UNK         0.1400 
    116 CB        -2.3722  -20.5657  -50.7399 C.3       21 UNK        -0.1800 
    117 C          0.0340  -19.9965  -51.1878 C.2       21 UNK         0.5000 
    118 O          0.6663  -19.5189  -50.2461 O.2       21 UNK        -0.5000 
    119 N          0.1584  -19.5892  -52.4567 N.am      22 UNK        -0.5000 
    120 CA         1.0643  -18.5176  -52.8974 C.3       22 UNK         0.1400 
    121 C          2.4907  -19.0202  -53.2702 C.2       22 UNK         0.5000 
    122 N          2.8225  -20.2949  -53.0938 N.am      22 UNK        -0.7600 
    123 O          3.3225  -18.2352  -53.7173 O.2       22 UNK        -0.5000 
    124 C124        0.4461  -17.6424  -54.0243 C.3       23 UNK        -0.0398 
    125 S125       -1.2898  -17.1491  -53.7298 S.3       23 UNK        -0.2404 
    126 C126       -1.1330  -15.9226  -52.3983 C.3       23 UNK        -0.0205 
    127 H127        0.1354  -12.8380  -49.4349 H         1 UNK         0.0600 
    128 H128       -1.2998  -13.8074  -49.7439 H         1 UNK         0.0600 
    129 H129       -1.0823  -13.0076  -48.1780 H         1 UNK         0.0600 
    130 H130       -3.4289  -10.7291  -50.0483 H         1 UNK         0.3000 
    131 H131       -3.5476  -13.4897  -49.1885 H         1 UNK         0.0600 
    132 H132       -5.7636  -11.3909  -49.1670 H         1 UNK         0.0800 
    133 H133       -5.9728  -13.1123  -48.9795 H         1 UNK         0.0800 
    134 H134       -6.0839  -14.4797  -52.5195 H         1 UNK         0.0800 
    135 H135       -6.7161  -14.5642  -50.8959 H         1 UNK         0.0800 
    136 H136       -3.4314  -14.4947  -52.7469 H         1 UNK         0.1150 
    137 H137       -1.6099  -17.3863  -50.1695 H         1 UNK         0.1150 
    138 H138       -5.5906  -15.9988  -49.3656 H         1 UNK         0.1150 
    139 H139       -4.4109  -17.2578  -47.6724 H         1 UNK         0.0800 
    140 H140       -4.2176  -18.6261  -48.7444 H         1 UNK         0.0800 
    141 H141       -3.8602  -19.2962  -46.3099 H         1 UNK         0.0800 
    142 H142       -2.3799  -19.1787  -45.4118 H         1 UNK         0.0800 
    143 H143       -2.6007  -20.9453  -47.8951 H         1 UNK         0.0600 
    144 H144       -0.3973  -20.3923  -46.2439 H         1 UNK         0.3000 
    145 H145        1.3167  -23.5463  -46.5811 H         1 UNK         0.0600 
    146 H146        3.1007  -21.9097  -47.1735 H         1 UNK         0.0600 
    147 H147        1.9641  -22.1317  -48.4970 H         1 UNK         0.0600 
    148 H148        1.8826  -20.6827  -47.5123 H         1 UNK         0.0600 
    149 H149        1.9244  -21.2563  -45.0057 H         1 UNK         0.3000 
    150 H150        0.1170  -22.2540  -42.0638 H         1 UNK         0.0600 
    151 H151        2.2761  -23.4370  -41.9168 H         1 UNK         0.0600 
    152 H152        2.3844  -21.8871  -41.0975 H         1 UNK         0.0600 
    153 H153        3.1126  -22.1010  -42.6889 H         1 UNK         0.0600 
    154 H154        1.7372  -19.9712  -42.7850 H         1 UNK         0.3000 
    155 H155       -0.9235  -17.9521  -43.9780 H         1 UNK         0.0600 
    156 H156        0.6030  -17.7480  -41.3304 H         1 UNK         0.0600 
    157 H157       -1.1513  -17.7671  -41.4870 H         1 UNK         0.0600 
    158 H158       -0.2271  -16.4367  -42.1663 H         1 UNK         0.0600 
    159 H159        1.7760  -17.2991  -43.4737 H         1 UNK         0.3000 
    160 H160        3.1422  -18.5651  -46.5610 H         1 UNK         0.0600 
    161 H161        2.7741  -15.7600  -45.3840 H         1 UNK         0.0600 
    162 H162        2.2161  -16.2772  -46.9715 H         1 UNK         0.0600 
    163 H163        3.9370  -16.2279  -46.6207 H         1 UNK         0.0600 
    164 H164        4.3768  -17.3201  -44.2966 H         1 UNK         0.3000 
    165 H165        5.0458  -20.3008  -42.4556 H         1 UNK         0.0600 
    166 H166        6.9436  -18.5257  -44.0735 H         1 UNK         0.0600 
    167 H167        7.3844  -19.4546  -42.6406 H         1 UNK         0.0600 
    168 H168        6.8603  -20.2781  -44.1013 H         1 UNK         0.0600 
    169 H169        4.5809  -18.6309  -41.1275 H         1 UNK         0.3000 
    170 H170        3.9341  -16.6694  -40.3876 H         1 UNK         0.0600 
    171 H171        6.6264  -15.1975  -40.4841 H         1 UNK         0.0600 
    172 H172        5.5018  -15.2118  -39.1248 H         1 UNK         0.0600 
    173 H173        6.3177  -16.6906  -39.6062 H         1 UNK         0.0600 
    174 H174        4.5290  -14.0127  -41.1037 H         1 UNK         0.3000 
    175 H175        2.1321  -12.8807  -41.8690 H         1 UNK         0.0600 
    176 H176        4.4649  -12.9983  -43.8626 H         1 UNK         0.0600 
    177 H177        3.5499  -11.5387  -43.4905 H         1 UNK         0.0600 
    178 H178        4.5029  -12.3106  -42.2419 H         1 UNK         0.0600 
    179 H179        2.1870  -13.4863  -44.7593 H         1 UNK         0.3000 
    180 H180        0.3573  -13.3017  -45.9469 H         1 UNK         0.0600 
    181 H181       -1.1458  -15.2327  -46.4009 H         1 UNK         0.0600 
    182 H182       -1.3397  -15.5123  -44.6694 H         1 UNK         0.0600 
    183 H183        0.2290  -15.7256  -45.4329 H         1 UNK         0.0600 
    184 H184       -2.3940  -13.3667  -45.4070 H         1 UNK         0.3000 
    185 H185       -3.7236  -11.4193  -44.8874 H         1 UNK         0.0600 
    186 H186       -4.0821   -9.0329  -45.4506 H         1 UNK         0.0600 
    187 H187       -2.8197   -9.1850  -44.2387 H         1 UNK         0.0600 
    188 H188       -2.3908   -8.8531  -45.9133 H         1 UNK         0.0600 
    189 H189       -3.0696  -10.4667  -47.6001 H         1 UNK         0.3000 
    190 H190       -2.2391  -21.6609  -44.3834 H         1 UNK         0.3000 
    191 H191       -4.7719  -22.8600  -44.0409 H         1 UNK         0.0600 
    192 H192       -3.7705  -23.7787  -41.9486 H         1 UNK         0.0600 
    193 H193       -3.3695  -22.0808  -42.1577 H         1 UNK         0.0600 
    194 H194       -2.1645  -23.3196  -42.4994 H         1 UNK         0.0600 
    195 H195       -1.6022  -24.3744  -44.8272 H         1 UNK         0.3000 
    196 H196       -2.5042  -27.0618  -44.8872 H         1 UNK         0.0600 
    197 H197       -0.1380  -25.7266  -46.3064 H         1 UNK         0.0600 
    198 H198       -0.1186  -26.4325  -44.6918 H         1 UNK         0.0600 
    199 H199       -0.3484  -27.4619  -46.0975 H         1 UNK         0.0600 
    200 H200       -2.2886  -24.6062  -47.4817 H         1 UNK         0.3000 
    201 H201       -3.1709  -26.3394  -49.6113 H         1 UNK         0.0600 
    202 H202       -3.2883  -24.1414  -50.8469 H         1 UNK         0.0600 
    203 H203       -3.0122  -23.2947  -49.3321 H         1 UNK         0.0600 
    204 H204       -1.7599  -24.3380  -49.9982 H         1 UNK         0.0600 
    205 H205       -4.8844  -24.7312  -47.1002 H         1 UNK         0.3000 
    206 H206       -6.9639  -24.1451  -46.6368 H         1 UNK         0.0600 
    207 H207       -7.5747  -26.5074  -47.2127 H         1 UNK         0.0600 
    208 H208       -8.8821  -25.3856  -47.5551 H         1 UNK         0.0600 
    209 H209       -7.9086  -26.0188  -48.8736 H         1 UNK         0.0600 
    210 H210       -5.4810  -22.4570  -48.0589 H         1 UNK         0.3000 
    211 H211       -5.3552  -20.6115  -49.2088 H         1 UNK         0.0600 
    212 H212       -7.3070  -19.1192  -49.3270 H         1 UNK         0.0600 
    213 H213       -7.3105  -19.9693  -47.7923 H         1 UNK         0.0600 
    214 H214       -8.4081  -20.4676  -49.0798 H         1 UNK         0.0600 
    215 H215       -5.7954  -23.1935  -50.8157 H         1 UNK         0.3000 
    216 H216       -6.7475  -22.3015  -53.4077 H         1 UNK         0.0600 
    217 H217       -5.0180  -24.7087  -52.6185 H         1 UNK         0.0600 
    218 H218       -5.7938  -24.4585  -54.1758 H         1 UNK         0.0600 
    219 H219       -6.7753  -24.7015  -52.7376 H         1 UNK         0.0600 
    220 H220       -5.6897  -20.6363  -54.3312 H         1 UNK         0.3000 
    221 H221       -3.3059  -19.5325  -53.7197 H         1 UNK         0.0600 
    222 H222       -5.0544  -18.4050  -55.0200 H         1 UNK         0.0600 
    223 H223       -4.7378  -19.4353  -56.4178 H         1 UNK         0.0600 
    224 H224       -3.5242  -18.2834  -55.8704 H         1 UNK         0.0600 
    225 H225       -3.6925  -22.1139  -56.1019 H         1 UNK         0.3000 
    226 H226       -1.1757  -21.9916  -57.3747 H         1 UNK         0.0600 
    227 H227       -3.0326  -24.3818  -56.8784 H         1 UNK         0.0600 
    228 H228       -3.1070  -23.2775  -58.2527 H         1 UNK         0.0600 
    229 H229       -1.7230  -24.3394  -58.0528 H         1 UNK         0.0600 
    230 H230       -2.0068  -23.2095  -54.1941 H         1 UNK         0.3000 
    231 H231        0.7668  -24.2929  -53.8151 H         1 UNK         0.0600 
    232 H232       -1.8716  -25.0628  -52.4749 H         1 UNK         0.0600 
    233 H233       -0.2850  -25.5867  -51.9143 H         1 UNK         0.0600 
    234 H234       -0.8636  -26.0733  -53.5007 H         1 UNK         0.0600 
    235 H235       -1.8952  -22.3375  -52.3957 H         1 UNK         0.3000 
    236 H236       -0.6637  -21.6328  -49.9975 H         1 UNK         0.0600 
    237 H237       -2.7180  -20.0524  -51.6346 H         1 UNK         0.0600 
    238 H238       -3.0989  -21.3389  -50.4988 H         1 UNK         0.0600 
    239 H239       -2.3870  -19.8367  -49.9327 H         1 UNK         0.0600 
    240 H240       -0.3915  -20.0288  -53.1860 H         1 UNK         0.3000 
    241 H241        1.2306  -17.8514  -52.0503 H         1 UNK         0.0600 
    242 H242        3.7516  -20.6011  -53.3353 H         1 UNK         0.3800 
    243 H243        2.1661  -20.9537  -52.6954 H         1 UNK         0.3800 
    244 H244        0.4696  -18.1851  -54.9707 H         1 UNK         0.0800 
    245 H245        1.0413  -16.7409  -54.1784 H         1 UNK         0.0800 
    246 H246       -0.2620  -16.1348  -51.7784 H         1 UNK         0.0800 
    247 H247       -0.9702  -14.9344  -52.8309 H         1 UNK         0.0800 
@<TRIPOS>BOND
     1    1    2 1    
     2    1  127 1    
     3    1  128 1    
     4    1  129 1    
     5    2    3 2    
     6    2    4 am   BACKBONE|DICT|INTERRES
     7    4    5 1    
     8    4  130 1    
     9    5    6 1    
    10    5   65 1    
    11    5  131 1    
    12    6    7 1    
    13    6  132 1    
    14    6  133 1    
    15    7    8 1    
    16    8    9 1    
    17    8  134 1    
    18    8  135 1    
    19    9   10 ar   
    20    9   14 ar   
    21   10   11 ar   
    22   10  136 1    
    23   11   12 ar   
    24   11  126 1    
    25   12   13 ar   
    26   12  137 1    
    27   13   14 ar   
    28   13   15 1    
    29   14  138 1    
    30   15   16 1    
    31   15  139 1    
    32   15  140 1    
    33   16   17 1    
    34   17   18 1    
    35   17  141 1    
    36   17  142 1    
    37   18   19 1    
    38   18   67 1    
    39   18  143 1    
    40   19   20 am   BACKBONE|DICT|INTERRES
    41   19  144 1    
    42   20   21 2    
    43   20   22 1    
    44   22   23 1    
    45   22   24 1    
    46   22  145 1    
    47   23  146 1    
    48   23  147 1    
    49   23  148 1    
    50   24   25 am   BACKBONE|DICT|INTERRES
    51   24  149 1    
    52   25   26 2    
    53   25   27 1    
    54   27   28 1    
    55   27   29 1    
    56   27  150 1    
    57   28  151 1    
    58   28  152 1    
    59   28  153 1    
    60   29   30 am   BACKBONE|DICT|INTERRES
    61   29  154 1    
    62   30   31 2    
    63   30   32 1    
    64   32   33 1    
    65   32   34 1    
    66   32  155 1    
    67   33  156 1    
    68   33  157 1    
    69   33  158 1    
    70   34   35 am   BACKBONE|DICT|INTERRES
    71   34  159 1    
    72   35   36 2    
    73   35   37 1    
    74   37   38 1    
    75   37   39 1    
    76   37  160 1    
    77   38  161 1    
    78   38  162 1    
    79   38  163 1    
    80   39   40 am   BACKBONE|DICT|INTERRES
    81   39  164 1    
    82   40   41 2    
    83   40   42 1    
    84   42   43 1    
    85   42   44 1    
    86   42  165 1    
    87   43  166 1    
    88   43  167 1    
    89   43  168 1    
    90   44   45 am   BACKBONE|DICT|INTERRES
    91   44  169 1    
    92   45   46 2    
    93   45   47 1    
    94   47   48 1    
    95   47   49 1    
    96   47  170 1    
    97   48  171 1    
    98   48  172 1    
    99   48  173 1    
   100   49   50 am   BACKBONE|DICT|INTERRES
   101   49  174 1    
   102   50   51 2    
   103   50   52 1    
   104   52   53 1    
   105   52   54 1    
   106   52  175 1    
   107   53  176 1    
   108   53  177 1    
   109   53  178 1    
   110   54   55 am   BACKBONE|DICT|INTERRES
   111   54  179 1    
   112   55   56 2    
   113   55   57 1    
   114   57   58 1    
   115   57   59 1    
   116   57  180 1    
   117   58  181 1    
   118   58  182 1    
   119   58  183 1    
   120   59   60 am   BACKBONE|DICT|INTERRES
   121   59  184 1    
   122   60   61 2    
   123   60   62 1    
   124   62   63 1    
   125   62   64 1    
   126   62  185 1    
   127   63  186 1    
   128   63  187 1    
   129   63  188 1    
   130   64   65 am   BACKBONE|DICT|INTERRES
   131   64  189 1    
   132   65   66 2    
   133   67   68 2    
   134   67   69 am   BACKBONE|DICT|INTERRES
   135   69   70 1    
   136   69  190 1    
   137   70   71 1    
   138   70   72 1    
   139   70  191 1    
   140   71  192 1    
   141   71  193 1    
   142   71  194 1    
   143   72   73 2    
   144   72   74 am   BACKBONE|DICT|INTERRES
   145   74   75 1    
   146   74  195 1    
   147   75   76 1    
   148   75   77 1    
   149   75  196 1    
   150   76  197 1    
   151   76  198 1    
   152   76  199 1    
   153   77   78 2    
   154   77   79 am   BACKBONE|DICT|INTERRES
   155   79   80 1    
   156   79  200 1    
   157   80   81 1    
   158   80   82 1    
   159   80  201 1    
   160   81  202 1    
   161   81  203 1    
   162   81  204 1    
   163   82   83 2    
   164   82   84 am   BACKBONE|DICT|INTERRES
   165   84   85 1    
   166   84  205 1    
   167   85   86 1    
   168   85   87 1    
   169   85  206 1    
   170   86  207 1    
   171   86  208 1    
   172   86  209 1    
   173   87   88 2    
   174   87   89 am   BACKBONE|DICT|INTERRES
   175   89   90 1    
   176   89  210 1    
   177   90   91 1    
   178   90   92 1    
   179   90  211 1    
   180   91  212 1    
   181   91  213 1    
   182   91  214 1    
   183   92   93 2    
   184   92   94 am   BACKBONE|DICT|INTERRES
   185   94   95 1    
   186   94  215 1    
   187   95   96 1    
   188   95   97 1    
   189   95  216 1    
   190   96  217 1    
   191   96  218 1    
   192   96  219 1    
   193   97   98 2    
   194   97   99 am   BACKBONE|DICT|INTERRES
   195   99  100 1    
   196   99  220 1    
   197  100  101 1    
   198  100  102 1    
   199  100  221 1    
   200  101  222 1    
   201  101  223 1    
   202  101  224 1    
   203  102  103 2    
   204  102  104 am   BACKBONE|DICT|INTERRES
   205  104  105 1    
   206  104  225 1    
   207  105  106 1    
   208  105  107 1    
   209  105  226 1    
   210  106  227 1    
   211  106  228 1    
   212  106  229 1    
   213  107  108 2    
   214  107  109 am   BACKBONE|DICT|INTERRES
   215  109  110 1    
   216  109  230 1    
   217  110  111 1    
   218  110  112 1    
   219  110  231 1    
   220  111  232 1    
   221  111  233 1    
   222  111  234 1    
   223  112  113 2    
   224  112  114 am   BACKBONE|DICT|INTERRES
   225  114  115 1    
   226  114  235 1    
   227  115  116 1    
   228  115  117 1    
   229  115  236 1    
   230  116  237 1    
   231  116  238 1    
   232  116  239 1    
   233  117  118 2    
   234  117  119 am   BACKBONE|DICT|INTERRES
   235  119  120 1    
   236  119  240 1    
   237  120  121 1    
   238  120  124 1    
   239  120  241 1    
   240  121  122 am   BACKBONE|DICT|INTERRES
   241  121  123 2    
   242  122  242 1    
   243  122  243 1    
   244  124  125 1    
   245  124  244 1    
   246  124  245 1    
   247  125  126 1    
   248  126  246 1    
   249  126  247 1    
@<TRIPOS>SUBSTRUCTURE
     1 UNK         1 GROUP             0       ****    0 ROOT    
