@<TRIPOS>MOLECULE
3R540
247   249    1
SMALL
USER_CHARGES


@<TRIPOS>ATOM
      1 CA         -0.7892   -8.4881  -52.1249 C.3       0 UNK        -0.1800 
      2 C          -0.2332   -9.0576  -50.8273 C.2       0 UNK         0.5000 
      3 O          -0.2911   -8.3939  -49.7915 O.2       0 UNK        -0.5000 
      4 N           0.3131  -10.2776  -50.8816 N.am      1 UNK        -0.5000 
      5 CA          0.8267  -11.0269  -49.7321 C.3       1 UNK         0.1400 
      6 C6          1.7203  -12.2252  -50.1582 C.3       23 UNK        -0.0398 
      7 S7          1.0372  -13.2590  -51.5067 S.3       23 UNK        -0.2404 
      8 C8          1.5811  -14.9389  -51.0321 C.3       23 UNK        -0.0205 
      9 C9          0.5915  -15.7761  -50.2169 C.ar      23 UNK        -0.0193 
     10 C10        -0.6913  -15.3355  -49.8663 C.ar      23 UNK        -0.1150 
     11 C11        -1.5654  -16.1631  -49.1537 C.ar      23 UNK        -0.0193 
     12 C12        -1.1488  -17.4436  -48.7761 C.ar      23 UNK        -0.1150 
     13 C13         0.1352  -17.8908  -49.0992 C.ar      23 UNK        -0.0193 
     14 C14         0.9874  -17.0588  -49.8287 C.ar      23 UNK        -0.1150 
     15 C15         0.6061  -19.2770  -48.6891 C.3       23 UNK        -0.0205 
     16 S16         1.4240  -19.2937  -47.0639 S.3       23 UNK        -0.2404 
     17 C17         0.0146  -19.4479  -45.9177 C.3       23 UNK        -0.0398 
     18 CA         -0.6018  -20.8786  -45.8878 C.3       11 UNK         0.1400 
     19 N          -0.6292  -21.4424  -44.5319 N.am      11 UNK        -0.5000 
     20 C          -1.0132  -22.6893  -44.2197 C.2       10 UNK         0.5000 
     21 O          -1.3340  -23.5365  -45.0506 O.2       10 UNK        -0.5000 
     22 CA         -1.1164  -23.0296  -42.7238 C.3       10 UNK         0.1400 
     23 CB          0.2466  -23.4558  -42.1588 C.3       10 UNK        -0.1800 
     24 N          -1.6579  -21.9103  -41.9521 N.am      10 UNK        -0.5000 
     25 C          -2.9346  -21.5035  -42.0193 C.2       9 UNK         0.5000 
     26 O          -3.7924  -22.0614  -42.7020 O.2       9 UNK        -0.5000 
     27 CA         -3.3057  -20.2329  -41.2330 C.3       9 UNK         0.1400 
     28 CB         -3.6243  -20.5744  -39.7701 C.3       9 UNK        -0.1800 
     29 N          -2.2557  -19.2152  -41.2773 N.am      9 UNK        -0.5000 
     30 C          -1.8511  -18.5885  -42.3909 C.2       8 UNK         0.5000 
     31 O          -2.3501  -18.7716  -43.5014 O.2       8 UNK        -0.5000 
     32 CA         -0.6390  -17.6513  -42.2503 C.3       8 UNK         0.1400 
     33 CB         -1.0805  -16.2259  -41.8905 C.3       8 UNK        -0.1800 
     34 N           0.3577  -18.1162  -41.2833 N.am      8 UNK        -0.5000 
     35 C           1.0350  -19.2674  -41.3767 C.2       7 UNK         0.5000 
     36 O           0.8503  -20.0862  -42.2795 O.2       7 UNK        -0.5000 
     37 CA          2.0998  -19.5240  -40.2906 C.3       7 UNK         0.1400 
     38 CB          2.6740  -20.9504  -40.3501 C.3       7 UNK        -0.1800 
     39 N           3.2002  -18.5699  -40.4103 N.am      7 UNK        -0.5000 
     40 C           3.1772  -17.2953  -39.9977 C.2       6 UNK         0.5000 
     41 O           2.2352  -16.7983  -39.3781 O.2       6 UNK        -0.5000 
     42 CA          4.3932  -16.4215  -40.3685 C.3       6 UNK         0.1400 
     43 CB          5.4002  -16.3823  -39.2090 C.3       6 UNK        -0.1800 
     44 N           5.0822  -16.8575  -41.5892 N.am      6 UNK        -0.5000 
     45 C           4.5375  -16.8511  -42.8132 C.2       5 UNK         0.5000 
     46 O           3.3895  -16.4678  -43.0485 O.2       5 UNK        -0.5000 
     47 CA          5.4112  -17.3895  -43.9548 C.3       5 UNK         0.1400 
     48 CB          5.5903  -18.9145  -43.8444 C.3       5 UNK        -0.1800 
     49 N           4.7693  -17.0739  -45.2253 N.am      5 UNK        -0.5000 
     50 C           5.3895  -16.8117  -46.3803 C.2       4 UNK         0.5000 
     51 O           6.6148  -16.8139  -46.5074 O.2       4 UNK        -0.5000 
     52 CA          4.5035  -16.5071  -47.6063 C.3       4 UNK         0.1400 
     53 CB          4.6303  -17.6277  -48.6515 C.3       4 UNK        -0.1800 
     54 N           3.0883  -16.3333  -47.2596 N.am      4 UNK        -0.5000 
     55 C           2.5381  -15.1700  -46.8934 C.2       3 UNK         0.5000 
     56 O           3.1491  -14.0972  -46.8778 O.2       3 UNK        -0.5000 
     57 CA          1.0647  -15.2109  -46.4591 C.3       3 UNK         0.1400 
     58 CB          0.9226  -15.8181  -45.0540 C.3       3 UNK        -0.1800 
     59 N           0.5534  -13.8472  -46.4905 N.am      3 UNK        -0.5000 
     60 C          -0.6975  -13.4275  -46.2658 C.2       2 UNK         0.5000 
     61 O          -1.6320  -14.1620  -45.9482 O.2       2 UNK        -0.5000 
     62 CA         -0.9437  -11.9173  -46.4417 C.3       2 UNK         0.1400 
     63 CB         -0.7030  -11.1738  -45.1187 C.3       2 UNK        -0.1800 
     64 N          -0.0775  -11.3523  -47.4793 N.am      2 UNK        -0.5000 
     65 C          -0.3131  -11.4715  -48.7924 C.2       1 UNK         0.5000 
     66 O          -1.3573  -11.9292  -49.2617 O.2       1 UNK        -0.5000 
     67 C          -2.0027  -20.9053  -46.5421 C.2       11 UNK         0.5000 
     68 O          -2.1410  -21.3320  -47.6915 O.2       11 UNK        -0.5000 
     69 N          -3.0164  -20.4806  -45.7750 N.am      12 UNK        -0.5000 
     70 CA         -4.4229  -20.5023  -46.1676 C.3       12 UNK         0.1400 
     71 CB         -5.2518  -19.7001  -45.1541 C.3       12 UNK        -0.1800 
     72 C          -4.9753  -21.9295  -46.3281 C.2       12 UNK         0.5000 
     73 O          -5.6568  -22.1996  -47.3165 O.2       12 UNK        -0.5000 
     74 N          -4.6486  -22.8262  -45.3847 N.am      13 UNK        -0.5000 
     75 CA         -5.0379  -24.2405  -45.4091 C.3       13 UNK         0.1400 
     76 CB         -4.6698  -24.9038  -44.0740 C.3       13 UNK        -0.1800 
     77 C          -4.4218  -25.0190  -46.5869 C.2       13 UNK         0.5000 
     78 O          -5.0922  -25.8722  -47.1689 O.2       13 UNK        -0.5000 
     79 N          -3.1740  -24.6838  -46.9418 N.am      14 UNK        -0.5000 
     80 CA         -2.4681  -25.1929  -48.1190 C.3       14 UNK         0.1400 
     81 CB         -0.9655  -24.9095  -47.9616 C.3       14 UNK        -0.1800 
     82 C          -2.9810  -24.6001  -49.4464 C.2       14 UNK         0.5000 
     83 O          -2.5841  -25.0881  -50.5052 O.2       14 UNK        -0.5000 
     84 N          -3.8161  -23.5518  -49.3739 N.am      15 UNK        -0.5000 
     85 CA         -4.4166  -22.8050  -50.4814 C.3       15 UNK         0.1400 
     86 CB         -5.4949  -23.6564  -51.1796 C.3       15 UNK        -0.1800 
     87 C          -3.3557  -22.2601  -51.4541 C.2       15 UNK         0.5000 
     88 O          -3.4527  -22.4870  -52.6631 O.2       15 UNK        -0.5000 
     89 N          -2.3369  -21.5976  -50.8827 N.am      16 UNK        -0.5000 
     90 CA         -1.1816  -21.0150  -51.5725 C.3       16 UNK         0.1400 
     91 CB         -1.5965  -19.7632  -52.3716 C.3       16 UNK        -0.1800 
     92 C          -0.3888  -22.0554  -52.3908 C.2       16 UNK         0.5000 
     93 O          -0.0438  -21.8106  -53.5471 O.2       16 UNK        -0.5000 
     94 N          -0.1304  -23.2056  -51.7491 N.am      17 UNK        -0.5000 
     95 CA          0.5385  -24.3959  -52.2827 C.3       17 UNK         0.1400 
     96 CB          2.0052  -24.0940  -52.6574 C.3       17 UNK        -0.1800 
     97 C          -0.2687  -25.0466  -53.4238 C.2       17 UNK         0.5000 
     98 O           0.2577  -25.2674  -54.5163 O.2       17 UNK        -0.5000 
     99 N          -1.5428  -25.3404  -53.1270 N.am      18 UNK        -0.5000 
    100 CA        -2.5350  -25.9856  -53.9913 C.3       18 UNK         0.1400 
    101 CB        -2.1337  -27.4452  -54.2915 C.3       18 UNK        -0.1800 
    102 C         -2.8729  -25.1760  -55.2613 C.2       18 UNK         0.5000 
    103 O         -3.1455  -25.7590  -56.3124 O.2       18 UNK        -0.5000 
    104 N         -2.8819  -23.8427  -55.1361 N.am      19 UNK        -0.5000 
    105 CA        -3.3142  -22.9137  -56.1821 C.3       19 UNK         0.1400 
    106 CB        -2.6259  -21.5590  -55.9620 C.3       19 UNK        -0.1800 
    107 C         -4.8454  -22.7362  -56.2079 C.2       19 UNK         0.5000 
    108 O         -5.3678  -22.1920  -57.1813 O.2       19 UNK        -0.5000 
    109 N         -5.5262  -23.1879  -55.1416 N.am      20 UNK        -0.5000 
    110 CA        -6.9695  -23.0906  -54.8952 C.3       20 UNK         0.1400 
    111 CB        -7.7744  -23.8689  -55.9577 C.3       20 UNK        -0.1800 
    112 C         -7.4369  -21.6305  -54.7188 C.2       20 UNK         0.5000 
    113 O         -8.5271  -21.2659  -55.1634 O.2       20 UNK        -0.5000 
    114 N         -6.5966  -20.8219  -54.0644 N.am      21 UNK        -0.5000 
    115 CA        -6.8264  -19.4153  -53.7611 C.3       21 UNK         0.1400 
    116 CB        -6.3112  -18.5526  -54.9263 C.3       21 UNK        -0.1800 
    117 C         -6.0993  -19.0695  -52.4552 C.2       21 UNK         0.5000 
    118 O         -5.1925  -19.7964  -52.0493 O.2       21 UNK        -0.5000 
    119 N         -6.4968  -17.9582  -51.8273 N.am      22 UNK        -0.5000 
    120 CA        -5.8995  -17.4072  -50.5959 C.3       22 UNK         0.1400 
    121 C         -6.1700  -18.2220  -49.2917 C.2       22 UNK         0.5000 
    122 N         -7.0035  -19.2552  -49.3107 N.am      22 UNK        -0.7600 
    123 O         -5.6453  -17.8916  -48.2334 O.2       22 UNK        -0.5000 
    124 C124       -4.3930  -17.0407  -50.7774 C.3       23 UNK        -0.0398 
    125 S125       -4.0121  -15.3497  -50.2110 S.3       23 UNK        -0.2404 
    126 C126       -2.9473  -15.6550  -48.7666 C.3       23 UNK        -0.0205 
    127 H127       -0.6601   -9.1787  -52.9587 H         1 UNK         0.0600 
    128 H128       -1.8538   -8.2804  -52.0175 H         1 UNK         0.0600 
    129 H129       -0.2819   -7.5560  -52.3740 H         1 UNK         0.0600 
    130 H130        0.3018  -10.7919  -51.7513 H         1 UNK         0.3000 
    131 H131        1.4637  -10.3415  -49.1683 H         1 UNK         0.0600 
    132 H132        2.6795  -11.8418  -50.5085 H         1 UNK         0.0800 
    133 H133        1.9591  -12.8525  -49.2973 H         1 UNK         0.0800 
    134 H134        2.5292  -14.8752  -50.4956 H         1 UNK         0.0800 
    135 H135        1.7935  -15.4824  -51.9538 H         1 UNK         0.0800 
    136 H136       -1.0338  -14.3528  -50.1523 H         1 UNK         0.1150 
    137 H137       -1.8205  -18.0869  -48.2251 H         1 UNK         0.1150 
    138 H138        1.9685  -17.4165  -50.1022 H         1 UNK         0.1150 
    139 H139       -0.2288  -19.9727  -48.6888 H         1 UNK         0.0800 
    140 H140        1.3124  -19.6561  -49.4294 H         1 UNK         0.0800 
    141 H141       -0.7187  -18.6694  -46.1363 H         1 UNK         0.0800 
    142 H142        0.4062  -19.1882  -44.9340 H         1 UNK         0.0800 
    143 H143        0.0273  -21.5512  -46.4748 H         1 UNK         0.0600 
    144 H144       -0.3340  -20.8345  -43.7755 H         1 UNK         0.3000 
    145 H145       -1.7990  -23.8749  -42.6168 H         1 UNK         0.0600 
    146 H146        0.1839  -23.6740  -41.0927 H         1 UNK         0.0600 
    147 H147        0.6027  -24.3593  -42.6551 H         1 UNK         0.0600 
    148 H148        1.0066  -22.6887  -42.3033 H         1 UNK         0.0600 
    149 H149       -0.9960  -21.3616  -41.4232 H         1 UNK         0.3000 
    150 H150       -4.2035  -19.8106  -41.6894 H         1 UNK         0.0600 
    151 H151       -4.4184  -21.3198  -39.7081 H         1 UNK         0.0600 
    152 H152       -3.9641  -19.6937  -39.2247 H         1 UNK         0.0600 
    153 H153       -2.7543  -20.9773  -39.2501 H         1 UNK         0.0600 
    154 H154       -1.7834  -19.0056  -40.4102 H         1 UNK         0.3000 
    155 H155       -0.1471  -17.6230  -43.2211 H         1 UNK         0.0600 
    156 H156       -1.5471  -16.1847  -40.9057 H         1 UNK         0.0600 
    157 H157       -1.8025  -15.8462  -42.6150 H         1 UNK         0.0600 
    158 H158       -0.2323  -15.5407  -41.8905 H         1 UNK         0.0600 
    159 H159        0.6134  -17.4767  -40.5393 H         1 UNK         0.3000 
    160 H160        1.6199  -19.3977  -39.3179 H         1 UNK         0.0600 
    161 H161        1.8872  -21.6923  -40.2113 H         1 UNK         0.0600 
    162 H162        3.4105  -21.1116  -39.5627 H         1 UNK         0.0600 
    163 H163        3.1567  -21.1543  -41.3069 H         1 UNK         0.0600 
    164 H164        4.0034  -18.8791  -40.9366 H         1 UNK         0.3000 
    165 H165        4.0252  -15.4071  -40.5362 H         1 UNK         0.0600 
    166 H166        6.2230  -15.7001  -39.4234 H         1 UNK         0.0600 
    167 H167        4.9247  -16.0365  -38.2901 H         1 UNK         0.0600 
    168 H168        5.8227  -17.3678  -39.0091 H         1 UNK         0.0600 
    169 H169        6.0307  -17.1857  -41.4756 H         1 UNK         0.3000 
    170 H170        6.3839  -16.8967  -43.8968 H         1 UNK         0.0600 
    171 H171        6.0898  -19.1900  -42.9151 H         1 UNK         0.0600 
    172 H172        4.6310  -19.4336  -43.8704 H         1 UNK         0.0600 
    173 H173        6.1993  -19.2995  -44.6626 H         1 UNK         0.0600 
    174 H174        3.7651  -16.9715  -45.1680 H         1 UNK         0.3000 
    175 H175        4.8857  -15.5884  -48.0563 H         1 UNK         0.0600 
    176 H176        4.1845  -18.5599  -48.3035 H         1 UNK         0.0600 
    177 H177        4.1494  -17.3472  -49.5871 H         1 UNK         0.0600 
    178 H178        5.6758  -17.8328  -48.8855 H         1 UNK         0.0600 
    179 H179        2.5234  -17.1733  -47.2564 H         1 UNK         0.3000 
    180 H180        0.5049  -15.8115  -47.1732 H         1 UNK         0.0600 
    181 H181        1.3755  -15.1806  -44.2941 H         1 UNK         0.0600 
    182 H182        1.3983  -16.7969  -44.9924 H         1 UNK         0.0600 
    183 H183       -0.1255  -15.9557  -44.7936 H         1 UNK         0.0600 
    184 H184        1.2662  -13.1699  -46.7293 H         1 UNK         0.3000 
    185 H185       -1.9886  -11.7758  -46.7270 H         1 UNK         0.0600 
    186 H186       -1.3495  -11.5630  -44.3309 H         1 UNK         0.0600 
    187 H187        0.3279  -11.2771  -44.7777 H         1 UNK         0.0600 
    188 H188       -0.9192  -10.1101  -45.2196 H         1 UNK         0.0600 
    189 H189        0.7818  -10.9240  -47.1659 H         1 UNK         0.3000 
    190 H190       -2.8073  -20.0919  -44.8597 H         1 UNK         0.3000 
    191 H191       -4.5006  -20.0097  -47.1382 H         1 UNK         0.0600 
    192 H192       -5.1905  -20.1264  -44.1525 H         1 UNK         0.0600 
    193 H193       -6.3037  -19.6782  -45.4414 H         1 UNK         0.0600 
    194 H194       -4.9093  -18.6664  -45.0996 H         1 UNK         0.0600 
    195 H195       -4.1310  -22.5148  -44.5679 H         1 UNK         0.3000 
    196 H196       -6.1234  -24.2824  -45.5192 H         1 UNK         0.0600 
    197 H197       -4.9746  -25.9509  -44.0604 H         1 UNK         0.0600 
    198 H198       -5.1661  -24.4109  -43.2379 H         1 UNK         0.0600 
    199 H199       -3.5954  -24.8724  -43.8936 H         1 UNK         0.0600 
    200 H200       -2.6592  -24.0292  -46.3585 H         1 UNK         0.3000 
    201 H201       -2.6100  -26.2743  -48.1681 H         1 UNK         0.0600 
    202 H202       -0.5699  -25.3764  -47.0594 H         1 UNK         0.0600 
    203 H203       -0.7634  -23.8394  -47.8998 H         1 UNK         0.0600 
    204 H204       -0.3980  -25.3049  -48.8050 H         1 UNK         0.0600 
    205 H205       -4.0690  -23.2180  -48.4524 H         1 UNK         0.3000 
    206 H206       -4.9100  -21.9360  -50.0432 H         1 UNK         0.0600 
    207 H207       -6.2270  -24.0276  -50.4625 H         1 UNK         0.0600 
    208 H208       -6.0351  -23.0593  -51.9133 H         1 UNK         0.0600 
    209 H209       -5.0653  -24.5149  -51.6970 H         1 UNK         0.0600 
    210 H210       -2.3459  -21.5010  -49.8728 H         1 UNK         0.3000 
    211 H211       -0.4938  -20.6835  -50.7996 H         1 UNK         0.0600 
    212 H212       -2.3352  -19.9948  -53.1369 H         1 UNK         0.0600 
    213 H213       -0.7383  -19.3057  -52.8649 H         1 UNK         0.0600 
    214 H214       -2.0291  -19.0092  -51.7141 H         1 UNK         0.0600 
    215 H215       -0.5079  -23.3074  -50.8183 H         1 UNK         0.3000 
    216 H216        0.5564  -25.1244  -51.4705 H         1 UNK         0.0600 
    217 H217        2.0801  -23.4059  -53.4997 H         1 UNK         0.0600 
    218 H218        2.5293  -25.0082  -52.9381 H         1 UNK         0.0600 
    219 H219        2.5442  -23.6560  -51.8174 H         1 UNK         0.0600 
    220 H220       -1.8778  -25.1217  -52.1896 H         1 UNK         0.3000 
    221 H221       -3.4561  -26.0169  -53.4076 H         1 UNK         0.0600 
    222 H222       -1.2485  -27.5003  -54.9258 H         1 UNK         0.0600 
    223 H223       -1.9233  -27.9926  -53.3727 H         1 UNK         0.0600 
    224 H224       -2.9369  -27.9745  -54.8053 H         1 UNK         0.0600 
    225 H225       -2.6988  -23.4322  -54.2245 H         1 UNK         0.3000 
    226 H226       -3.0050  -23.2979  -57.1562 H         1 UNK         0.0600 
    227 H227       -1.5415  -21.6651  -55.9319 H         1 UNK         0.0600 
    228 H228       -2.8640  -20.8632  -56.7673 H         1 UNK         0.0600 
    229 H229       -2.9460  -21.0993  -55.0278 H         1 UNK         0.0600 
    230 H230       -4.9759  -23.5693  -54.3848 H         1 UNK         0.3000 
    231 H231       -7.1489  -23.5819  -53.9387 H         1 UNK         0.0600 
    232 H232       -7.4095  -24.8910  -56.0582 H         1 UNK         0.0600 
    233 H233       -7.7219  -23.3954  -56.9383 H         1 UNK         0.0600 
    234 H234       -8.8279  -23.9271  -55.6820 H         1 UNK         0.0600 
    235 H235       -5.7339  -21.1919  -53.6827 H         1 UNK         0.3000 
    236 H236       -7.8940  -19.2384  -53.6146 H         1 UNK         0.0600 
    237 H237       -6.4663  -17.4910  -54.7306 H         1 UNK         0.0600 
    238 H238       -5.2442  -18.7049  -55.0947 H         1 UNK         0.0600 
    239 H239       -6.8322  -18.7907  -55.8539 H         1 UNK         0.0600 
    240 H240       -7.2598  -17.4226  -52.2165 H         1 UNK         0.3000 
    241 H241       -6.4575  -16.4831  -50.4420 H         1 UNK         0.0600 
    242 H242       -7.4530  -19.5348  -50.1667 H         1 UNK         0.3800 
    243 H243       -7.1737  -19.7703  -48.4622 H         1 UNK         0.3800 
    244 H244       -3.7398  -17.7677  -50.2916 H         1 UNK         0.0800 
    245 H245       -4.1116  -17.0708  -51.8307 H         1 UNK         0.0800 
    246 H246       -2.8342  -14.7146  -48.2271 H         1 UNK         0.0800 
    247 H247       -3.4431  -16.3430  -48.0804 H         1 UNK         0.0800 
@<TRIPOS>BOND
     1    1    2 1    
     2    1  127 1    
     3    1  128 1    
     4    1  129 1    
     5    2    3 2    
     6    2    4 am   BACKBONE|DICT|INTERRES
     7    4    5 1    
     8    4  130 1    
     9    5    6 1    
    10    5   65 1    
    11    5  131 1    
    12    6    7 1    
    13    6  132 1    
    14    6  133 1    
    15    7    8 1    
    16    8    9 1    
    17    8  134 1    
    18    8  135 1    
    19    9   10 ar   
    20    9   14 ar   
    21   10   11 ar   
    22   10  136 1    
    23   11   12 ar   
    24   11  126 1    
    25   12   13 ar   
    26   12  137 1    
    27   13   14 ar   
    28   13   15 1    
    29   14  138 1    
    30   15   16 1    
    31   15  139 1    
    32   15  140 1    
    33   16   17 1    
    34   17   18 1    
    35   17  141 1    
    36   17  142 1    
    37   18   19 1    
    38   18   67 1    
    39   18  143 1    
    40   19   20 am   BACKBONE|DICT|INTERRES
    41   19  144 1    
    42   20   21 2    
    43   20   22 1    
    44   22   23 1    
    45   22   24 1    
    46   22  145 1    
    47   23  146 1    
    48   23  147 1    
    49   23  148 1    
    50   24   25 am   BACKBONE|DICT|INTERRES
    51   24  149 1    
    52   25   26 2    
    53   25   27 1    
    54   27   28 1    
    55   27   29 1    
    56   27  150 1    
    57   28  151 1    
    58   28  152 1    
    59   28  153 1    
    60   29   30 am   BACKBONE|DICT|INTERRES
    61   29  154 1    
    62   30   31 2    
    63   30   32 1    
    64   32   33 1    
    65   32   34 1    
    66   32  155 1    
    67   33  156 1    
    68   33  157 1    
    69   33  158 1    
    70   34   35 am   BACKBONE|DICT|INTERRES
    71   34  159 1    
    72   35   36 2    
    73   35   37 1    
    74   37   38 1    
    75   37   39 1    
    76   37  160 1    
    77   38  161 1    
    78   38  162 1    
    79   38  163 1    
    80   39   40 am   BACKBONE|DICT|INTERRES
    81   39  164 1    
    82   40   41 2    
    83   40   42 1    
    84   42   43 1    
    85   42   44 1    
    86   42  165 1    
    87   43  166 1    
    88   43  167 1    
    89   43  168 1    
    90   44   45 am   BACKBONE|DICT|INTERRES
    91   44  169 1    
    92   45   46 2    
    93   45   47 1    
    94   47   48 1    
    95   47   49 1    
    96   47  170 1    
    97   48  171 1    
    98   48  172 1    
    99   48  173 1    
   100   49   50 am   BACKBONE|DICT|INTERRES
   101   49  174 1    
   102   50   51 2    
   103   50   52 1    
   104   52   53 1    
   105   52   54 1    
   106   52  175 1    
   107   53  176 1    
   108   53  177 1    
   109   53  178 1    
   110   54   55 am   BACKBONE|DICT|INTERRES
   111   54  179 1    
   112   55   56 2    
   113   55   57 1    
   114   57   58 1    
   115   57   59 1    
   116   57  180 1    
   117   58  181 1    
   118   58  182 1    
   119   58  183 1    
   120   59   60 am   BACKBONE|DICT|INTERRES
   121   59  184 1    
   122   60   61 2    
   123   60   62 1    
   124   62   63 1    
   125   62   64 1    
   126   62  185 1    
   127   63  186 1    
   128   63  187 1    
   129   63  188 1    
   130   64   65 am   BACKBONE|DICT|INTERRES
   131   64  189 1    
   132   65   66 2    
   133   67   68 2    
   134   67   69 am   BACKBONE|DICT|INTERRES
   135   69   70 1    
   136   69  190 1    
   137   70   71 1    
   138   70   72 1    
   139   70  191 1    
   140   71  192 1    
   141   71  193 1    
   142   71  194 1    
   143   72   73 2    
   144   72   74 am   BACKBONE|DICT|INTERRES
   145   74   75 1    
   146   74  195 1    
   147   75   76 1    
   148   75   77 1    
   149   75  196 1    
   150   76  197 1    
   151   76  198 1    
   152   76  199 1    
   153   77   78 2    
   154   77   79 am   BACKBONE|DICT|INTERRES
   155   79   80 1    
   156   79  200 1    
   157   80   81 1    
   158   80   82 1    
   159   80  201 1    
   160   81  202 1    
   161   81  203 1    
   162   81  204 1    
   163   82   83 2    
   164   82   84 am   BACKBONE|DICT|INTERRES
   165   84   85 1    
   166   84  205 1    
   167   85   86 1    
   168   85   87 1    
   169   85  206 1    
   170   86  207 1    
   171   86  208 1    
   172   86  209 1    
   173   87   88 2    
   174   87   89 am   BACKBONE|DICT|INTERRES
   175   89   90 1    
   176   89  210 1    
   177   90   91 1    
   178   90   92 1    
   179   90  211 1    
   180   91  212 1    
   181   91  213 1    
   182   91  214 1    
   183   92   93 2    
   184   92   94 am   BACKBONE|DICT|INTERRES
   185   94   95 1    
   186   94  215 1    
   187   95   96 1    
   188   95   97 1    
   189   95  216 1    
   190   96  217 1    
   191   96  218 1    
   192   96  219 1    
   193   97   98 2    
   194   97   99 am   BACKBONE|DICT|INTERRES
   195   99  100 1    
   196   99  220 1    
   197  100  101 1    
   198  100  102 1    
   199  100  221 1    
   200  101  222 1    
   201  101  223 1    
   202  101  224 1    
   203  102  103 2    
   204  102  104 am   BACKBONE|DICT|INTERRES
   205  104  105 1    
   206  104  225 1    
   207  105  106 1    
   208  105  107 1    
   209  105  226 1    
   210  106  227 1    
   211  106  228 1    
   212  106  229 1    
   213  107  108 2    
   214  107  109 am   BACKBONE|DICT|INTERRES
   215  109  110 1    
   216  109  230 1    
   217  110  111 1    
   218  110  112 1    
   219  110  231 1    
   220  111  232 1    
   221  111  233 1    
   222  111  234 1    
   223  112  113 2    
   224  112  114 am   BACKBONE|DICT|INTERRES
   225  114  115 1    
   226  114  235 1    
   227  115  116 1    
   228  115  117 1    
   229  115  236 1    
   230  116  237 1    
   231  116  238 1    
   232  116  239 1    
   233  117  118 2    
   234  117  119 am   BACKBONE|DICT|INTERRES
   235  119  120 1    
   236  119  240 1    
   237  120  121 1    
   238  120  124 1    
   239  120  241 1    
   240  121  122 am   BACKBONE|DICT|INTERRES
   241  121  123 2    
   242  122  242 1    
   243  122  243 1    
   244  124  125 1    
   245  124  244 1    
   246  124  245 1    
   247  125  126 1    
   248  126  246 1    
   249  126  247 1    
@<TRIPOS>SUBSTRUCTURE
     1 UNK         1 GROUP             0       ****    0 ROOT    
