@<TRIPOS>MOLECULE
3R540
247   249    1
SMALL
USER_CHARGES


@<TRIPOS>ATOM
      1 CA         -3.3485  -15.1106  -44.2114 C.3       0 UNK        -0.1800 
      2 C          -2.7087  -14.1039  -45.1571 C.2       0 UNK         0.5000 
      3 O          -3.3943  -13.2223  -45.6761 O.2       0 UNK        -0.5000 
      4 N          -1.3977  -14.2382  -45.3836 N.am      1 UNK        -0.5000 
      5 CA         -0.5889  -13.3429  -46.2184 C.3       1 UNK         0.1400 
      6 C6          0.7589  -13.9945  -46.6141 C.3       23 UNK        -0.0398 
      7 S7          0.5263  -15.5845  -47.4738 S.3       23 UNK        -0.2404 
      8 C8          1.7264  -15.4774  -48.8304 C.3       23 UNK        -0.0205 
      9 C9          1.7791  -16.7891  -49.5977 C.ar      23 UNK        -0.0193 
     10 C10         0.9381  -16.9997  -50.6953 C.ar      23 UNK        -0.1150 
     11 C11         0.9839  -18.2058  -51.4008 C.ar      23 UNK        -0.0193 
     12 C12         1.8802  -19.2013  -51.0046 C.ar      23 UNK        -0.1150 
     13 C13         2.7213  -19.0058  -49.9066 C.ar      23 UNK        -0.0193 
     14 C14         2.6669  -17.7965  -49.2064 C.ar      23 UNK        -0.1150 
     15 C15         3.6975  -20.0984  -49.4940 C.3       23 UNK        -0.0205 
     16 S16         2.8509  -21.5846  -48.8673 S.3       23 UNK        -0.2404 
     17 C17         2.1922  -20.9735  -47.2825 C.3       23 UNK        -0.0398 
     18 CA          0.8800  -21.6761  -46.8595 C.3       11 UNK         0.1400 
     19 N           0.6720  -21.5849  -45.4113 N.am      11 UNK        -0.5000 
     20 C          -0.2628  -22.2525  -44.7219 C.2       10 UNK         0.5000 
     21 O          -1.0275  -23.0723  -45.2285 O.2       10 UNK        -0.5000 
     22 CA         -0.3965  -21.9145  -43.2244 C.3       10 UNK         0.1400 
     23 CB          0.6294  -22.6974  -42.3920 C.3       10 UNK        -0.1800 
     24 N          -0.2610  -20.4810  -42.9574 N.am      10 UNK        -0.5000 
     25 C          -1.1187  -19.5485  -43.3964 C.2       9 UNK         0.5000 
     26 O          -2.1555  -19.8123  -44.0038 O.2       9 UNK        -0.5000 
     27 CA         -0.7282  -18.0739  -43.1800 C.3       9 UNK         0.1400 
     28 CB         -1.1109  -17.5997  -41.7711 C.3       9 UNK        -0.1800 
     29 N           0.6933  -17.8186  -43.4176 N.am      9 UNK        -0.5000 
     30 C           1.3136  -18.0173  -44.5892 C.2       8 UNK         0.5000 
     31 O           0.7377  -18.3990  -45.6050 O.2       8 UNK        -0.5000 
     32 CA          2.8402  -17.8341  -44.6113 C.3       8 UNK         0.1400 
     33 CB          3.2328  -16.3538  -44.7213 C.3       8 UNK        -0.1800 
     34 N           3.4656  -18.4264  -43.4302 N.am      8 UNK        -0.5000 
     35 C           3.5523  -19.7456  -43.2097 C.2       7 UNK         0.5000 
     36 O           3.1435  -20.5975  -43.9980 O.2       7 UNK        -0.5000 
     37 CA          4.1607  -20.1828  -41.8654 C.3       7 UNK         0.1400 
     38 CB          5.6942  -20.2035  -41.9456 C.3       7 UNK        -0.1800 
     39 N           3.7432  -19.3226  -40.7574 N.am      7 UNK        -0.5000 
     40 C           2.4877  -19.2441  -40.2942 C.2       6 UNK         0.5000 
     41 O           1.5543  -19.9161  -40.7315 O.2       6 UNK        -0.5000 
     42 CA          2.2242  -18.2028  -39.1912 C.3       6 UNK         0.1400 
     43 CB          2.5413  -18.7886  -37.8073 C.3       6 UNK        -0.1800 
     44 N           2.9753  -16.9572  -39.3784 N.am      6 UNK        -0.5000 
     45 C           2.8268  -16.1343  -40.4244 C.2       5 UNK         0.5000 
     46 O           2.0742  -16.3635  -41.3739 O.2       5 UNK        -0.5000 
     47 CA          3.7000  -14.8698  -40.4405 C.3       5 UNK         0.1400 
     48 CB          4.9652  -15.1019  -41.2807 C.3       5 UNK        -0.1800 
     49 N           2.9597  -13.7411  -40.9987 N.am      5 UNK        -0.5000 
     50 C           2.0201  -13.0471  -40.3436 C.2       4 UNK         0.5000 
     51 O           1.7281  -13.2576  -39.1647 O.2       4 UNK        -0.5000 
     52 CA          1.2668  -11.9509  -41.1313 C.3       4 UNK         0.1400 
     53 CB          0.9464  -10.7169  -40.2623 C.3       4 UNK        -0.1800 
     54 N           1.9036  -11.5442  -42.3911 N.am      4 UNK        -0.5000 
     55 C           3.0958  -10.9473  -42.5592 C.2       3 UNK         0.5000 
     56 O           3.8705  -10.6874  -41.6384 O.2       3 UNK        -0.5000 
     57 CA          3.5052  -10.5911  -44.0046 C.3       3 UNK         0.1400 
     58 CB          4.4462  -11.6685  -44.5676 C.3       3 UNK        -0.1800 
     59 N           2.3686  -10.4387  -44.9155 N.am      3 UNK        -0.5000 
     60 C           1.4489   -9.4650  -44.8500 C.2       2 UNK         0.5000 
     61 O           1.5192   -8.5121  -44.0732 O.2       2 UNK        -0.5000 
     62 CA          0.2296   -9.5878  -45.7901 C.3       2 UNK         0.1400 
     63 CB          0.3941   -8.6594  -47.0033 C.3       2 UNK        -0.1800 
     64 N          -0.0482  -10.9496  -46.2690 N.am      2 UNK        -0.5000 
     65 C          -0.3333  -12.0055  -45.4932 C.2       1 UNK         0.5000 
     66 O          -0.3339  -11.9633  -44.2599 O.2       1 UNK        -0.5000 
     67 C          -0.3455  -21.1670  -47.6540 C.2       11 UNK         0.5000 
     68 O          -0.7576  -21.8153  -48.6161 O.2       11 UNK        -0.5000 
     69 N          -0.9435  -20.0553  -47.2020 N.am      12 UNK        -0.5000 
     70 CA         -2.1910  -19.5097  -47.7369 C.3       12 UNK         0.1400 
     71 CB         -2.4453  -18.1138  -47.1501 C.3       12 UNK        -0.1800 
     72 C          -3.3965  -20.4335  -47.4848 C.2       12 UNK         0.5000 
     73 O          -4.2023  -20.6338  -48.3917 O.2       12 UNK        -0.5000 
     74 N          -3.4920  -21.0066  -46.2760 N.am      13 UNK        -0.5000 
     75 CA         -4.5349  -21.9633  -45.8925 C.3       13 UNK         0.1400 
     76 CB         -4.4469  -22.2496  -44.3864 C.3       13 UNK        -0.1800 
     77 C          -4.4812  -23.2740  -46.7011 C.2       13 UNK         0.5000 
     78 O          -5.5297  -23.8322  -47.0267 O.2       13 UNK        -0.5000 
     79 N          -3.2666  -23.7154  -47.0575 N.am      14 UNK        -0.5000 
     80 CA         -3.0038  -24.8884  -47.8948 C.3       14 UNK         0.1400 
     81 CB         -1.5023  -25.2121  -47.8641 C.3       14 UNK        -0.1800 
     82 C          -3.5098  -24.7610  -49.3476 C.2       14 UNK         0.5000 
     83 O          -3.6152  -25.7798  -50.0324 O.2       14 UNK        -0.5000 
     84 N          -3.8673  -23.5441  -49.7915 N.am      15 UNK        -0.5000 
     85 CA         -4.4753  -23.2798  -51.0999 C.3       15 UNK         0.1400 
     86 CB         -4.5373  -21.7687  -51.3558 C.3       15 UNK        -0.1800 
     87 C          -5.8690  -23.9137  -51.2846 C.2       15 UNK         0.5000 
     88 O          -6.3196  -24.0478  -52.4240 O.2       15 UNK        -0.5000 
     89 N          -6.4939  -24.3548  -50.1799 N.am      16 UNK        -0.5000 
     90 CA         -7.7210  -25.1572  -50.1257 C.3       16 UNK         0.1400 
     91 CB         -8.0966  -25.3838  -48.6538 C.3       16 UNK        -0.1800 
     92 C          -7.6384  -26.5066  -50.8758 C.2       16 UNK         0.5000 
     93 O          -8.6781  -27.0939  -51.1744 O.2       16 UNK        -0.5000 
     94 N          -6.4190  -26.9449  -51.2242 N.am      17 UNK        -0.5000 
     95 CA         -6.1247  -28.0381  -52.1560 C.3       17 UNK         0.1400 
     96 CB         -4.6523  -28.4422  -51.9722 C.3       17 UNK        -0.1800 
     97 C          -6.4264  -27.7046  -53.6402 C.2       17 UNK         0.5000 
     98 O          -6.1211  -28.5229  -54.5084 O.2       17 UNK        -0.5000 
     99 N          -7.0098  -26.5251  -53.9026 N.am      18 UNK        -0.5000 
    100 CA        -7.3916  -25.9509  -55.1948 C.3       18 UNK         0.1400 
    101 CB        -8.2921  -26.8974  -56.0180 C.3       18 UNK        -0.1800 
    102 C         -6.1759  -25.4126  -55.9686 C.2       18 UNK         0.5000 
    103 O         -6.0525  -25.6350  -57.1750 O.2       18 UNK        -0.5000 
    104 N         -5.3058  -24.6828  -55.2576 N.am      19 UNK        -0.5000 
    105 CA        -4.1895  -23.9386  -55.8358 C.3       19 UNK         0.1400 
    106 CB        -3.0833  -23.7718  -54.7805 C.3       19 UNK        -0.1800 
    107 C         -4.7098  -22.5836  -56.3444 C.2       19 UNK         0.5000 
    108 O         -4.6747  -21.5950  -55.6092 O.2       19 UNK        -0.5000 
    109 N         -5.2214  -22.5666  -57.5818 N.am      20 UNK        -0.5000 
    110 CA        -5.8900  -21.4220  -58.2147 C.3       20 UNK         0.1400 
    111 CB        -6.4112  -21.8531  -59.5940 C.3       20 UNK        -0.1800 
    112 C         -5.0289  -20.1473  -58.3386 C.2       20 UNK         0.5000 
    113 O         -5.5801  -19.0471  -58.3840 O.2       20 UNK        -0.5000 
    114 N         -3.6998  -20.3125  -58.3710 N.am      21 UNK        -0.5000 
    115 CA        -2.7223  -19.2225  -58.3677 C.3       21 UNK         0.1400 
    116 CB        -1.3705  -19.7743  -58.8471 C.3       21 UNK        -0.1800 
    117 C         -2.5651  -18.5412  -56.9911 C.2       21 UNK         0.5000 
    118 O         -2.0682  -17.4155  -56.9358 O.2       21 UNK        -0.5000 
    119 N         -2.9675  -19.2303  -55.9162 N.am      22 UNK        -0.5000 
    120 CA        -2.8951  -18.7666  -54.5240 C.3       22 UNK         0.1400 
    121 C         -4.3008  -18.4438  -53.9460 C.2       22 UNK         0.5000 
    122 N         -5.3235  -19.2393  -54.2350 N.am      22 UNK        -0.7600 
    123 O         -4.4738  -17.4455  -53.2525 O.2       22 UNK        -0.5000 
    124 C124       -2.1372  -19.8059  -53.6600 C.3       23 UNK        -0.0398 
    125 S125       -1.5199  -19.1459  -52.0748 S.3       23 UNK        -0.2404 
    126 C126        0.0745  -18.4416  -52.5947 C.3       23 UNK        -0.0205 
    127 H127       -4.1700  -14.6490  -43.6632 H         1 UNK         0.0600 
    128 H128       -3.7434  -15.9574  -44.7728 H         1 UNK         0.0600 
    129 H129       -2.6288  -15.4822  -43.4824 H         1 UNK         0.0600 
    130 H130       -0.8879  -14.9786  -44.9260 H         1 UNK         0.3000 
    131 H131       -1.1499  -13.1311  -47.1314 H         1 UNK         0.0600 
    132 H132        1.3736  -14.1695  -45.7300 H         1 UNK         0.0800 
    133 H133        1.3315  -13.3263  -47.2597 H         1 UNK         0.0800 
    134 H134        2.7125  -15.2392  -48.4283 H         1 UNK         0.0800 
    135 H135        1.4532  -14.6587  -49.4978 H         1 UNK         0.0800 
    136 H136        0.2429  -16.2283  -50.9957 H         1 UNK         0.1150 
    137 H137        1.9180  -20.1366  -51.5455 H         1 UNK         0.1150 
    138 H138        3.3121  -17.6375  -48.3538 H         1 UNK         0.1150 
    139 H139        4.3017  -20.3768  -50.3584 H         1 UNK         0.0800 
    140 H140        4.3953  -19.7352  -48.7378 H         1 UNK         0.0800 
    141 H141        2.9703  -21.1565  -46.5414 H         1 UNK         0.0800 
    142 H142        2.0602  -19.8920  -47.3162 H         1 UNK         0.0800 
    143 H143        0.9842  -22.7407  -47.0808 H         1 UNK         0.0600 
    144 H144        1.2877  -20.9573  -44.9070 H         1 UNK         0.3000 
    145 H145       -1.3939  -22.2205  -42.9028 H         1 UNK         0.0600 
    146 H146        0.4888  -22.5194  -41.3257 H         1 UNK         0.0600 
    147 H147        0.5297  -23.7706  -42.5589 H         1 UNK         0.0600 
    148 H148        1.6525  -22.4191  -42.6445 H         1 UNK         0.0600 
    149 H149        0.5373  -20.1919  -42.4003 H         1 UNK         0.3000 
    150 H150       -1.2898  -17.4800  -43.9031 H         1 UNK         0.0600 
    151 H151       -2.1791  -17.7296  -41.5930 H         1 UNK         0.0600 
    152 H152       -0.8832  -16.5422  -41.6351 H         1 UNK         0.0600 
    153 H153       -0.5789  -18.1577  -41.0008 H         1 UNK         0.0600 
    154 H154        1.2319  -17.4608  -42.6322 H         1 UNK         0.3000 
    155 H155        3.2277  -18.3486  -45.4935 H         1 UNK         0.0600 
    156 H156        4.3136  -16.2257  -44.6631 H         1 UNK         0.0600 
    157 H157        2.7772  -15.7485  -43.9371 H         1 UNK         0.0600 
    158 H158        2.9174  -15.9476  -45.6812 H         1 UNK         0.0600 
    159 H159        3.7715  -17.7918  -42.7085 H         1 UNK         0.3000 
    160 H160        3.8151  -21.1978  -41.6578 H         1 UNK         0.0600 
    161 H161        6.1036  -19.2089  -42.1270 H         1 UNK         0.0600 
    162 H162        6.0333  -20.8510  -42.7554 H         1 UNK         0.0600 
    163 H163        6.1319  -20.5838  -41.0224 H         1 UNK         0.0600 
    164 H164        4.4498  -18.7359  -40.3391 H         1 UNK         0.3000 
    165 H165        1.1609  -17.9564  -39.2195 H         1 UNK         0.0600 
    166 H166        3.6007  -19.0256  -37.7018 H         1 UNK         0.0600 
    167 H167        2.2718  -18.0922  -37.0130 H         1 UNK         0.0600 
    168 H168        1.9803  -19.7082  -37.6351 H         1 UNK         0.0600 
    169 H169        3.6200  -16.7059  -38.6428 H         1 UNK         0.3000 
    170 H170        3.9997  -14.6268  -39.4188 H         1 UNK         0.0600 
    171 H171        5.5527  -15.9313  -40.8848 H         1 UNK         0.0600 
    172 H172        4.7261  -15.3340  -42.3185 H         1 UNK         0.0600 
    173 H173        5.6062  -14.2200  -41.2761 H         1 UNK         0.0600 
    174 H174        3.1128  -13.5325  -41.9729 H         1 UNK         0.3000 
    175 H175        0.3151  -12.4005  -41.4182 H         1 UNK         0.0600 
    176 H176        0.3979   -9.9666  -40.8320 H         1 UNK         0.0600 
    177 H177        0.3268  -10.9883  -39.4068 H         1 UNK         0.0600 
    178 H178        1.8512  -10.2487  -39.8741 H         1 UNK         0.0600 
    179 H179        1.3244  -11.6921  -43.2121 H         1 UNK         0.3000 
    180 H180        4.0453   -9.6426  -43.9710 H         1 UNK         0.0600 
    181 H181        4.8084  -11.3970  -45.5594 H         1 UNK         0.0600 
    182 H182        5.3211  -11.7966  -43.9286 H         1 UNK         0.0600 
    183 H183        3.9514  -12.6377  -44.6438 H         1 UNK         0.0600 
    184 H184        2.2417  -11.1632  -45.6050 H         1 UNK         0.3000 
    185 H185       -0.6434   -9.2571  -45.2238 H         1 UNK         0.0600 
    186 H186       -0.5025   -8.6564  -47.6235 H         1 UNK         0.0600 
    187 H187        0.5712   -7.6301  -46.6881 H         1 UNK         0.0600 
    188 H188        1.2357   -8.9604  -47.6285 H         1 UNK         0.0600 
    189 H189       -0.0558  -11.0667  -47.2723 H         1 UNK         0.3000 
    190 H190       -0.4987  -19.5352  -46.4495 H         1 UNK         0.3000 
    191 H191       -2.0722  -19.4050  -48.8176 H         1 UNK         0.0600 
    192 H192       -3.3681  -17.6860  -47.5433 H         1 UNK         0.0600 
    193 H193       -1.6379  -17.4321  -47.4085 H         1 UNK         0.0600 
    194 H194       -2.5292  -18.1364  -46.0640 H         1 UNK         0.0600 
    195 H195       -2.8279  -20.7407  -45.5540 H         1 UNK         0.3000 
    196 H196       -5.5011  -21.4952  -46.0911 H         1 UNK         0.0600 
    197 H197       -5.2426  -22.9255  -44.0709 H         1 UNK         0.0600 
    198 H198       -4.5478  -21.3338  -43.8038 H         1 UNK         0.0600 
    199 H199       -3.4978  -22.7138  -44.1196 H         1 UNK         0.0600 
    200 H200       -2.4535  -23.2272  -46.6965 H         1 UNK         0.3000 
    201 H201       -3.5358  -25.7313  -47.4493 H         1 UNK         0.0600 
    202 H202       -1.1536  -25.3745  -46.8441 H         1 UNK         0.0600 
    203 H203       -0.9071  -24.4098  -48.2984 H         1 UNK         0.0600 
    204 H204       -1.2868  -26.1204  -48.4282 H         1 UNK         0.0600 
    205 H205       -3.7631  -22.7485  -49.1737 H         1 UNK         0.3000 
    206 H206       -3.8180  -23.7291  -51.8440 H         1 UNK         0.0600 
    207 H207       -5.2628  -21.2806  -50.7048 H         1 UNK         0.0600 
    208 H208       -3.5682  -21.2978  -51.1920 H         1 UNK         0.0600 
    209 H209       -4.8356  -21.5607  -52.3842 H         1 UNK         0.0600 
    210 H210       -6.0449  -24.1829  -49.2889 H         1 UNK         0.3000 
    211 H211       -8.5139  -24.5746  -50.5984 H         1 UNK         0.0600 
    212 H212       -7.3218  -25.9395  -48.1239 H         1 UNK         0.0600 
    213 H213       -9.0257  -25.9487  -48.5667 H         1 UNK         0.0600 
    214 H214       -8.2433  -24.4370  -48.1336 H         1 UNK         0.0600 
    215 H215       -5.6167  -26.4148  -50.9063 H         1 UNK         0.3000 
    216 H216       -6.7491  -28.8922  -51.8870 H         1 UNK         0.0600 
    217 H217       -4.3993  -29.3075  -52.5860 H         1 UNK         0.0600 
    218 H218       -4.4424  -28.7095  -50.9363 H         1 UNK         0.0600 
    219 H219       -3.9778  -27.6316  -52.2512 H         1 UNK         0.0600 
    220 H220       -7.1362  -25.8985  -53.1176 H         1 UNK         0.3000 
    221 H221       -7.9954  -25.0746  -54.9544 H         1 UNK         0.0600 
    222 H222       -7.7453  -27.7626  -56.3929 H         1 UNK         0.0600 
    223 H223       -9.1315  -27.2595  -55.4245 H         1 UNK         0.0600 
    224 H224       -8.7064  -26.3795  -56.8837 H         1 UNK         0.0600 
    225 H225       -5.5195  -24.4978  -54.2833 H         1 UNK         0.3000 
    226 H226       -3.7677  -24.4946  -56.6758 H         1 UNK         0.0600 
    227 H227       -2.2022  -23.2997  -55.2166 H         1 UNK         0.0600 
    228 H228       -3.4061  -23.1450  -53.9512 H         1 UNK         0.0600 
    229 H229       -2.7718  -24.7347  -54.3754 H         1 UNK         0.0600 
    230 H230       -5.2450  -23.4365  -58.0968 H         1 UNK         0.3000 
    231 H231       -6.7494  -21.1655  -57.5919 H         1 UNK         0.0600 
    232 H232       -6.9442  -21.0374  -60.0845 H         1 UNK         0.0600 
    233 H233       -7.1064  -22.6888  -59.5100 H         1 UNK         0.0600 
    234 H234       -5.5973  -22.1573  -60.2533 H         1 UNK         0.0600 
    235 H235       -3.3342  -21.2529  -58.3439 H         1 UNK         0.3000 
    236 H236       -3.0500  -18.4593  -59.0768 H         1 UNK         0.0600 
    237 H237       -0.9928  -20.5499  -58.1795 H         1 UNK         0.0600 
    238 H238       -1.4503  -20.2003  -59.8474 H         1 UNK         0.0600 
    239 H239       -0.6190  -18.9848  -58.8911 H         1 UNK         0.0600 
    240 H240       -3.4294  -20.1220  -56.0529 H         1 UNK         0.3000 
    241 H241       -2.3243  -17.8368  -54.4901 H         1 UNK         0.0600 
    242 H242       -6.2377  -19.0210  -53.8737 H         1 UNK         0.3800 
    243 H243       -5.1831  -20.0921  -54.7725 H         1 UNK         0.3800 
    244 H244       -2.7683  -20.6722  -53.4597 H         1 UNK         0.0800 
    245 H245       -1.2843  -20.1999  -54.2142 H         1 UNK         0.0800 
    246 H246        0.5675  -19.1123  -53.3000 H         1 UNK         0.0800 
    247 H247       -0.0988  -17.5062  -53.1290 H         1 UNK         0.0800 
@<TRIPOS>BOND
     1    1    2 1    
     2    1  127 1    
     3    1  128 1    
     4    1  129 1    
     5    2    3 2    
     6    2    4 am   BACKBONE|DICT|INTERRES
     7    4    5 1    
     8    4  130 1    
     9    5    6 1    
    10    5   65 1    
    11    5  131 1    
    12    6    7 1    
    13    6  132 1    
    14    6  133 1    
    15    7    8 1    
    16    8    9 1    
    17    8  134 1    
    18    8  135 1    
    19    9   10 ar   
    20    9   14 ar   
    21   10   11 ar   
    22   10  136 1    
    23   11   12 ar   
    24   11  126 1    
    25   12   13 ar   
    26   12  137 1    
    27   13   14 ar   
    28   13   15 1    
    29   14  138 1    
    30   15   16 1    
    31   15  139 1    
    32   15  140 1    
    33   16   17 1    
    34   17   18 1    
    35   17  141 1    
    36   17  142 1    
    37   18   19 1    
    38   18   67 1    
    39   18  143 1    
    40   19   20 am   BACKBONE|DICT|INTERRES
    41   19  144 1    
    42   20   21 2    
    43   20   22 1    
    44   22   23 1    
    45   22   24 1    
    46   22  145 1    
    47   23  146 1    
    48   23  147 1    
    49   23  148 1    
    50   24   25 am   BACKBONE|DICT|INTERRES
    51   24  149 1    
    52   25   26 2    
    53   25   27 1    
    54   27   28 1    
    55   27   29 1    
    56   27  150 1    
    57   28  151 1    
    58   28  152 1    
    59   28  153 1    
    60   29   30 am   BACKBONE|DICT|INTERRES
    61   29  154 1    
    62   30   31 2    
    63   30   32 1    
    64   32   33 1    
    65   32   34 1    
    66   32  155 1    
    67   33  156 1    
    68   33  157 1    
    69   33  158 1    
    70   34   35 am   BACKBONE|DICT|INTERRES
    71   34  159 1    
    72   35   36 2    
    73   35   37 1    
    74   37   38 1    
    75   37   39 1    
    76   37  160 1    
    77   38  161 1    
    78   38  162 1    
    79   38  163 1    
    80   39   40 am   BACKBONE|DICT|INTERRES
    81   39  164 1    
    82   40   41 2    
    83   40   42 1    
    84   42   43 1    
    85   42   44 1    
    86   42  165 1    
    87   43  166 1    
    88   43  167 1    
    89   43  168 1    
    90   44   45 am   BACKBONE|DICT|INTERRES
    91   44  169 1    
    92   45   46 2    
    93   45   47 1    
    94   47   48 1    
    95   47   49 1    
    96   47  170 1    
    97   48  171 1    
    98   48  172 1    
    99   48  173 1    
   100   49   50 am   BACKBONE|DICT|INTERRES
   101   49  174 1    
   102   50   51 2    
   103   50   52 1    
   104   52   53 1    
   105   52   54 1    
   106   52  175 1    
   107   53  176 1    
   108   53  177 1    
   109   53  178 1    
   110   54   55 am   BACKBONE|DICT|INTERRES
   111   54  179 1    
   112   55   56 2    
   113   55   57 1    
   114   57   58 1    
   115   57   59 1    
   116   57  180 1    
   117   58  181 1    
   118   58  182 1    
   119   58  183 1    
   120   59   60 am   BACKBONE|DICT|INTERRES
   121   59  184 1    
   122   60   61 2    
   123   60   62 1    
   124   62   63 1    
   125   62   64 1    
   126   62  185 1    
   127   63  186 1    
   128   63  187 1    
   129   63  188 1    
   130   64   65 am   BACKBONE|DICT|INTERRES
   131   64  189 1    
   132   65   66 2    
   133   67   68 2    
   134   67   69 am   BACKBONE|DICT|INTERRES
   135   69   70 1    
   136   69  190 1    
   137   70   71 1    
   138   70   72 1    
   139   70  191 1    
   140   71  192 1    
   141   71  193 1    
   142   71  194 1    
   143   72   73 2    
   144   72   74 am   BACKBONE|DICT|INTERRES
   145   74   75 1    
   146   74  195 1    
   147   75   76 1    
   148   75   77 1    
   149   75  196 1    
   150   76  197 1    
   151   76  198 1    
   152   76  199 1    
   153   77   78 2    
   154   77   79 am   BACKBONE|DICT|INTERRES
   155   79   80 1    
   156   79  200 1    
   157   80   81 1    
   158   80   82 1    
   159   80  201 1    
   160   81  202 1    
   161   81  203 1    
   162   81  204 1    
   163   82   83 2    
   164   82   84 am   BACKBONE|DICT|INTERRES
   165   84   85 1    
   166   84  205 1    
   167   85   86 1    
   168   85   87 1    
   169   85  206 1    
   170   86  207 1    
   171   86  208 1    
   172   86  209 1    
   173   87   88 2    
   174   87   89 am   BACKBONE|DICT|INTERRES
   175   89   90 1    
   176   89  210 1    
   177   90   91 1    
   178   90   92 1    
   179   90  211 1    
   180   91  212 1    
   181   91  213 1    
   182   91  214 1    
   183   92   93 2    
   184   92   94 am   BACKBONE|DICT|INTERRES
   185   94   95 1    
   186   94  215 1    
   187   95   96 1    
   188   95   97 1    
   189   95  216 1    
   190   96  217 1    
   191   96  218 1    
   192   96  219 1    
   193   97   98 2    
   194   97   99 am   BACKBONE|DICT|INTERRES
   195   99  100 1    
   196   99  220 1    
   197  100  101 1    
   198  100  102 1    
   199  100  221 1    
   200  101  222 1    
   201  101  223 1    
   202  101  224 1    
   203  102  103 2    
   204  102  104 am   BACKBONE|DICT|INTERRES
   205  104  105 1    
   206  104  225 1    
   207  105  106 1    
   208  105  107 1    
   209  105  226 1    
   210  106  227 1    
   211  106  228 1    
   212  106  229 1    
   213  107  108 2    
   214  107  109 am   BACKBONE|DICT|INTERRES
   215  109  110 1    
   216  109  230 1    
   217  110  111 1    
   218  110  112 1    
   219  110  231 1    
   220  111  232 1    
   221  111  233 1    
   222  111  234 1    
   223  112  113 2    
   224  112  114 am   BACKBONE|DICT|INTERRES
   225  114  115 1    
   226  114  235 1    
   227  115  116 1    
   228  115  117 1    
   229  115  236 1    
   230  116  237 1    
   231  116  238 1    
   232  116  239 1    
   233  117  118 2    
   234  117  119 am   BACKBONE|DICT|INTERRES
   235  119  120 1    
   236  119  240 1    
   237  120  121 1    
   238  120  124 1    
   239  120  241 1    
   240  121  122 am   BACKBONE|DICT|INTERRES
   241  121  123 2    
   242  122  242 1    
   243  122  243 1    
   244  124  125 1    
   245  124  244 1    
   246  124  245 1    
   247  125  126 1    
   248  126  246 1    
   249  126  247 1    
@<TRIPOS>SUBSTRUCTURE
     1 UNK         1 GROUP             0       ****    0 ROOT    
