@<TRIPOS>MOLECULE
3R540
247   249    1
SMALL
USER_CHARGES


@<TRIPOS>ATOM
      1 CA          8.5268  -13.1315  -48.9667 C.3       0 UNK        -0.1800 
      2 C           7.5712  -13.7539  -47.9582 C.2       0 UNK         0.5000 
      3 O           7.9749  -14.6276  -47.1900 O.2       0 UNK        -0.5000 
      4 N           6.3069  -13.3151  -47.9644 N.am      1 UNK        -0.5000 
      5 CA          5.2568  -13.7586  -47.0427 C.3       1 UNK         0.1400 
      6 C6          3.8565  -13.2817  -47.4951 C.3       23 UNK        -0.0398 
      7 S7          3.3507  -14.0122  -49.0881 S.3       23 UNK        -0.2404 
      8 C8          1.8294  -14.8778  -48.5977 C.3       23 UNK        -0.0205 
      9 C9          1.3485  -15.8232  -49.6832 C.ar      23 UNK        -0.0193 
     10 C10         0.3304  -15.4361  -50.5565 C.ar      23 UNK        -0.1150 
     11 C11        -0.1395  -16.3184  -51.5326 C.ar      23 UNK        -0.0193 
     12 C12         0.4185  -17.5972  -51.6339 C.ar      23 UNK        -0.1150 
     13 C13         1.4543  -17.9877  -50.7788 C.ar      23 UNK        -0.0193 
     14 C14         1.9115  -17.0962  -49.8035 C.ar      23 UNK        -0.1150 
     15 C15         2.1182  -19.3487  -50.9391 C.3       23 UNK        -0.0205 
     16 S16         1.9722  -20.3827  -49.4485 S.3       23 UNK        -0.2404 
     17 C17         0.2348  -20.9190  -49.5484 C.3       23 UNK        -0.0398 
     18 CA         -0.0463  -22.0948  -48.5836 C.3       11 UNK         0.1400 
     19 N           0.0508  -21.7105  -47.1713 N.am      11 UNK        -0.5000 
     20 C           0.0108  -22.5707  -46.1433 C.2       10 UNK         0.5000 
     21 O          -0.0433  -23.7925  -46.2766 O.2       10 UNK        -0.5000 
     22 CA         -0.0458  -21.9664  -44.7292 C.3       10 UNK         0.1400 
     23 CB          1.3544  -21.5870  -44.2240 C.3       10 UNK        -0.1800 
     24 N          -0.9368  -20.8071  -44.6706 N.am      10 UNK        -0.5000 
     25 C          -2.2687  -20.8771  -44.8119 C.2       9 UNK         0.5000 
     26 O          -2.8859  -21.9339  -44.9372 O.2       9 UNK        -0.5000 
     27 CA         -3.0354  -19.5445  -44.8714 C.3       9 UNK         0.1400 
     28 CB         -3.4073  -19.0660  -43.4606 C.3       9 UNK        -0.1800 
     29 N          -2.2765  -18.5028  -45.5631 N.am      9 UNK        -0.5000 
     30 C          -2.0297  -18.5039  -46.8825 C.2       8 UNK         0.5000 
     31 O          -2.4548  -19.3640  -47.6536 O.2       8 UNK        -0.5000 
     32 CA         -1.1081  -17.3914  -47.4189 C.3       8 UNK         0.1400 
     33 CB         -1.9316  -16.1476  -47.7820 C.3       8 UNK        -0.1800 
     34 N          -0.0547  -17.0276  -46.4663 N.am      8 UNK        -0.5000 
     35 C           0.9021  -17.8744  -46.0519 C.2       7 UNK         0.5000 
     36 O           1.0160  -19.0182  -46.4877 O.2       7 UNK        -0.5000 
     37 CA          1.8523  -17.4139  -44.9256 C.3       7 UNK         0.1400 
     38 CB          3.2602  -17.1132  -45.4627 C.3       7 UNK        -0.1800 
     39 N           1.3662  -16.2654  -44.1589 N.am      7 UNK        -0.5000 
     40 C           0.2577  -16.2610  -43.4050 C.2       6 UNK         0.5000 
     41 O          -0.4654  -17.2454  -43.2498 O.2       6 UNK        -0.5000 
     42 CA         -0.1369  -14.9164  -42.7695 C.3       6 UNK         0.1400 
     43 CB          0.4255  -14.8084  -41.3452 C.3       6 UNK        -0.1800 
     44 N           0.3051  -13.7593  -43.5525 N.am      6 UNK        -0.5000 
     45 C          -0.1417  -13.4380  -44.7747 C.2       5 UNK         0.5000 
     46 O          -0.9513  -14.1256  -45.3973 O.2       5 UNK        -0.5000 
     47 CA          0.4394  -12.1556  -45.4090 C.3       5 UNK         0.1400 
     48 CB         -0.4053  -11.6276  -46.5868 C.3       5 UNK        -0.1800 
     49 N           0.7063  -11.0940  -44.4327 N.am      5 UNK        -0.5000 
     50 C          -0.1747  -10.4739  -43.6346 C.2       4 UNK         0.5000 
     51 O          -1.3866  -10.6964  -43.6447 O.2       4 UNK        -0.5000 
     52 CA          0.4219   -9.4616  -42.6322 C.3       4 UNK         0.1400 
     53 CB         -0.6416   -8.8353  -41.7118 C.3       4 UNK        -0.1800 
     54 N           1.4517  -10.0868  -41.7994 N.am      4 UNK        -0.5000 
     55 C           2.7247  -10.2962  -42.1579 C.2       3 UNK         0.5000 
     56 O           3.1896   -9.9132  -43.2341 O.2       3 UNK        -0.5000 
     57 CA          3.6219  -11.0784  -41.1707 C.3       3 UNK         0.1400 
     58 CB          2.8345  -11.8339  -40.0770 C.3       3 UNK        -0.1800 
     59 N           4.5441  -12.0021  -41.8424 N.am      3 UNK        -0.5000 
     60 C           4.2333  -12.9642  -42.7229 C.2       2 UNK         0.5000 
     61 O           3.0910  -13.2050  -43.1245 O.2       2 UNK        -0.5000 
     62 CA          5.4003  -13.8467  -43.1985 C.3       2 UNK         0.1400 
     63 CB          5.4165  -15.1661  -42.4111 C.3       2 UNK        -0.1800 
     64 N           5.2938  -14.1493  -44.6242 N.am      2 UNK        -0.5000 
     65 C           5.5385  -13.2728  -45.6055 C.2       1 UNK         0.5000 
     66 O           5.9411  -12.1224  -45.4150 O.2       1 UNK        -0.5000 
     67 C          -1.3982  -22.7631  -48.9017 C.2       11 UNK         0.5000 
     68 O          -1.4100  -23.8033  -49.5585 O.2       11 UNK        -0.5000 
     69 N          -2.5030  -22.1944  -48.3969 N.am      12 UNK        -0.5000 
     70 CA         -3.8468  -22.7648  -48.5140 C.3       12 UNK         0.1400 
     71 CB         -4.8843  -21.7711  -47.9728 C.3       12 UNK        -0.1800 
     72 C          -3.9753  -24.1323  -47.8171 C.2       12 UNK         0.5000 
     73 O          -4.5429  -25.0572  -48.3970 O.2       12 UNK        -0.5000 
     74 N          -3.4095  -24.2584  -46.6080 N.am      13 UNK        -0.5000 
     75 CA         -3.3454  -25.5101  -45.8505 C.3       13 UNK         0.1400 
     76 CB         -2.7979  -25.2420  -44.4411 C.3       13 UNK        -0.1800 
     77 C          -2.5211  -26.5963  -46.5662 C.2       13 UNK         0.5000 
     78 O          -2.9742  -27.7380  -46.6534 O.2       13 UNK        -0.5000 
     79 N          -1.3588  -26.2152  -47.1164 N.am      14 UNK        -0.5000 
     80 CA         -0.4963  -27.0763  -47.9322 C.3       14 UNK         0.1400 
     81 CB          0.8237  -26.3489  -48.2273 C.3       14 UNK        -0.1800 
     82 C          -1.1678  -27.5395  -49.2404 C.2       14 UNK         0.5000 
     83 O          -0.9284  -28.6631  -49.6830 O.2       14 UNK        -0.5000 
     84 N          -2.0343  -26.6876  -49.8034 N.am      15 UNK        -0.5000 
     85 CA         -2.8859  -26.9712  -50.9590 C.3       15 UNK         0.1400 
     86 CB         -3.2052  -25.6469  -51.6737 C.3       15 UNK        -0.1800 
     87 C          -4.1742  -27.7479  -50.5999 C.2       15 UNK         0.5000 
     88 O          -5.0427  -27.8884  -51.4604 O.2       15 UNK        -0.5000 
     89 N          -4.2874  -28.2378  -49.3552 N.am      16 UNK        -0.5000 
     90 CA         -5.3880  -29.0367  -48.8056 C.3       16 UNK         0.1400 
     91 CB         -5.5120  -30.3910  -49.5359 C.3       16 UNK        -0.1800 
     92 C          -6.7163  -28.2574  -48.7273 C.2       16 UNK         0.5000 
     93 O          -7.7729  -28.7911  -49.0691 O.2       16 UNK        -0.5000 
     94 N          -6.6229  -27.0019  -48.2678 N.am      17 UNK        -0.5000 
     95 CA         -7.7014  -26.0269  -48.0693 C.3       17 UNK         0.1400 
     96 CB         -8.7983  -26.5635  -47.1252 C.3       17 UNK        -0.1800 
     97 C          -8.2633  -25.4415  -49.3808 C.2       17 UNK         0.5000 
     98 O          -9.3301  -24.8241  -49.3640 O.2       17 UNK        -0.5000 
     99 N          -7.5240  -25.6022  -50.4858 N.am      18 UNK        -0.5000 
    100 CA        -7.7553  -24.8985  -51.7456 C.3       18 UNK         0.1400 
    101 CB        -7.1025  -25.6945  -52.8864 C.3       18 UNK        -0.1800 
    102 C         -7.1960  -23.4629  -51.6811 C.2       18 UNK         0.5000 
    103 O         -6.5134  -23.0993  -50.7210 O.2       18 UNK        -0.5000 
    104 N         -7.4800  -22.6705  -52.7224 N.am      19 UNK        -0.5000 
    105 CA        -7.0594  -21.2709  -52.8426 C.3       19 UNK         0.1400 
    106 CB        -7.7858  -20.6364  -54.0389 C.3       19 UNK        -0.1800 
    107 C         -5.5366  -21.0672  -52.9806 C.2       19 UNK         0.5000 
    108 O         -5.0568  -19.9645  -52.7052 O.2       19 UNK        -0.5000 
    109 N         -4.8154  -22.1084  -53.4221 N.am      20 UNK        -0.5000 
    110 CA        -3.3761  -22.1614  -53.7008 C.3       20 UNK         0.1400 
    111 CB        -2.5402  -21.9163  -52.4267 C.3       20 UNK        -0.1800 
    112 C         -2.9712  -21.2317  -54.8603 C.2       20 UNK         0.5000 
    113 O         -2.6932  -21.7162  -55.9579 O.2       20 UNK        -0.5000 
    114 N         -2.9748  -19.9205  -54.6014 N.am      21 UNK        -0.5000 
    115 CA        -2.6994  -18.8623  -55.5689 C.3       21 UNK         0.1400 
    116 CB        -1.1757  -18.6652  -55.6927 C.3       21 UNK        -0.1800 
    117 C         -3.4232  -17.5404  -55.2378 C.2       21 UNK         0.5000 
    118 O         -3.2259  -16.5692  -55.9701 O.2       21 UNK        -0.5000 
    119 N         -4.2282  -17.4877  -54.1642 N.am      22 UNK        -0.5000 
    120 CA        -4.8818  -16.2470  -53.7008 C.3       22 UNK         0.1400 
    121 C         -6.1362  -16.4351  -52.8005 C.2       22 UNK         0.5000 
    122 N         -6.4546  -17.6230  -52.3067 N.am      22 UNK        -0.7600 
    123 O         -6.8626  -15.4739  -52.5611 O.2       22 UNK        -0.5000 
    124 C124       -3.8826  -15.2246  -53.0877 C.3       23 UNK        -0.0398 
    125 S125       -2.8694  -15.9011  -51.7232 S.3       23 UNK        -0.2404 
    126 C126       -1.2242  -15.8673  -52.4955 C.3       23 UNK        -0.0205 
    127 H127        9.3560  -12.6490  -48.4494 H         1 UNK         0.0600 
    128 H128        8.0316  -12.3838  -49.5868 H         1 UNK         0.0600 
    129 H129        8.9339  -13.9011  -49.6226 H         1 UNK         0.0600 
    130 H130        6.0376  -12.5910  -48.6145 H         1 UNK         0.3000 
    131 H131        5.2616  -14.8510  -47.0409 H         1 UNK         0.0600 
    132 H132        3.1167  -13.5454  -46.7398 H         1 UNK         0.0800 
    133 H133        3.8256  -12.1942  -47.5850 H         1 UNK         0.0800 
    134 H134        1.0570  -14.1455  -48.3583 H         1 UNK         0.0800 
    135 H135        2.0034  -15.4477  -47.6881 H         1 UNK         0.0800 
    136 H136       -0.1032  -14.4492  -50.4743 H         1 UNK         0.1150 
    137 H137        0.0630  -18.2786  -52.3937 H         1 UNK         0.1150 
    138 H138        2.7086  -17.3950  -49.1370 H         1 UNK         0.1150 
    139 H139        1.7147  -19.8866  -51.7983 H         1 UNK         0.0800 
    140 H140        3.1771  -19.1929  -51.1494 H         1 UNK         0.0800 
    141 H141        0.0333  -21.2142  -50.5798 H         1 UNK         0.0800 
    142 H142       -0.4153  -20.0695  -49.3355 H         1 UNK         0.0800 
    143 H143        0.7188  -22.8547  -48.7578 H         1 UNK         0.0600 
    144 H144        0.1772  -20.7214  -46.9768 H         1 UNK         0.3000 
    145 H145       -0.4457  -22.7289  -44.0575 H         1 UNK         0.0600 
    146 H146        1.3116  -21.1633  -43.2206 H         1 UNK         0.0600 
    147 H147        1.9979  -22.4664  -44.1782 H         1 UNK         0.0600 
    148 H148        1.8440  -20.8630  -44.8742 H         1 UNK         0.0600 
    149 H149       -0.5038  -19.8977  -44.6054 H         1 UNK         0.3000 
    150 H150       -3.9611  -19.7146  -45.4249 H         1 UNK         0.0600 
    151 H151       -4.0327  -19.8022  -42.9541 H         1 UNK         0.0600 
    152 H152       -3.9675  -18.1315  -43.4946 H         1 UNK         0.0600 
    153 H153       -2.5245  -18.9067  -42.8408 H         1 UNK         0.0600 
    154 H154       -1.8503  -17.7910  -44.9835 H         1 UNK         0.3000 
    155 H155       -0.6276  -17.7609  -48.3270 H         1 UNK         0.0600 
    156 H156       -2.4906  -15.7696  -46.9253 H         1 UNK         0.0600 
    157 H157       -1.2973  -15.3409  -48.1474 H         1 UNK         0.0600 
    158 H158       -2.6516  -16.3766  -48.5685 H         1 UNK         0.0600 
    159 H159       -0.1290  -16.1121  -46.0408 H         1 UNK         0.3000 
    160 H160        1.9364  -18.2559  -44.2353 H         1 UNK         0.0600 
    161 H161        3.2952  -16.1779  -46.0175 H         1 UNK         0.0600 
    162 H162        3.6066  -17.9053  -46.1285 H         1 UNK         0.0600 
    163 H163        3.9789  -17.0459  -44.6465 H         1 UNK         0.0600 
    164 H164        1.8988  -15.4092  -44.2148 H         1 UNK         0.3000 
    165 H165       -1.2269  -14.8867  -42.7121 H         1 UNK         0.0600 
    166 H166        0.0881  -13.8937  -40.8578 H         1 UNK         0.0600 
    167 H167        0.0930  -15.6451  -40.7294 H         1 UNK         0.0600 
    168 H168        1.5163  -14.8120  -41.3425 H         1 UNK         0.0600 
    169 H169        1.0666  -13.2138  -43.1632 H         1 UNK         0.3000 
    170 H170        1.4119  -12.4360  -45.8079 H         1 UNK         0.0600 
    171 H171       -0.4898  -12.3755  -47.3760 H         1 UNK         0.0600 
    172 H172       -1.4176  -11.3688  -46.2752 H         1 UNK         0.0600 
    173 H173        0.0472  -10.7407  -47.0300 H         1 UNK         0.0600 
    174 H174        1.6829  -10.8483  -44.3059 H         1 UNK         0.3000 
    175 H175        0.8712   -8.6550  -43.2153 H         1 UNK         0.0600 
    176 H176       -1.1387   -9.5879  -41.0984 H         1 UNK         0.0600 
    177 H177       -0.1982   -8.0973  -41.0431 H         1 UNK         0.0600 
    178 H178       -1.4099   -8.3234  -42.2928 H         1 UNK         0.0600 
    179 H179        1.1392  -10.4563  -40.9132 H         1 UNK         0.3000 
    180 H180        4.2440  -10.3319  -40.6753 H         1 UNK         0.0600 
    181 H181        2.1325  -12.5486  -40.5054 H         1 UNK         0.0600 
    182 H182        2.2725  -11.1489  -39.4414 H         1 UNK         0.0600 
    183 H183        3.5086  -12.3876  -39.4232 H         1 UNK         0.0600 
    184 H184        5.5182  -11.8743  -41.6074 H         1 UNK         0.3000 
    185 H185        6.3437  -13.3250  -43.0232 H         1 UNK         0.0600 
    186 H186        5.5409  -14.9806  -41.3434 H         1 UNK         0.0600 
    187 H187        4.4881  -15.7246  -42.5387 H         1 UNK         0.0600 
    188 H188        6.2408  -15.8059  -42.7269 H         1 UNK         0.0600 
    189 H189        4.9658  -15.0735  -44.8564 H         1 UNK         0.3000 
    190 H190       -2.4254  -21.3034  -47.9152 H         1 UNK         0.3000 
    191 H191       -4.0497  -22.9168  -49.5754 H         1 UNK         0.0600 
    192 H192       -4.7308  -21.5602  -46.9149 H         1 UNK         0.0600 
    193 H193       -5.8948  -22.1658  -48.0868 H         1 UNK         0.0600 
    194 H194       -4.8423  -20.8260  -48.5145 H         1 UNK         0.0600 
    195 H195       -3.0081  -23.4371  -46.1647 H         1 UNK         0.3000 
    196 H196       -4.3659  -25.8850  -45.7481 H         1 UNK         0.0600 
    197 H197       -2.7690  -26.1598  -43.8526 H         1 UNK         0.0600 
    198 H198       -3.4254  -24.5308  -43.9038 H         1 UNK         0.0600 
    199 H199       -1.7858  -24.8389  -44.4701 H         1 UNK         0.0600 
    200 H200       -1.0312  -25.2650  -46.9597 H         1 UNK         0.3000 
    201 H201       -0.2689  -27.9685  -47.3453 H         1 UNK         0.0600 
    202 H202        1.3419  -26.0831  -47.3058 H         1 UNK         0.0600 
    203 H203        0.6598  -25.4326  -48.7947 H         1 UNK         0.0600 
    204 H204        1.4967  -26.9800  -48.8090 H         1 UNK         0.0600 
    205 H205       -2.1221  -25.7593  -49.4040 H         1 UNK         0.3000 
    206 H206       -2.3242  -27.5958  -51.6562 H         1 UNK         0.0600 
    207 H207       -2.2947  -25.0894  -51.8935 H         1 UNK         0.0600 
    208 H208       -3.7037  -25.8263  -52.6259 H         1 UNK         0.0600 
    209 H209       -3.8535  -25.0083  -51.0728 H         1 UNK         0.0600 
    210 H210       -3.5454  -28.0303  -48.6975 H         1 UNK         0.3000 
    211 H211       -5.1110  -29.2540  -47.7731 H         1 UNK         0.0600 
    212 H212       -5.8489  -30.2702  -50.5658 H         1 UNK         0.0600 
    213 H213       -6.2301  -31.0398  -49.0333 H         1 UNK         0.0600 
    214 H214       -4.5578  -30.9175  -49.5541 H         1 UNK         0.0600 
    215 H215       -5.6928  -26.6188  -48.1225 H         1 UNK         0.3000 
    216 H216       -7.2318  -25.1841  -47.5602 H         1 UNK         0.0600 
    217 H217       -9.4820  -25.7667  -46.8307 H         1 UNK         0.0600 
    218 H218       -8.3679  -26.9730  -46.2114 H         1 UNK         0.0600 
    219 H219       -9.3966  -27.3434  -47.5963 H         1 UNK         0.0600 
    220 H220       -6.6488  -26.0995  -50.4023 H         1 UNK         0.3000 
    221 H221       -8.8297  -24.8418  -51.9321 H         1 UNK         0.0600 
    222 H222       -6.0170  -25.7008  -52.8005 H         1 UNK         0.0600 
    223 H223       -7.4419  -26.7307  -52.8894 H         1 UNK         0.0600 
    224 H224       -7.3518  -25.2715  -53.8599 H         1 UNK         0.0600 
    225 H225       -8.0444  -23.0350  -53.4765 H         1 UNK         0.3000 
    226 H226       -7.3720  -20.7479  -51.9365 H         1 UNK         0.0600 
    227 H227       -8.8676  -20.6786  -53.9111 H         1 UNK         0.0600 
    228 H228       -7.5165  -19.5856  -54.1536 H         1 UNK         0.0600 
    229 H229       -7.5373  -21.1405  -54.9736 H         1 UNK         0.0600 
    230 H230       -5.3253  -22.9507  -53.6440 H         1 UNK         0.3000 
    231 H231       -3.1704  -23.1820  -54.0279 H         1 UNK         0.0600 
    232 H232       -1.4755  -22.0304  -52.6325 H         1 UNK         0.0600 
    233 H233       -2.7992  -22.6378  -51.6538 H         1 UNK         0.0600 
    234 H234       -2.6871  -20.9211  -52.0071 H         1 UNK         0.0600 
    235 H235       -3.2742  -19.6322  -53.6787 H         1 UNK         0.3000 
    236 H236       -3.0850  -19.1711  -56.5427 H         1 UNK         0.0600 
    237 H237       -0.6895  -19.5704  -56.0566 H         1 UNK         0.0600 
    238 H238       -0.9320  -17.8675  -56.3953 H         1 UNK         0.0600 
    239 H239       -0.7257  -18.4102  -54.7338 H         1 UNK         0.0600 
    240 H240       -4.4196  -18.3187  -53.6202 H         1 UNK         0.3000 
    241 H241       -5.2964  -15.7764  -54.5947 H         1 UNK         0.0600 
    242 H242       -5.8733  -18.4456  -52.4420 H         1 UNK         0.3800 
    243 H243       -7.2788  -17.6935  -51.7326 H         1 UNK         0.3800 
    244 H244       -3.2257  -14.8476  -53.8720 H         1 UNK         0.0800 
    245 H245       -4.4068  -14.3415  -52.7185 H         1 UNK         0.0800 
    246 H246       -1.0035  -14.8540  -52.8346 H         1 UNK         0.0800 
    247 H247       -1.2299  -16.4948  -53.3865 H         1 UNK         0.0800 
@<TRIPOS>BOND
     1    1    2 1    
     2    1  127 1    
     3    1  128 1    
     4    1  129 1    
     5    2    3 2    
     6    2    4 am   BACKBONE|DICT|INTERRES
     7    4    5 1    
     8    4  130 1    
     9    5    6 1    
    10    5   65 1    
    11    5  131 1    
    12    6    7 1    
    13    6  132 1    
    14    6  133 1    
    15    7    8 1    
    16    8    9 1    
    17    8  134 1    
    18    8  135 1    
    19    9   10 ar   
    20    9   14 ar   
    21   10   11 ar   
    22   10  136 1    
    23   11   12 ar   
    24   11  126 1    
    25   12   13 ar   
    26   12  137 1    
    27   13   14 ar   
    28   13   15 1    
    29   14  138 1    
    30   15   16 1    
    31   15  139 1    
    32   15  140 1    
    33   16   17 1    
    34   17   18 1    
    35   17  141 1    
    36   17  142 1    
    37   18   19 1    
    38   18   67 1    
    39   18  143 1    
    40   19   20 am   BACKBONE|DICT|INTERRES
    41   19  144 1    
    42   20   21 2    
    43   20   22 1    
    44   22   23 1    
    45   22   24 1    
    46   22  145 1    
    47   23  146 1    
    48   23  147 1    
    49   23  148 1    
    50   24   25 am   BACKBONE|DICT|INTERRES
    51   24  149 1    
    52   25   26 2    
    53   25   27 1    
    54   27   28 1    
    55   27   29 1    
    56   27  150 1    
    57   28  151 1    
    58   28  152 1    
    59   28  153 1    
    60   29   30 am   BACKBONE|DICT|INTERRES
    61   29  154 1    
    62   30   31 2    
    63   30   32 1    
    64   32   33 1    
    65   32   34 1    
    66   32  155 1    
    67   33  156 1    
    68   33  157 1    
    69   33  158 1    
    70   34   35 am   BACKBONE|DICT|INTERRES
    71   34  159 1    
    72   35   36 2    
    73   35   37 1    
    74   37   38 1    
    75   37   39 1    
    76   37  160 1    
    77   38  161 1    
    78   38  162 1    
    79   38  163 1    
    80   39   40 am   BACKBONE|DICT|INTERRES
    81   39  164 1    
    82   40   41 2    
    83   40   42 1    
    84   42   43 1    
    85   42   44 1    
    86   42  165 1    
    87   43  166 1    
    88   43  167 1    
    89   43  168 1    
    90   44   45 am   BACKBONE|DICT|INTERRES
    91   44  169 1    
    92   45   46 2    
    93   45   47 1    
    94   47   48 1    
    95   47   49 1    
    96   47  170 1    
    97   48  171 1    
    98   48  172 1    
    99   48  173 1    
   100   49   50 am   BACKBONE|DICT|INTERRES
   101   49  174 1    
   102   50   51 2    
   103   50   52 1    
   104   52   53 1    
   105   52   54 1    
   106   52  175 1    
   107   53  176 1    
   108   53  177 1    
   109   53  178 1    
   110   54   55 am   BACKBONE|DICT|INTERRES
   111   54  179 1    
   112   55   56 2    
   113   55   57 1    
   114   57   58 1    
   115   57   59 1    
   116   57  180 1    
   117   58  181 1    
   118   58  182 1    
   119   58  183 1    
   120   59   60 am   BACKBONE|DICT|INTERRES
   121   59  184 1    
   122   60   61 2    
   123   60   62 1    
   124   62   63 1    
   125   62   64 1    
   126   62  185 1    
   127   63  186 1    
   128   63  187 1    
   129   63  188 1    
   130   64   65 am   BACKBONE|DICT|INTERRES
   131   64  189 1    
   132   65   66 2    
   133   67   68 2    
   134   67   69 am   BACKBONE|DICT|INTERRES
   135   69   70 1    
   136   69  190 1    
   137   70   71 1    
   138   70   72 1    
   139   70  191 1    
   140   71  192 1    
   141   71  193 1    
   142   71  194 1    
   143   72   73 2    
   144   72   74 am   BACKBONE|DICT|INTERRES
   145   74   75 1    
   146   74  195 1    
   147   75   76 1    
   148   75   77 1    
   149   75  196 1    
   150   76  197 1    
   151   76  198 1    
   152   76  199 1    
   153   77   78 2    
   154   77   79 am   BACKBONE|DICT|INTERRES
   155   79   80 1    
   156   79  200 1    
   157   80   81 1    
   158   80   82 1    
   159   80  201 1    
   160   81  202 1    
   161   81  203 1    
   162   81  204 1    
   163   82   83 2    
   164   82   84 am   BACKBONE|DICT|INTERRES
   165   84   85 1    
   166   84  205 1    
   167   85   86 1    
   168   85   87 1    
   169   85  206 1    
   170   86  207 1    
   171   86  208 1    
   172   86  209 1    
   173   87   88 2    
   174   87   89 am   BACKBONE|DICT|INTERRES
   175   89   90 1    
   176   89  210 1    
   177   90   91 1    
   178   90   92 1    
   179   90  211 1    
   180   91  212 1    
   181   91  213 1    
   182   91  214 1    
   183   92   93 2    
   184   92   94 am   BACKBONE|DICT|INTERRES
   185   94   95 1    
   186   94  215 1    
   187   95   96 1    
   188   95   97 1    
   189   95  216 1    
   190   96  217 1    
   191   96  218 1    
   192   96  219 1    
   193   97   98 2    
   194   97   99 am   BACKBONE|DICT|INTERRES
   195   99  100 1    
   196   99  220 1    
   197  100  101 1    
   198  100  102 1    
   199  100  221 1    
   200  101  222 1    
   201  101  223 1    
   202  101  224 1    
   203  102  103 2    
   204  102  104 am   BACKBONE|DICT|INTERRES
   205  104  105 1    
   206  104  225 1    
   207  105  106 1    
   208  105  107 1    
   209  105  226 1    
   210  106  227 1    
   211  106  228 1    
   212  106  229 1    
   213  107  108 2    
   214  107  109 am   BACKBONE|DICT|INTERRES
   215  109  110 1    
   216  109  230 1    
   217  110  111 1    
   218  110  112 1    
   219  110  231 1    
   220  111  232 1    
   221  111  233 1    
   222  111  234 1    
   223  112  113 2    
   224  112  114 am   BACKBONE|DICT|INTERRES
   225  114  115 1    
   226  114  235 1    
   227  115  116 1    
   228  115  117 1    
   229  115  236 1    
   230  116  237 1    
   231  116  238 1    
   232  116  239 1    
   233  117  118 2    
   234  117  119 am   BACKBONE|DICT|INTERRES
   235  119  120 1    
   236  119  240 1    
   237  120  121 1    
   238  120  124 1    
   239  120  241 1    
   240  121  122 am   BACKBONE|DICT|INTERRES
   241  121  123 2    
   242  122  242 1    
   243  122  243 1    
   244  124  125 1    
   245  124  244 1    
   246  124  245 1    
   247  125  126 1    
   248  126  246 1    
   249  126  247 1    
@<TRIPOS>SUBSTRUCTURE
     1 UNK         1 GROUP             0       ****    0 ROOT    
