@<TRIPOS>MOLECULE
3R540
247   249    1
SMALL
USER_CHARGES


@<TRIPOS>ATOM
      1 CA         -1.7417   -9.4277  -47.5459 C.3       0 UNK        -0.1800 
      2 C          -0.8568  -10.4555  -48.2377 C.2       0 UNK         0.5000 
      3 O           0.2352  -10.1153  -48.6935 O.2       0 UNK        -0.5000 
      4 N          -1.3282  -11.7050  -48.3253 N.am      1 UNK        -0.5000 
      5 CA         -0.5812  -12.8450  -48.8645 C.3       1 UNK         0.1400 
      6 C6         -1.5435  -13.9891  -49.2768 C.3       23 UNK        -0.0398 
      7 S7         -0.8058  -15.1135  -50.5111 S.3       23 UNK        -0.2404 
      8 C8         -0.8708  -16.7138  -49.6394 C.3       23 UNK        -0.0205 
      9 C9         -0.0057  -17.7737  -50.3105 C.ar      23 UNK        -0.0193 
     10 C10        -0.1432  -18.0470  -51.6743 C.ar      23 UNK        -0.1150 
     11 C11         0.6637  -19.0016  -52.3022 C.ar      23 UNK        -0.0193 
     12 C12         1.5935  -19.7158  -51.5403 C.ar      23 UNK        -0.1150 
     13 C13         1.7192  -19.4778  -50.1671 C.ar      23 UNK        -0.0193 
     14 C14         0.9266  -18.4981  -49.5626 C.ar      23 UNK        -0.1150 
     15 C15         2.7112  -20.2788  -49.3364 C.3       23 UNK        -0.0205 
     16 S16         1.9772  -21.8194  -48.6972 S.3       23 UNK        -0.2404 
     17 C17         0.9845  -21.2039  -47.2949 C.3       23 UNK        -0.0398 
     18 CA          0.3585  -22.3524  -46.4645 C.3       11 UNK         0.1400 
     19 N           0.1625  -21.9770  -45.0632 N.am      11 UNK        -0.5000 
     20 C          -0.1405  -22.8391  -44.0826 C.2       10 UNK         0.5000 
     21 O          -0.2380  -24.0551  -44.2478 O.2       10 UNK        -0.5000 
     22 CA         -0.4299  -22.2371  -42.6953 C.3       10 UNK         0.1400 
     23 CB          0.8754  -21.9264  -41.9481 C.3       10 UNK        -0.1800 
     24 N          -1.2582  -21.0323  -42.7690 N.am      10 UNK        -0.5000 
     25 C          -2.5178  -21.0115  -43.2286 C.2       9 UNK         0.5000 
     26 O          -3.1293  -22.0172  -43.5885 O.2       9 UNK        -0.5000 
     27 CA         -3.1946  -19.6348  -43.3504 C.3       9 UNK         0.1400 
     28 CB         -3.7356  -19.1712  -41.9899 C.3       9 UNK        -0.1800 
     29 N          -2.3085  -18.6111  -43.9059 N.am      9 UNK        -0.5000 
     30 C          -1.7673  -18.6515  -45.1322 C.2       8 UNK         0.5000 
     31 O          -1.9757  -19.5478  -45.9469 O.2       8 UNK        -0.5000 
     32 CA         -0.7781  -17.5325  -45.4928 C.3       8 UNK         0.1400 
     33 CB         -1.5232  -16.2375  -45.8410 C.3       8 UNK        -0.1800 
     34 N           0.1903  -17.2845  -44.4259 N.am      8 UNK        -0.5000 
     35 C           1.0726  -18.1897  -43.9782 C.2       7 UNK         0.5000 
     36 O           1.2057  -19.3138  -44.4607 O.2       7 UNK        -0.5000 
     37 CA          1.9040  -17.7923  -42.7479 C.3       7 UNK         0.1400 
     38 CB          3.1259  -16.9513  -43.1508 C.3       7 UNK        -0.1800 
     39 N           1.0974  -17.0677  -41.7653 N.am      7 UNK        -0.5000 
     40 C           0.1253  -17.6275  -41.0300 C.2       6 UNK         0.5000 
     41 O          -0.1607  -18.8241  -41.0732 O.2       6 UNK        -0.5000 
     42 CA         -0.6891  -16.6840  -40.1253 C.3       6 UNK         0.1400 
     43 CB          0.0450  -16.4384  -38.7987 C.3       6 UNK        -0.1800 
     44 N          -0.9756  -15.3994  -40.7658 N.am      6 UNK        -0.5000 
     45 C          -1.7741  -15.2452  -41.8318 C.2       5 UNK         0.5000 
     46 O          -2.3976  -16.1676  -42.3544 O.2       5 UNK        -0.5000 
     47 CA         -1.8474  -13.8342  -42.4490 C.3       5 UNK         0.1400 
     48 CB         -2.9689  -13.0163  -41.7921 C.3       5 UNK        -0.1800 
     49 N          -0.5868  -13.0897  -42.3612 N.am      5 UNK        -0.5000 
     50 C           0.5690  -13.4901  -42.9060 C.2       4 UNK         0.5000 
     51 O           0.6992  -14.5451  -43.5343 O.2       4 UNK        -0.5000 
     52 CA          1.7945  -12.6047  -42.6452 C.3       4 UNK         0.1400 
     53 CB          2.2821  -12.7822  -41.1931 C.3       4 UNK        -0.1800 
     54 N           2.8373  -13.0037  -43.5807 N.am      4 UNK        -0.5000 
     55 C           3.9851  -12.3668  -43.8355 C.2       3 UNK         0.5000 
     56 O           4.3165  -11.3080  -43.3011 O.2       3 UNK        -0.5000 
     57 CA          4.9285  -13.0300  -44.8592 C.3       3 UNK         0.1400 
     58 CB          5.9915  -13.8718  -44.1358 C.3       3 UNK        -0.1800 
     59 N           4.2166  -13.8857  -45.8118 N.am      3 UNK        -0.5000 
     60 C           3.4821  -13.4316  -46.8358 C.2       2 UNK         0.5000 
     61 O           3.4252  -12.2402  -47.1498 O.2       2 UNK        -0.5000 
     62 CA          2.7128  -14.4901  -47.6596 C.3       2 UNK         0.1400 
     63 CB          2.2739  -15.7103  -46.8191 C.3       2 UNK        -0.1800 
     64 N           1.5633  -13.9325  -48.3820 N.am      2 UNK        -0.5000 
     65 C           0.4912  -13.3205  -47.8571 C.2       1 UNK         0.5000 
     66 O           0.3137  -13.1485  -46.6483 O.2       1 UNK        -0.5000 
     67 C          -0.9454  -22.8904  -47.0933 C.2       11 UNK         0.5000 
     68 O          -0.9185  -23.9431  -47.7276 O.2       11 UNK        -0.5000 
     69 N          -2.0704  -22.1967  -46.8635 N.am      12 UNK        -0.5000 
     70 CA         -3.4092  -22.5735  -47.3283 C.3       12 UNK         0.1400 
     71 CB         -4.3973  -21.4444  -47.0014 C.3       12 UNK        -0.1800 
     72 C          -3.9099  -23.9148  -46.7629 C.2       12 UNK         0.5000 
     73 O          -4.6159  -24.6433  -47.4603 O.2       12 UNK        -0.5000 
     74 N          -3.5257  -24.2296  -45.5192 N.am      13 UNK        -0.5000 
     75 CA         -3.7779  -25.5235  -44.8875 C.3       13 UNK         0.1400 
     76 CB         -3.5255  -25.4087  -43.3766 C.3       13 UNK        -0.1800 
     77 C          -2.9287  -26.6555  -45.4988 C.2       13 UNK         0.5000 
     78 O          -3.3915  -27.7960  -45.5506 O.2       13 UNK        -0.5000 
     79 N          -1.7083  -26.3275  -45.9446 N.am      14 UNK        -0.5000 
     80 CA         -0.7696  -27.2658  -46.5550 C.3       14 UNK         0.1400 
     81 CB          0.6635  -26.7318  -46.4001 C.3       14 UNK        -0.1800 
     82 C          -1.0876  -27.5577  -48.0329 C.2       14 UNK         0.5000 
     83 O          -0.9628  -28.7103  -48.4503 O.2       14 UNK        -0.5000 
     84 N          -1.4771  -26.5299  -48.7991 N.am      15 UNK        -0.5000 
     85 CA         -1.7315  -26.6185  -50.2343 C.3       15 UNK         0.1400 
     86 CB         -0.4815  -26.1521  -50.9996 C.3       15 UNK        -0.1800 
     87 C          -2.9450  -25.7666  -50.6256 C.2       15 UNK         0.5000 
     88 O          -3.0114  -24.5875  -50.2740 O.2       15 UNK        -0.5000 
     89 N          -3.8497  -26.3545  -51.4202 N.am      16 UNK        -0.5000 
     90 CA         -5.0480  -25.6991  -51.9546 C.3       16 UNK         0.1400 
     91 CB         -5.9357  -26.7486  -52.6391 C.3       16 UNK        -0.1800 
     92 C          -4.7405  -24.5400  -52.9233 C.2       16 UNK         0.5000 
     93 O          -5.5444  -23.6158  -53.0349 O.2       16 UNK        -0.5000 
     94 N          -3.5678  -24.5773  -53.5723 N.am      17 UNK        -0.5000 
     95 CA         -3.0558  -23.5007  -54.4227 C.3       17 UNK         0.1400 
     96 CB         -1.7660  -23.9663  -55.1136 C.3       17 UNK        -0.1800 
     97 C          -2.8060  -22.1946  -53.6461 C.2       17 UNK         0.5000 
     98 O          -3.0231  -21.1132  -54.1904 O.2       17 UNK        -0.5000 
     99 N          -2.3894  -22.3119  -52.3789 N.am      18 UNK        -0.5000 
    100 CA        -2.1882  -21.1769  -51.4830 C.3       18 UNK         0.1400 
    101 CB        -1.2270  -21.5789  -50.3658 C.3       18 UNK        -0.1800 
    102 C         -3.5099  -20.6282  -50.9259 C.2       18 UNK         0.5000 
    103 O         -3.6316  -19.4158  -50.7542 O.2       18 UNK        -0.5000 
    104 N         -4.5035  -21.5076  -50.7268 N.am      19 UNK        -0.5000 
    105 CA        -5.8808  -21.1271  -50.3950 C.3       19 UNK         0.1400 
    106 CB        -6.6847  -22.3772  -50.0052 C.3       19 UNK        -0.1800 
    107 C         -6.5644  -20.3649  -51.5494 C.2       19 UNK         0.5000 
    108 O         -7.3509  -19.4516  -51.3006 O.2       19 UNK        -0.5000 
    109 N         -6.1992  -20.7186  -52.7888 N.am      20 UNK        -0.5000 
    110 CA        -6.5732  -20.0352  -54.0272 C.3       20 UNK         0.1400 
    111 CB        -6.5107  -21.0520  -55.1798 C.3       20 UNK        -0.1800 
    112 C         -5.7039  -18.7938  -54.3361 C.2       20 UNK         0.5000 
    113 O         -5.8436  -18.2266  -55.4213 O.2       20 UNK        -0.5000 
    114 N         -4.8118  -18.4002  -53.4116 N.am      21 UNK        -0.5000 
    115 CA        -3.9091  -17.2430  -53.4779 C.3       21 UNK         0.1400 
    116 CB        -4.7094  -15.9304  -53.3561 C.3       21 UNK        -0.1800 
    117 C         -2.9688  -17.2664  -54.7032 C.2       21 UNK         0.5000 
    118 O         -2.7177  -16.2276  -55.3162 O.2       21 UNK        -0.5000 
    119 N         -2.4869  -18.4686  -55.0388 N.am      22 UNK        -0.5000 
    120 CA        -1.6442  -18.8068  -56.1975 C.3       22 UNK         0.1400 
    121 C         -2.4124  -18.8377  -57.5548 C.2       22 UNK         0.5000 
    122 N         -3.7335  -18.6996  -57.5880 N.am      22 UNK        -0.7600 
    123 O         -1.8016  -19.0221  -58.6043 O.2       22 UNK        -0.5000 
    124 C124       -0.3160  -17.9946  -56.2982 C.3       23 UNK        -0.0398 
    125 S125        0.6878  -17.7582  -54.7805 S.3       23 UNK        -0.2404 
    126 C126        0.4947  -19.2812  -53.7912 C.3       23 UNK        -0.0205 
    127 H127       -2.6803   -9.8645  -47.2039 H         1 UNK         0.0600 
    128 H128       -1.9758   -8.6120  -48.2299 H         1 UNK         0.0600 
    129 H129       -1.2259   -9.0113  -46.6806 H         1 UNK         0.0600 
    130 H130       -2.2157  -11.9254  -47.8975 H         1 UNK         0.3000 
    131 H131       -0.0665  -12.4941  -49.7621 H         1 UNK         0.0600 
    132 H132       -2.4358  -13.5700  -49.7442 H         1 UNK         0.0800 
    133 H133       -1.9003  -14.5427  -48.4069 H         1 UNK         0.0800 
    134 H134       -1.9028  -17.0664  -49.5997 H         1 UNK         0.0800 
    135 H135       -0.5463  -16.5650  -48.6094 H         1 UNK         0.0800 
    136 H136       -0.8705  -17.5001  -52.2563 H         1 UNK         0.1150 
    137 H137        2.2081  -20.4710  -52.0096 H         1 UNK         0.1150 
    138 H138        1.0303  -18.3125  -48.5041 H         1 UNK         0.1150 
    139 H139        3.5773  -20.5332  -49.9490 H         1 UNK         0.0800 
    140 H140        3.0929  -19.6776  -48.5097 H         1 UNK         0.0800 
    141 H141        0.2249  -20.5031  -47.6435 H         1 UNK         0.0800 
    142 H142        1.6636  -20.6233  -46.6703 H         1 UNK         0.0800 
    143 H143        1.0708  -23.1807  -46.4519 H         1 UNK         0.0600 
    144 H144        0.2688  -20.9928  -44.8348 H         1 UNK         0.3000 
    145 H145       -0.9800  -22.9841  -42.1191 H         1 UNK         0.0600 
    146 H146        0.6751  -21.5703  -40.9375 H         1 UNK         0.0600 
    147 H147        1.4627  -21.1641  -42.4602 H         1 UNK         0.0600 
    148 H148        1.4975  -22.8181  -41.8621 H         1 UNK         0.0600 
    149 H149       -0.8384  -20.1676  -42.4433 H         1 UNK         0.3000 
    150 H150       -4.0416  -19.7411  -44.0306 H         1 UNK         0.0600 
    151 H151       -4.4086  -19.9156  -41.5625 H         1 UNK         0.0600 
    152 H152       -4.2976  -18.2422  -42.0859 H         1 UNK         0.0600 
    153 H153       -2.9323  -19.0030  -41.2724 H         1 UNK         0.0600 
    154 H154       -2.1227  -17.8055  -43.3148 H         1 UNK         0.3000 
    155 H155       -0.2217  -17.8530  -46.3754 H         1 UNK         0.0600 
    156 H156       -2.2119  -16.3957  -46.6715 H         1 UNK         0.0600 
    157 H157       -0.8280  -15.4537  -46.1345 H         1 UNK         0.0600 
    158 H158       -2.1074  -15.8663  -45.0003 H         1 UNK         0.0600 
    159 H159        0.1815  -16.3625  -43.9993 H         1 UNK         0.3000 
    160 H160        2.2669  -18.7098  -42.2797 H         1 UNK         0.0600 
    161 H161        2.8399  -16.0248  -43.6459 H         1 UNK         0.0600 
    162 H162        3.7656  -17.5039  -43.8399 H         1 UNK         0.0600 
    163 H163        3.7313  -16.6931  -42.2818 H         1 UNK         0.0600 
    164 H164        1.2238  -16.0675  -41.7241 H         1 UNK         0.3000 
    165 H165       -1.6400  -17.1734  -39.9041 H         1 UNK         0.0600 
    166 H166       -0.5584  -15.8347  -38.1205 H         1 UNK         0.0600 
    167 H167        0.2584  -17.3802  -38.2913 H         1 UNK         0.0600 
    168 H168        0.9951  -15.9247  -38.9512 H         1 UNK         0.0600 
    169 H169       -0.5048  -14.5872  -40.3961 H         1 UNK         0.3000 
    170 H170       -2.0867  -13.9507  -43.5078 H         1 UNK         0.0600 
    171 H171       -2.7702  -12.8354  -40.7351 H         1 UNK         0.0600 
    172 H172       -3.0916  -12.0501  -42.2819 H         1 UNK         0.0600 
    173 H173       -3.9245  -13.5379  -41.8623 H         1 UNK         0.0600 
    174 H174       -0.6133  -12.2196  -41.8494 H         1 UNK         0.3000 
    175 H175        1.5247  -11.5634  -42.8307 H         1 UNK         0.0600 
    176 H176        2.5788  -13.8127  -40.9933 H         1 UNK         0.0600 
    177 H177        3.1374  -12.1426  -40.9766 H         1 UNK         0.0600 
    178 H178        1.5016  -12.5197  -40.4780 H         1 UNK         0.0600 
    179 H179        2.6031  -13.8375  -44.1041 H         1 UNK         0.3000 
    180 H180        5.4372  -12.2353  -45.4092 H         1 UNK         0.0600 
    181 H181        6.7023  -14.3018  -44.8418 H         1 UNK         0.0600 
    182 H182        5.5423  -14.6891  -43.5697 H         1 UNK         0.0600 
    183 H183        6.5614  -13.2614  -43.4341 H         1 UNK         0.0600 
    184 H184        4.2485  -14.8791  -45.6375 H         1 UNK         0.3000 
    185 H185        3.4051  -14.8447  -48.4244 H         1 UNK         0.0600 
    186 H186        1.6967  -15.4083  -45.9454 H         1 UNK         0.0600 
    187 H187        1.6532  -16.3851  -47.4052 H         1 UNK         0.0600 
    188 H188        3.1285  -16.2905  -46.4705 H         1 UNK         0.0600 
    189 H189        1.6144  -14.0108  -49.3880 H         1 UNK         0.3000 
    190 H190       -2.0067  -21.3124  -46.3622 H         1 UNK         0.3000 
    191 H191       -3.3683  -22.6812  -48.4116 H         1 UNK         0.0600 
    192 H192       -4.1231  -20.5222  -47.5143 H         1 UNK         0.0600 
    193 H193       -4.4285  -21.2378  -45.9320 H         1 UNK         0.0600 
    194 H194       -5.4098  -21.7022  -47.3117 H         1 UNK         0.0600 
    195 H195       -3.0229  -23.5389  -44.9719 H         1 UNK         0.3000 
    196 H196       -4.8293  -25.7787  -45.0360 H         1 UNK         0.0600 
    197 H197       -4.1685  -24.6522  -42.9263 H         1 UNK         0.0600 
    198 H198       -2.4915  -25.1397  -43.1596 H         1 UNK         0.0600 
    199 H199       -3.7322  -26.3538  -42.8730 H         1 UNK         0.0600 
    200 H200       -1.4026  -25.3655  -45.8682 H         1 UNK         0.3000 
    201 H201       -0.8268  -28.2115  -46.0117 H         1 UNK         0.0600 
    202 H202        0.9101  -26.5638  -45.3516 H         1 UNK         0.0600 
    203 H203        0.8073  -25.7909  -46.9312 H         1 UNK         0.0600 
    204 H204        1.3887  -27.4440  -46.7957 H         1 UNK         0.0600 
    205 H205       -1.5311  -25.5951  -48.3976 H         1 UNK         0.3000 
    206 H206       -1.9416  -27.6533  -50.5131 H         1 UNK         0.0600 
    207 H207       -0.2139  -25.1261  -50.7408 H         1 UNK         0.0600 
    208 H208        0.3763  -26.7865  -50.7761 H         1 UNK         0.0600 
    209 H209       -0.6420  -26.1898  -52.0778 H         1 UNK         0.0600 
    210 H210       -3.7180  -27.3216  -51.6797 H         1 UNK         0.3000 
    211 H211       -5.6015  -25.2801  -51.1115 H         1 UNK         0.0600 
    212 H212       -5.4255  -27.2222  -53.4788 H         1 UNK         0.0600 
    213 H213       -6.8502  -26.2952  -53.0240 H         1 UNK         0.0600 
    214 H214       -6.2326  -27.5310  -51.9404 H         1 UNK         0.0600 
    215 H215       -2.9685  -25.3773  -53.4353 H         1 UNK         0.3000 
    216 H216       -3.8027  -23.2925  -55.1916 H         1 UNK         0.0600 
    217 H217       -1.3716  -23.1877  -55.7682 H         1 UNK         0.0600 
    218 H218       -1.9446  -24.8476  -55.7300 H         1 UNK         0.0600 
    219 H219       -0.9873  -24.2132  -54.3906 H         1 UNK         0.0600 
    220 H220       -2.2813  -23.2327  -51.9744 H         1 UNK         0.3000 
    221 H221       -1.7263  -20.3669  -52.0452 H         1 UNK         0.0600 
    222 H222       -1.1138  -20.7772  -49.6357 H         1 UNK         0.0600 
    223 H223       -1.5757  -22.4652  -49.8436 H         1 UNK         0.0600 
    224 H224       -0.2393  -21.8047  -50.7659 H         1 UNK         0.0600 
    225 H225       -4.3237  -22.4883  -50.8921 H         1 UNK         0.3000 
    226 H226       -5.8450  -20.4608  -49.5307 H         1 UNK         0.0600 
    227 H227       -6.1739  -22.9600  -49.2389 H         1 UNK         0.0600 
    228 H228       -7.6607  -22.0982  -49.6068 H         1 UNK         0.0600 
    229 H229       -6.8597  -23.0317  -50.8582 H         1 UNK         0.0600 
    230 H230       -5.6073  -21.5349  -52.8934 H         1 UNK         0.3000 
    231 H231       -7.6049  -19.6897  -53.9378 H         1 UNK         0.0600 
    232 H232       -6.8762  -20.6167  -56.1106 H         1 UNK         0.0600 
    233 H233       -7.1262  -21.9267  -54.9688 H         1 UNK         0.0600 
    234 H234       -5.4917  -21.3957  -55.3572 H         1 UNK         0.0600 
    235 H235       -4.7429  -18.9424  -52.5595 H         1 UNK         0.3000 
    236 H236       -3.2638  -17.3125  -52.6013 H         1 UNK         0.0600 
    237 H237       -5.3505  -15.7657  -54.2227 H         1 UNK         0.0600 
    238 H238       -5.3403  -15.9358  -52.4672 H         1 UNK         0.0600 
    239 H239       -4.0421  -15.0718  -53.2728 H         1 UNK         0.0600 
    240 H240       -2.8053  -19.2808  -54.5158 H         1 UNK         0.3000 
    241 H241       -1.3644  -19.8485  -56.0418 H         1 UNK         0.0600 
    242 H242       -4.2087  -18.7335  -58.4758 H         1 UNK         0.3800 
    243 H243       -4.2683  -18.5328  -56.7436 H         1 UNK         0.3800 
    244 H244       -0.5277  -16.9985  -56.6896 H         1 UNK         0.0800 
    245 H245        0.3371  -18.4610  -57.0374 H         1 UNK         0.0800 
    246 H246        1.2245  -20.0152  -54.1359 H         1 UNK         0.0800 
    247 H247       -0.4821  -19.7347  -53.9343 H         1 UNK         0.0800 
@<TRIPOS>BOND
     1    1    2 1    
     2    1  127 1    
     3    1  128 1    
     4    1  129 1    
     5    2    3 2    
     6    2    4 am   BACKBONE|DICT|INTERRES
     7    4    5 1    
     8    4  130 1    
     9    5    6 1    
    10    5   65 1    
    11    5  131 1    
    12    6    7 1    
    13    6  132 1    
    14    6  133 1    
    15    7    8 1    
    16    8    9 1    
    17    8  134 1    
    18    8  135 1    
    19    9   10 ar   
    20    9   14 ar   
    21   10   11 ar   
    22   10  136 1    
    23   11   12 ar   
    24   11  126 1    
    25   12   13 ar   
    26   12  137 1    
    27   13   14 ar   
    28   13   15 1    
    29   14  138 1    
    30   15   16 1    
    31   15  139 1    
    32   15  140 1    
    33   16   17 1    
    34   17   18 1    
    35   17  141 1    
    36   17  142 1    
    37   18   19 1    
    38   18   67 1    
    39   18  143 1    
    40   19   20 am   BACKBONE|DICT|INTERRES
    41   19  144 1    
    42   20   21 2    
    43   20   22 1    
    44   22   23 1    
    45   22   24 1    
    46   22  145 1    
    47   23  146 1    
    48   23  147 1    
    49   23  148 1    
    50   24   25 am   BACKBONE|DICT|INTERRES
    51   24  149 1    
    52   25   26 2    
    53   25   27 1    
    54   27   28 1    
    55   27   29 1    
    56   27  150 1    
    57   28  151 1    
    58   28  152 1    
    59   28  153 1    
    60   29   30 am   BACKBONE|DICT|INTERRES
    61   29  154 1    
    62   30   31 2    
    63   30   32 1    
    64   32   33 1    
    65   32   34 1    
    66   32  155 1    
    67   33  156 1    
    68   33  157 1    
    69   33  158 1    
    70   34   35 am   BACKBONE|DICT|INTERRES
    71   34  159 1    
    72   35   36 2    
    73   35   37 1    
    74   37   38 1    
    75   37   39 1    
    76   37  160 1    
    77   38  161 1    
    78   38  162 1    
    79   38  163 1    
    80   39   40 am   BACKBONE|DICT|INTERRES
    81   39  164 1    
    82   40   41 2    
    83   40   42 1    
    84   42   43 1    
    85   42   44 1    
    86   42  165 1    
    87   43  166 1    
    88   43  167 1    
    89   43  168 1    
    90   44   45 am   BACKBONE|DICT|INTERRES
    91   44  169 1    
    92   45   46 2    
    93   45   47 1    
    94   47   48 1    
    95   47   49 1    
    96   47  170 1    
    97   48  171 1    
    98   48  172 1    
    99   48  173 1    
   100   49   50 am   BACKBONE|DICT|INTERRES
   101   49  174 1    
   102   50   51 2    
   103   50   52 1    
   104   52   53 1    
   105   52   54 1    
   106   52  175 1    
   107   53  176 1    
   108   53  177 1    
   109   53  178 1    
   110   54   55 am   BACKBONE|DICT|INTERRES
   111   54  179 1    
   112   55   56 2    
   113   55   57 1    
   114   57   58 1    
   115   57   59 1    
   116   57  180 1    
   117   58  181 1    
   118   58  182 1    
   119   58  183 1    
   120   59   60 am   BACKBONE|DICT|INTERRES
   121   59  184 1    
   122   60   61 2    
   123   60   62 1    
   124   62   63 1    
   125   62   64 1    
   126   62  185 1    
   127   63  186 1    
   128   63  187 1    
   129   63  188 1    
   130   64   65 am   BACKBONE|DICT|INTERRES
   131   64  189 1    
   132   65   66 2    
   133   67   68 2    
   134   67   69 am   BACKBONE|DICT|INTERRES
   135   69   70 1    
   136   69  190 1    
   137   70   71 1    
   138   70   72 1    
   139   70  191 1    
   140   71  192 1    
   141   71  193 1    
   142   71  194 1    
   143   72   73 2    
   144   72   74 am   BACKBONE|DICT|INTERRES
   145   74   75 1    
   146   74  195 1    
   147   75   76 1    
   148   75   77 1    
   149   75  196 1    
   150   76  197 1    
   151   76  198 1    
   152   76  199 1    
   153   77   78 2    
   154   77   79 am   BACKBONE|DICT|INTERRES
   155   79   80 1    
   156   79  200 1    
   157   80   81 1    
   158   80   82 1    
   159   80  201 1    
   160   81  202 1    
   161   81  203 1    
   162   81  204 1    
   163   82   83 2    
   164   82   84 am   BACKBONE|DICT|INTERRES
   165   84   85 1    
   166   84  205 1    
   167   85   86 1    
   168   85   87 1    
   169   85  206 1    
   170   86  207 1    
   171   86  208 1    
   172   86  209 1    
   173   87   88 2    
   174   87   89 am   BACKBONE|DICT|INTERRES
   175   89   90 1    
   176   89  210 1    
   177   90   91 1    
   178   90   92 1    
   179   90  211 1    
   180   91  212 1    
   181   91  213 1    
   182   91  214 1    
   183   92   93 2    
   184   92   94 am   BACKBONE|DICT|INTERRES
   185   94   95 1    
   186   94  215 1    
   187   95   96 1    
   188   95   97 1    
   189   95  216 1    
   190   96  217 1    
   191   96  218 1    
   192   96  219 1    
   193   97   98 2    
   194   97   99 am   BACKBONE|DICT|INTERRES
   195   99  100 1    
   196   99  220 1    
   197  100  101 1    
   198  100  102 1    
   199  100  221 1    
   200  101  222 1    
   201  101  223 1    
   202  101  224 1    
   203  102  103 2    
   204  102  104 am   BACKBONE|DICT|INTERRES
   205  104  105 1    
   206  104  225 1    
   207  105  106 1    
   208  105  107 1    
   209  105  226 1    
   210  106  227 1    
   211  106  228 1    
   212  106  229 1    
   213  107  108 2    
   214  107  109 am   BACKBONE|DICT|INTERRES
   215  109  110 1    
   216  109  230 1    
   217  110  111 1    
   218  110  112 1    
   219  110  231 1    
   220  111  232 1    
   221  111  233 1    
   222  111  234 1    
   223  112  113 2    
   224  112  114 am   BACKBONE|DICT|INTERRES
   225  114  115 1    
   226  114  235 1    
   227  115  116 1    
   228  115  117 1    
   229  115  236 1    
   230  116  237 1    
   231  116  238 1    
   232  116  239 1    
   233  117  118 2    
   234  117  119 am   BACKBONE|DICT|INTERRES
   235  119  120 1    
   236  119  240 1    
   237  120  121 1    
   238  120  124 1    
   239  120  241 1    
   240  121  122 am   BACKBONE|DICT|INTERRES
   241  121  123 2    
   242  122  242 1    
   243  122  243 1    
   244  124  125 1    
   245  124  244 1    
   246  124  245 1    
   247  125  126 1    
   248  126  246 1    
   249  126  247 1    
@<TRIPOS>SUBSTRUCTURE
     1 UNK         1 GROUP             0       ****    0 ROOT    
