@<TRIPOS>MOLECULE
3R540
247   249    1
SMALL
USER_CHARGES


@<TRIPOS>ATOM
      1 CA         -5.6278  -15.7202  -49.1584 C.3       0 UNK        -0.1800 
      2 C          -4.3765  -16.1012  -48.3812 C.2       0 UNK         0.5000 
      3 O          -4.1427  -17.2857  -48.1564 O.2       0 UNK        -0.5000 
      4 N          -3.5824  -15.1007  -47.9720 N.am      1 UNK        -0.5000 
      5 CA         -2.2926  -15.2291  -47.2689 C.3       1 UNK         0.1400 
      6 C6         -1.2237  -16.0338  -48.0589 C.3       23 UNK        -0.0398 
      7 S7         -0.8707  -15.2528  -49.6724 S.3       23 UNK        -0.2404 
      8 C8          0.9411  -15.3630  -49.7697 C.3       23 UNK        -0.0205 
      9 C9          1.3960  -16.7254  -50.2692 C.ar      23 UNK        -0.0193 
     10 C10         1.3913  -16.9989  -51.6397 C.ar      23 UNK        -0.1150 
     11 C11         1.8431  -18.2300  -52.1213 C.ar      23 UNK        -0.0193 
     12 C12         2.3195  -19.1852  -51.2199 C.ar      23 UNK        -0.1150 
     13 C13         2.2984  -18.9387  -49.8438 C.ar      23 UNK        -0.0193 
     14 C14         1.8362  -17.7053  -49.3750 C.ar      23 UNK        -0.1150 
     15 C15         2.7633  -20.0071  -48.8609 C.3       23 UNK        -0.0205 
     16 S16         1.8873  -21.5906  -49.0833 S.3       23 UNK        -0.2404 
     17 C17         0.1489  -21.0730  -48.8895 C.3       23 UNK        -0.0398 
     18 CA         -0.6255  -21.9566  -47.8911 C.3       11 UNK         0.1400 
     19 N          -0.0381  -21.9332  -46.5499 N.am      11 UNK        -0.5000 
     20 C          -0.2362  -22.8810  -45.6235 C.2       10 UNK         0.5000 
     21 O          -0.9355  -23.8774  -45.8062 O.2       10 UNK        -0.5000 
     22 CA          0.3958  -22.6312  -44.2399 C.3       10 UNK         0.1400 
     23 CB          1.8679  -23.0677  -44.2291 C.3       10 UNK        -0.1800 
     24 N           0.3020  -21.2265  -43.8354 N.am      10 UNK        -0.5000 
     25 C          -0.8573  -20.5745  -43.6629 C.2       9 UNK         0.5000 
     26 O          -1.9526  -21.1310  -43.7147 O.2       9 UNK        -0.5000 
     27 CA         -0.8133  -19.0493  -43.4587 C.3       9 UNK         0.1400 
     28 CB         -1.1928  -18.6804  -42.0168 C.3       9 UNK        -0.1800 
     29 N           0.4659  -18.4306  -43.8058 N.am      9 UNK        -0.5000 
     30 C           1.0024  -18.3678  -45.0338 C.2       8 UNK         0.5000 
     31 O           0.4899  -18.8709  -46.0354 O.2       8 UNK        -0.5000 
     32 CA          2.3727  -17.6692  -45.1404 C.3       8 UNK         0.1400 
     33 CB          2.1969  -16.1976  -45.5444 C.3       8 UNK        -0.1800 
     34 N           3.1517  -17.7299  -43.8985 N.am      8 UNK        -0.5000 
     35 C           3.6410  -18.8538  -43.3541 C.2       7 UNK         0.5000 
     36 O           3.4406  -19.9712  -43.8338 O.2       7 UNK        -0.5000 
     37 CA          4.4445  -18.7127  -42.0409 C.3       7 UNK         0.1400 
     38 CB          5.3973  -19.9019  -41.8000 C.3       7 UNK        -0.1800 
     39 N           5.1658  -17.4415  -41.8980 N.am      7 UNK        -0.5000 
     40 C           6.1240  -16.9411  -42.6919 C.2       6 UNK         0.5000 
     41 O           6.5140  -17.4955  -43.7209 O.2       6 UNK        -0.5000 
     42 CA          6.7459  -15.5919  -42.2554 C.3       6 UNK         0.1400 
     43 CB          7.6471  -14.9758  -43.3411 C.3       6 UNK        -0.1800 
     44 N           5.7364  -14.6008  -41.8730 N.am      6 UNK        -0.5000 
     45 C           5.0820  -14.5513  -40.7058 C.2       5 UNK         0.5000 
     46 O           5.2877  -15.3398  -39.7817 O.2       5 UNK        -0.5000 
     47 CA          3.9574  -13.5031  -40.5614 C.3       5 UNK         0.1400 
     48 CB          3.9957  -12.3833  -41.6262 C.3       5 UNK        -0.1800 
     49 N           2.6389  -14.1469  -40.5431 N.am      5 UNK        -0.5000 
     50 C           2.1352  -14.9591  -41.4833 C.2       4 UNK         0.5000 
     51 O           2.7182  -15.2423  -42.5292 O.2       4 UNK        -0.5000 
     52 CA          0.7626  -15.5966  -41.2211 C.3       4 UNK         0.1400 
     53 CB          0.4868  -15.9160  -39.7356 C.3       4 UNK        -0.1800 
     54 N          -0.3218  -14.8289  -41.8354 N.am      4 UNK        -0.5000 
     55 C          -0.7733  -13.6177  -41.4770 C.2       3 UNK         0.5000 
     56 O          -0.3114  -12.9613  -40.5428 O.2       3 UNK        -0.5000 
     57 CA         -1.9436  -13.0272  -42.2942 C.3       3 UNK         0.1400 
     58 CB         -1.4495  -11.8601  -43.1638 C.3       3 UNK        -0.1800 
     59 N          -2.6356  -13.9877  -43.1594 N.am      3 UNK        -0.5000 
     60 C          -3.3724  -15.0336  -42.7585 C.2       2 UNK         0.5000 
     61 O          -3.5727  -15.3035  -41.5742 O.2       2 UNK        -0.5000 
     62 CA         -3.9869  -15.9359  -43.8540 C.3       2 UNK         0.1400 
     63 CB         -5.5189  -15.9791  -43.7363 C.3       2 UNK        -0.1800 
     64 N          -3.6395  -15.5579  -45.2291 N.am      2 UNK        -0.5000 
     65 C          -2.4351  -15.6967  -45.8011 C.2       1 UNK         0.5000 
     66 O          -1.4537  -16.1147  -45.1880 O.2       1 UNK        -0.5000 
     67 C          -2.1146  -21.5591  -47.8726 C.2       11 UNK         0.5000 
     68 O          -2.8468  -21.9503  -48.7820 O.2       11 UNK        -0.5000 
     69 N          -2.5411  -20.8030  -46.8506 N.am      12 UNK        -0.5000 
     70 CA         -3.9424  -20.4607  -46.6067 C.3       12 UNK         0.1400 
     71 CB         -4.0349  -19.2717  -45.6379 C.3       12 UNK        -0.1800 
     72 C          -4.7110  -21.6731  -46.0565 C.2       12 UNK         0.5000 
     73 O          -5.8014  -21.9707  -46.5407 O.2       12 UNK        -0.5000 
     74 N          -4.1039  -22.3800  -45.0914 N.am      13 UNK        -0.5000 
     75 CA         -4.6180  -23.6119  -44.4890 C.3       13 UNK         0.1400 
     76 CB         -3.7279  -24.0049  -43.3003 C.3       13 UNK        -0.1800 
     77 C          -4.7244  -24.7707  -45.4974 C.2       13 UNK         0.5000 
     78 O          -5.7022  -25.5183  -45.4652 O.2       13 UNK        -0.5000 
     79 N          -3.7408  -24.8689  -46.4028 N.am      14 UNK        -0.5000 
     80 CA         -3.7392  -25.7978  -47.5363 C.3       14 UNK         0.1400 
     81 CB         -2.3066  -25.9036  -48.0825 C.3       14 UNK        -0.1800 
     82 C          -4.7073  -25.3896  -48.6679 C.2       14 UNK         0.5000 
     83 O          -4.9519  -26.1956  -49.5653 O.2       14 UNK        -0.5000 
     84 N          -5.2023  -24.1428  -48.6263 N.am      15 UNK        -0.5000 
     85 CA         -6.0662  -23.4610  -49.5980 C.3       15 UNK         0.1400 
     86 CB         -7.4085  -24.1979  -49.7747 C.3       15 UNK        -0.1800 
     87 C          -5.3883  -23.1554  -50.9491 C.2       15 UNK         0.5000 
     88 O          -6.0515  -22.6518  -51.8552 O.2       15 UNK        -0.5000 
     89 N          -4.0787  -23.4105  -51.0593 N.am      16 UNK        -0.5000 
     90 CA         -3.2686  -23.1674  -52.2493 C.3       16 UNK         0.1400 
     91 CB         -1.8821  -23.8006  -52.0613 C.3       16 UNK        -0.1800 
     92 C          -3.1443  -21.6721  -52.5751 C.2       16 UNK         0.5000 
     93 O          -3.2571  -21.2986  -53.7416 O.2       16 UNK        -0.5000 
     94 N          -2.9502  -20.8398  -51.5435 N.am      17 UNK        -0.5000 
     95 CA         -2.8904  -19.3837  -51.6895 C.3       17 UNK         0.1400 
     96 CB         -2.1852  -18.7617  -50.4797 C.3       17 UNK        -0.1800 
     97 C          -4.2770  -18.7528  -51.9042 C.2       17 UNK         0.5000 
     98 O          -4.3769  -17.7365  -52.5909 O.2       17 UNK        -0.5000 
     99 N          -5.3230  -19.3812  -51.3492 N.am      18 UNK        -0.5000 
    100 CA        -6.7182  -18.9757  -51.5246 C.3       18 UNK         0.1400 
    101 CB        -7.5936  -19.6816  -50.4777 C.3       18 UNK        -0.1800 
    102 C         -7.2230  -19.2523  -52.9532 C.2       18 UNK         0.5000 
    103 O         -7.8962  -18.4032  -53.5377 O.2       18 UNK        -0.5000 
    104 N         -6.8594  -20.4210  -53.4991 N.am      19 UNK        -0.5000 
    105 CA        -7.1568  -20.8332  -54.8720 C.3       19 UNK         0.1400 
    106 CB        -7.0208  -22.3618  -54.9625 C.3       19 UNK        -0.1800 
    107 C         -6.2506  -20.1640  -55.9249 C.2       19 UNK         0.5000 
    108 O         -6.5812  -20.2088  -57.1103 O.2       19 UNK        -0.5000 
    109 N         -5.1179  -19.5960  -55.4816 N.am      20 UNK        -0.5000 
    110 CA        -4.0068  -19.0709  -56.2861 C.3       20 UNK         0.1400 
    111 CB        -4.4439  -17.8507  -57.1222 C.3       20 UNK        -0.1800 
    112 C         -3.3206  -20.1754  -57.1219 C.2       20 UNK         0.5000 
    113 O         -2.8781  -19.9333  -58.2459 O.2       20 UNK        -0.5000 
    114 N         -3.2487  -21.3758  -56.5362 N.am      21 UNK        -0.5000 
    115 CA        -2.6400  -22.5828  -57.0919 C.3       21 UNK         0.1400 
    116 CB        -3.5339  -23.7783  -56.7226 C.3       21 UNK        -0.1800 
    117 C         -1.2051  -22.7989  -56.5702 C.2       21 UNK         0.5000 
    118 O         -0.5370  -23.7345  -57.0112 O.2       21 UNK        -0.5000 
    119 N         -0.7606  -21.9468  -55.6373 N.am      22 UNK        -0.5000 
    120 CA         0.5631  -21.9699  -54.9966 C.3       22 UNK         0.1400 
    121 C          1.7814  -21.6779  -55.9258 C.2       22 UNK         0.5000 
    122 N          1.5917  -21.1832  -57.1429 N.am      22 UNK        -0.7600 
    123 O          2.9209  -21.9125  -55.5332 O.2       22 UNK        -0.5000 
    124 C124        0.5797  -21.0724  -53.7325 C.3       23 UNK        -0.0398 
    125 S125        0.2336  -19.3106  -54.0885 S.3       23 UNK        -0.2404 
    126 C126        1.8050  -18.5232  -53.6130 C.3       23 UNK        -0.0205 
    127 H127       -5.7900  -14.6423  -49.1646 H         1 UNK         0.0600 
    128 H128       -6.5042  -16.1945  -48.7168 H         1 UNK         0.0600 
    129 H129       -5.5392  -16.0583  -50.1907 H         1 UNK         0.0600 
    130 H130       -3.8447  -14.1524  -48.2029 H         1 UNK         0.3000 
    131 H131       -1.9149  -14.2091  -47.1838 H         1 UNK         0.0600 
    132 H132       -0.2969  -16.0923  -47.4906 H         1 UNK         0.0800 
    133 H133       -1.5368  -17.0662  -48.2140 H         1 UNK         0.0800 
    134 H134        1.3906  -15.1282  -48.8042 H         1 UNK         0.0800 
    135 H135        1.2969  -14.5945  -50.4575 H         1 UNK         0.0800 
    136 H136        1.0303  -16.2515  -52.3324 H         1 UNK         0.1150 
    137 H137        2.6849  -20.1348  -51.5818 H         1 UNK         0.1150 
    138 H138        1.8205  -17.5098  -48.3139 H         1 UNK         0.1150 
    139 H139        2.6249  -19.6761  -47.8310 H         1 UNK         0.0800 
    140 H140        3.8334  -20.1706  -48.9936 H         1 UNK         0.0800 
    141 H141       -0.3082  -21.1230  -49.8791 H         1 UNK         0.0800 
    142 H142        0.1019  -20.0282  -48.5771 H         1 UNK         0.0800 
    143 H143       -0.5790  -22.9826  -48.2616 H         1 UNK         0.0600 
    144 H144        0.5105  -21.1154  -46.3152 H         1 UNK         0.3000 
    145 H145       -0.1486  -23.2324  -43.5087 H         1 UNK         0.0600 
    146 H146        1.9655  -24.1190  -44.5027 H         1 UNK         0.0600 
    147 H147        2.3081  -22.9462  -43.2392 H         1 UNK         0.0600 
    148 H148        2.4656  -22.4872  -44.9333 H         1 UNK         0.0600 
    149 H149        1.1691  -20.7075  -43.7883 H         1 UNK         0.3000 
    150 H150       -1.5683  -18.6250  -44.1218 H         1 UNK         0.0600 
    151 H151       -0.4161  -18.9670  -41.3070 H         1 UNK         0.0600 
    152 H152       -2.1145  -19.1787  -41.7130 H         1 UNK         0.0600 
    153 H153       -1.3695  -17.6099  -41.9185 H         1 UNK         0.0600 
    154 H154        0.9907  -18.0186  -43.0515 H         1 UNK         0.3000 
    155 H155        2.9482  -18.1739  -45.9183 H         1 UNK         0.0600 
    156 H156        3.1516  -15.6714  -45.5559 H         1 UNK         0.0600 
    157 H157        1.5295  -15.6688  -44.8627 H         1 UNK         0.0600 
    158 H158        1.7713  -16.1112  -46.5411 H         1 UNK         0.0600 
    159 H159        3.3101  -16.8427  -43.4279 H         1 UNK         0.3000 
    160 H160        3.7027  -18.7243  -41.2413 H         1 UNK         0.0600 
    161 H161        6.1380  -19.9931  -42.5951 H         1 UNK         0.0600 
    162 H162        4.8487  -20.8435  -41.7551 H         1 UNK         0.0600 
    163 H163        5.9304  -19.7952  -40.8553 H         1 UNK         0.0600 
    164 H164        4.9349  -16.8938  -41.0763 H         1 UNK         0.3000 
    165 H165        7.3740  -15.8017  -41.3872 H         1 UNK         0.0600 
    166 H166        8.4602  -15.6522  -43.6080 H         1 UNK         0.0600 
    167 H167        7.0873  -14.7572  -44.2513 H         1 UNK         0.0600 
    168 H168        8.1023  -14.0474  -42.9957 H         1 UNK         0.0600 
    169 H169        5.4473  -13.9616  -42.5992 H         1 UNK         0.3000 
    170 H170        4.0948  -13.0368  -39.5848 H         1 UNK         0.0600 
    171 H171        3.2360  -11.6293  -41.4195 H         1 UNK         0.0600 
    172 H172        3.8155  -12.7582  -42.6342 H         1 UNK         0.0600 
    173 H173        4.9602  -11.8739  -41.6264 H         1 UNK         0.0600 
    174 H174        2.0750  -13.9705  -39.7234 H         1 UNK         0.3000 
    175 H175        0.7838  -16.5515  -41.7433 H         1 UNK         0.0600 
    176 H176        1.2822  -16.5346  -39.3180 H         1 UNK         0.0600 
    177 H177        0.4098  -15.0228  -39.1162 H         1 UNK         0.0600 
    178 H178       -0.4444  -16.4720  -39.6257 H         1 UNK         0.0600 
    179 H179       -0.7434  -15.2481  -42.6529 H         1 UNK         0.3000 
    180 H180       -2.6708  -12.6385  -41.5785 H         1 UNK         0.0600 
    181 H181       -0.7291  -12.1938  -43.9118 H         1 UNK         0.0600 
    182 H182       -0.9613  -11.0968  -42.5562 H         1 UNK         0.0600 
    183 H183       -2.2766  -11.3767  -43.6843 H         1 UNK         0.0600 
    184 H184       -2.5261  -13.8523  -44.1527 H         1 UNK         0.3000 
    185 H185       -3.6067  -16.9440  -43.6775 H         1 UNK         0.0600 
    186 H186       -5.8291  -16.3165  -42.7464 H         1 UNK         0.0600 
    187 H187       -5.9618  -14.9964  -43.9024 H         1 UNK         0.0600 
    188 H188       -5.9509  -16.6697  -44.4608 H         1 UNK         0.0600 
    189 H189       -4.3887  -15.1879  -45.7958 H         1 UNK         0.3000 
    190 H190       -1.8732  -20.5221  -46.1486 H         1 UNK         0.3000 
    191 H191       -4.3930  -20.1608  -47.5557 H         1 UNK         0.0600 
    192 H192       -3.3447  -18.4796  -45.9231 H         1 UNK         0.0600 
    193 H193       -5.0390  -18.8469  -45.6489 H         1 UNK         0.0600 
    194 H194       -3.8150  -19.5517  -44.6085 H         1 UNK         0.0600 
    195 H195       -3.2318  -22.0241  -44.7066 H         1 UNK         0.3000 
    196 H196       -5.6217  -23.4052  -44.1121 H         1 UNK         0.0600 
    197 H197       -4.0986  -24.9087  -42.8154 H         1 UNK         0.0600 
    198 H198       -3.7062  -23.2165  -42.5476 H         1 UNK         0.0600 
    199 H199       -2.7005  -24.1956  -43.6124 H         1 UNK         0.0600 
    200 H200       -2.9278  -24.2703  -46.3046 H         1 UNK         0.3000 
    201 H201       -4.0450  -26.7834  -47.1794 H         1 UNK         0.0600 
    202 H202       -2.2483  -26.6283  -48.8957 H         1 UNK         0.0600 
    203 H203       -1.6115  -26.2294  -47.3084 H         1 UNK         0.0600 
    204 H204       -1.9535  -24.9477  -48.4696 H         1 UNK         0.0600 
    205 H205       -4.9419  -23.5702  -47.8339 H         1 UNK         0.3000 
    206 H206       -6.2877  -22.4878  -49.1590 H         1 UNK         0.0600 
    207 H207       -7.8826  -24.3885  -48.8119 H         1 UNK         0.0600 
    208 H208       -8.1053  -23.6027  -50.3660 H         1 UNK         0.0600 
    209 H209       -7.2851  -25.1532  -50.2852 H         1 UNK         0.0600 
    210 H210       -3.5967  -23.7419  -50.2368 H         1 UNK         0.3000 
    211 H211       -3.7584  -23.6548  -53.0947 H         1 UNK         0.0600 
    212 H212       -1.9617  -24.8700  -51.8651 H         1 UNK         0.0600 
    213 H213       -1.2752  -23.6819  -52.9595 H         1 UNK         0.0600 
    214 H214       -1.3386  -23.3477  -51.2308 H         1 UNK         0.0600 
    215 H215       -2.9054  -21.2228  -50.6038 H         1 UNK         0.3000 
    216 H216       -2.2960  -19.1446  -52.5730 H         1 UNK         0.0600 
    217 H217       -2.6174  -19.0971  -49.5372 H         1 UNK         0.0600 
    218 H218       -2.2673  -17.6756  -50.5074 H         1 UNK         0.0600 
    219 H219       -1.1217  -18.9963  -50.4800 H         1 UNK         0.0600 
    220 H220       -5.1522  -20.2206  -50.8178 H         1 UNK         0.3000 
    221 H221       -6.7854  -17.9001  -51.3490 H         1 UNK         0.0600 
    222 H222       -7.5914  -20.7638  -50.6078 H         1 UNK         0.0600 
    223 H223       -7.2518  -19.4634  -49.4656 H         1 UNK         0.0600 
    224 H224       -8.6291  -19.3472  -50.5501 H         1 UNK         0.0600 
    225 H225       -6.3735  -21.1035  -52.9228 H         1 UNK         0.3000 
    226 H226       -8.1897  -20.5652  -55.1039 H         1 UNK         0.0600 
    227 H227       -7.6938  -22.8598  -54.2642 H         1 UNK         0.0600 
    228 H228       -7.2661  -22.7209  -55.9627 H         1 UNK         0.0600 
    229 H229       -6.0043  -22.6875  -54.7365 H         1 UNK         0.0600 
    230 H230       -4.9434  -19.6431  -54.4874 H         1 UNK         0.3000 
    231 H231       -3.2576  -18.7261  -55.5715 H         1 UNK         0.0600 
    232 H232       -5.1385  -18.1269  -57.9157 H         1 UNK         0.0600 
    233 H233       -3.5838  -17.3747  -57.5943 H         1 UNK         0.0600 
    234 H234       -4.9277  -17.0994  -56.4978 H         1 UNK         0.0600 
    235 H235       -3.5613  -21.4425  -55.5705 H         1 UNK         0.3000 
    236 H236       -2.5905  -22.5094  -58.1800 H         1 UNK         0.0600 
    237 H237       -3.5984  -23.9132  -55.6423 H         1 UNK         0.0600 
    238 H238       -4.5466  -23.6444  -57.1036 H         1 UNK         0.0600 
    239 H239       -3.1472  -24.7051  -57.1481 H         1 UNK         0.0600 
    240 H240       -1.3836  -21.2143  -55.3277 H         1 UNK         0.3000 
    241 H241        0.7116  -22.9956  -54.6537 H         1 UNK         0.0600 
    242 H242        0.6620  -20.9826  -57.4741 H         1 UNK         0.3800 
    243 H243        2.3865  -21.0029  -57.7358 H         1 UNK         0.3800 
    244 H244       -0.1703  -21.4186  -53.0220 H         1 UNK         0.0800 
    245 H245        1.5322  -21.1780  -53.2143 H         1 UNK         0.0800 
    246 H246        2.6482  -19.1508  -53.9058 H         1 UNK         0.0800 
    247 H247        1.9126  -17.5936  -54.1739 H         1 UNK         0.0800 
@<TRIPOS>BOND
     1    1    2 1    
     2    1  127 1    
     3    1  128 1    
     4    1  129 1    
     5    2    3 2    
     6    2    4 am   BACKBONE|DICT|INTERRES
     7    4    5 1    
     8    4  130 1    
     9    5    6 1    
    10    5   65 1    
    11    5  131 1    
    12    6    7 1    
    13    6  132 1    
    14    6  133 1    
    15    7    8 1    
    16    8    9 1    
    17    8  134 1    
    18    8  135 1    
    19    9   10 ar   
    20    9   14 ar   
    21   10   11 ar   
    22   10  136 1    
    23   11   12 ar   
    24   11  126 1    
    25   12   13 ar   
    26   12  137 1    
    27   13   14 ar   
    28   13   15 1    
    29   14  138 1    
    30   15   16 1    
    31   15  139 1    
    32   15  140 1    
    33   16   17 1    
    34   17   18 1    
    35   17  141 1    
    36   17  142 1    
    37   18   19 1    
    38   18   67 1    
    39   18  143 1    
    40   19   20 am   BACKBONE|DICT|INTERRES
    41   19  144 1    
    42   20   21 2    
    43   20   22 1    
    44   22   23 1    
    45   22   24 1    
    46   22  145 1    
    47   23  146 1    
    48   23  147 1    
    49   23  148 1    
    50   24   25 am   BACKBONE|DICT|INTERRES
    51   24  149 1    
    52   25   26 2    
    53   25   27 1    
    54   27   28 1    
    55   27   29 1    
    56   27  150 1    
    57   28  151 1    
    58   28  152 1    
    59   28  153 1    
    60   29   30 am   BACKBONE|DICT|INTERRES
    61   29  154 1    
    62   30   31 2    
    63   30   32 1    
    64   32   33 1    
    65   32   34 1    
    66   32  155 1    
    67   33  156 1    
    68   33  157 1    
    69   33  158 1    
    70   34   35 am   BACKBONE|DICT|INTERRES
    71   34  159 1    
    72   35   36 2    
    73   35   37 1    
    74   37   38 1    
    75   37   39 1    
    76   37  160 1    
    77   38  161 1    
    78   38  162 1    
    79   38  163 1    
    80   39   40 am   BACKBONE|DICT|INTERRES
    81   39  164 1    
    82   40   41 2    
    83   40   42 1    
    84   42   43 1    
    85   42   44 1    
    86   42  165 1    
    87   43  166 1    
    88   43  167 1    
    89   43  168 1    
    90   44   45 am   BACKBONE|DICT|INTERRES
    91   44  169 1    
    92   45   46 2    
    93   45   47 1    
    94   47   48 1    
    95   47   49 1    
    96   47  170 1    
    97   48  171 1    
    98   48  172 1    
    99   48  173 1    
   100   49   50 am   BACKBONE|DICT|INTERRES
   101   49  174 1    
   102   50   51 2    
   103   50   52 1    
   104   52   53 1    
   105   52   54 1    
   106   52  175 1    
   107   53  176 1    
   108   53  177 1    
   109   53  178 1    
   110   54   55 am   BACKBONE|DICT|INTERRES
   111   54  179 1    
   112   55   56 2    
   113   55   57 1    
   114   57   58 1    
   115   57   59 1    
   116   57  180 1    
   117   58  181 1    
   118   58  182 1    
   119   58  183 1    
   120   59   60 am   BACKBONE|DICT|INTERRES
   121   59  184 1    
   122   60   61 2    
   123   60   62 1    
   124   62   63 1    
   125   62   64 1    
   126   62  185 1    
   127   63  186 1    
   128   63  187 1    
   129   63  188 1    
   130   64   65 am   BACKBONE|DICT|INTERRES
   131   64  189 1    
   132   65   66 2    
   133   67   68 2    
   134   67   69 am   BACKBONE|DICT|INTERRES
   135   69   70 1    
   136   69  190 1    
   137   70   71 1    
   138   70   72 1    
   139   70  191 1    
   140   71  192 1    
   141   71  193 1    
   142   71  194 1    
   143   72   73 2    
   144   72   74 am   BACKBONE|DICT|INTERRES
   145   74   75 1    
   146   74  195 1    
   147   75   76 1    
   148   75   77 1    
   149   75  196 1    
   150   76  197 1    
   151   76  198 1    
   152   76  199 1    
   153   77   78 2    
   154   77   79 am   BACKBONE|DICT|INTERRES
   155   79   80 1    
   156   79  200 1    
   157   80   81 1    
   158   80   82 1    
   159   80  201 1    
   160   81  202 1    
   161   81  203 1    
   162   81  204 1    
   163   82   83 2    
   164   82   84 am   BACKBONE|DICT|INTERRES
   165   84   85 1    
   166   84  205 1    
   167   85   86 1    
   168   85   87 1    
   169   85  206 1    
   170   86  207 1    
   171   86  208 1    
   172   86  209 1    
   173   87   88 2    
   174   87   89 am   BACKBONE|DICT|INTERRES
   175   89   90 1    
   176   89  210 1    
   177   90   91 1    
   178   90   92 1    
   179   90  211 1    
   180   91  212 1    
   181   91  213 1    
   182   91  214 1    
   183   92   93 2    
   184   92   94 am   BACKBONE|DICT|INTERRES
   185   94   95 1    
   186   94  215 1    
   187   95   96 1    
   188   95   97 1    
   189   95  216 1    
   190   96  217 1    
   191   96  218 1    
   192   96  219 1    
   193   97   98 2    
   194   97   99 am   BACKBONE|DICT|INTERRES
   195   99  100 1    
   196   99  220 1    
   197  100  101 1    
   198  100  102 1    
   199  100  221 1    
   200  101  222 1    
   201  101  223 1    
   202  101  224 1    
   203  102  103 2    
   204  102  104 am   BACKBONE|DICT|INTERRES
   205  104  105 1    
   206  104  225 1    
   207  105  106 1    
   208  105  107 1    
   209  105  226 1    
   210  106  227 1    
   211  106  228 1    
   212  106  229 1    
   213  107  108 2    
   214  107  109 am   BACKBONE|DICT|INTERRES
   215  109  110 1    
   216  109  230 1    
   217  110  111 1    
   218  110  112 1    
   219  110  231 1    
   220  111  232 1    
   221  111  233 1    
   222  111  234 1    
   223  112  113 2    
   224  112  114 am   BACKBONE|DICT|INTERRES
   225  114  115 1    
   226  114  235 1    
   227  115  116 1    
   228  115  117 1    
   229  115  236 1    
   230  116  237 1    
   231  116  238 1    
   232  116  239 1    
   233  117  118 2    
   234  117  119 am   BACKBONE|DICT|INTERRES
   235  119  120 1    
   236  119  240 1    
   237  120  121 1    
   238  120  124 1    
   239  120  241 1    
   240  121  122 am   BACKBONE|DICT|INTERRES
   241  121  123 2    
   242  122  242 1    
   243  122  243 1    
   244  124  125 1    
   245  124  244 1    
   246  124  245 1    
   247  125  126 1    
   248  126  246 1    
   249  126  247 1    
@<TRIPOS>SUBSTRUCTURE
     1 UNK         1 GROUP             0       ****    0 ROOT    
