@<TRIPOS>MOLECULE
3R540
247   249    1
SMALL
USER_CHARGES


@<TRIPOS>ATOM
      1 CA          3.9033  -10.6013  -52.9349 C.3       0 UNK        -0.1800 
      2 C           4.0435  -11.4177  -51.6576 C.2       0 UNK         0.5000 
      3 O           5.1137  -11.4254  -51.0492 O.2       0 UNK        -0.5000 
      4 N           2.9707  -12.1026  -51.2513 N.am      1 UNK        -0.5000 
      5 CA          2.8985  -12.9258  -50.0476 C.3       1 UNK         0.1400 
      6 C6          3.4423  -14.3572  -50.2930 C.3       23 UNK        -0.0398 
      7 S7          4.0796  -15.1580  -48.7827 S.3       23 UNK        -0.2404 
      8 C8          2.6458  -16.1102  -48.1951 C.3       23 UNK        -0.0205 
      9 C9          2.2558  -17.2467  -49.1268 C.ar      23 UNK        -0.0193 
     10 C10         1.2218  -17.0713  -50.0513 C.ar      23 UNK        -0.1150 
     11 C11         0.8264  -18.1218  -50.8812 C.ar      23 UNK        -0.0193 
     12 C12         1.4799  -19.3520  -50.7898 C.ar      23 UNK        -0.1150 
     13 C13         2.5023  -19.5476  -49.8581 C.ar      23 UNK        -0.0193 
     14 C14         2.8903  -18.4889  -49.0307 C.ar      23 UNK        -0.1150 
     15 C15         3.1687  -20.9106  -49.7387 C.3       23 UNK        -0.0205 
     16 S16         1.9865  -22.2114  -49.2552 S.3       23 UNK        -0.2404 
     17 C17         1.4904  -21.6290  -47.6014 C.3       23 UNK        -0.0398 
     18 CA          0.5359  -22.6181  -46.8911 C.3       11 UNK         0.1400 
     19 N           0.6534  -22.5122  -45.4394 N.am      11 UNK        -0.5000 
     20 C           0.2874  -23.4403  -44.5485 C.2       10 UNK         0.5000 
     21 O          -0.1923  -24.5281  -44.8667 O.2       10 UNK        -0.5000 
     22 CA          0.4406  -23.0623  -43.0578 C.3       10 UNK         0.1400 
     23 CB          0.7782  -24.2743  -42.1666 C.3       10 UNK        -0.1800 
     24 N           1.3758  -21.9509  -42.8345 N.am      10 UNK        -0.5000 
     25 C           2.6975  -21.9265  -43.0717 C.2       9 UNK         0.5000 
     26 O           3.3489  -22.9100  -43.4242 O.2       9 UNK        -0.5000 
     27 CA          3.4125  -20.5646  -42.9504 C.3       9 UNK         0.1400 
     28 CB          3.8108  -20.0555  -44.3462 C.3       9 UNK        -0.1800 
     29 N           2.6068  -19.5332  -42.2945 N.am      9 UNK        -0.5000 
     30 C           2.3706  -19.4616  -40.9782 C.2       8 UNK         0.5000 
     31 O           2.8557  -20.2359  -40.1528 O.2       8 UNK        -0.5000 
     32 CA          1.3963  -18.3621  -40.5124 C.3       8 UNK         0.1400 
     33 CB          2.1343  -17.0289  -40.3194 C.3       8 UNK        -0.1800 
     34 N           0.2638  -18.1692  -41.4239 N.am      8 UNK        -0.5000 
     35 C          -0.6648  -19.0994  -41.6922 C.2       7 UNK         0.5000 
     36 O          -0.6686  -20.2255  -41.1954 O.2       7 UNK        -0.5000 
     37 CA         -1.7437  -18.7339  -42.7251 C.3       7 UNK         0.1400 
     38 CB         -2.8187  -17.8282  -42.1069 C.3       7 UNK        -0.1800 
     39 N          -1.1809  -18.0957  -43.9133 N.am      7 UNK        -0.5000 
     40 C          -0.3751  -18.7030  -44.7937 C.2       6 UNK         0.5000 
     41 O          -0.0878  -19.8981  -44.7432 O.2       6 UNK        -0.5000 
     42 CA          0.2354  -17.8321  -45.9033 C.3       6 UNK         0.1400 
     43 CB         -0.7526  -17.6669  -47.0648 C.3       6 UNK        -0.1800 
     44 N           0.6509  -16.5176  -45.4162 N.am      6 UNK        -0.5000 
     45 C           1.6018  -16.3123  -44.4937 C.2       5 UNK         0.5000 
     46 O           2.2609  -17.2136  -43.9782 O.2       5 UNK        -0.5000 
     47 CA          1.8143  -14.8616  -44.0323 C.3       5 UNK         0.1400 
     48 CB          2.7157  -14.0915  -45.0102 C.3       5 UNK        -0.1800 
     49 N           0.5430  -14.1586  -43.8668 N.am      5 UNK        -0.5000 
     50 C          -0.3482  -14.4315  -42.9030 C.2       4 UNK         0.5000 
     51 O          -0.1665  -15.2699  -42.0199 O.2       4 UNK        -0.5000 
     52 CA         -1.6853  -13.6719  -42.9688 C.3       4 UNK         0.1400 
     53 CB         -1.5482  -12.2750  -42.3452 C.3       4 UNK        -0.1800 
     54 N          -2.1895  -13.5461  -44.3375 N.am      4 UNK        -0.5000 
     55 C          -2.5968  -14.5777  -45.0915 C.2       3 UNK         0.5000 
     56 O          -2.6264  -15.7403  -44.6932 O.2       3 UNK        -0.5000 
     57 CA         -2.9989  -14.2588  -46.5439 C.3       3 UNK         0.1400 
     58 CB         -4.4751  -13.8385  -46.5953 C.3       3 UNK        -0.1800 
     59 N          -2.1750  -13.2131  -47.1597 N.am      3 UNK        -0.5000 
     60 C          -0.8470  -13.2789  -47.3246 C.2       2 UNK         0.5000 
     61 O          -0.1617  -14.2346  -46.9582 O.2       2 UNK        -0.5000 
     62 CA         -0.1743  -12.0244  -47.9088 C.3       2 UNK         0.1400 
     63 CB         -0.0595  -10.9401  -46.8243 C.3       2 UNK        -0.1800 
     64 N           1.1662  -12.2823  -48.4387 N.am      2 UNK        -0.5000 
     65 C           1.4274  -12.8963  -49.5988 C.2       1 UNK         0.5000 
     66 O           0.5604  -13.3578  -50.3435 O.2       1 UNK        -0.5000 
     67 C          -0.9283  -22.4303  -47.3354 C.2       11 UNK         0.5000 
     68 O          -1.3732  -23.1049  -48.2600 O.2       11 UNK        -0.5000 
     69 N          -1.6808  -21.5743  -46.6269 N.am      12 UNK        -0.5000 
     70 CA         -3.1242  -21.4017  -46.8227 C.3       12 UNK         0.1400 
     71 CB         -3.6003  -20.1569  -46.0590 C.3       12 UNK        -0.1800 
     72 C          -3.9353  -22.6399  -46.3892 C.2       12 UNK         0.5000 
     73 O          -5.0020  -22.8936  -46.9452 O.2       12 UNK        -0.5000 
     74 N          -3.4095  -23.3925  -45.4133 N.am      13 UNK        -0.5000 
     75 CA         -4.0138  -24.6165  -44.8865 C.3       13 UNK         0.1400 
     76 CB         -3.5395  -24.8131  -43.4375 C.3       13 UNK        -0.1800 
     77 C          -3.6936  -25.8650  -45.7327 C.2       13 UNK         0.5000 
     78 O          -4.3923  -26.8700  -45.5975 O.2       13 UNK        -0.5000 
     79 N          -2.6418  -25.7950  -46.5618 N.am      14 UNK        -0.5000 
     80 CA         -2.1398  -26.8895  -47.3937 C.3       14 UNK         0.1400 
     81 CB         -0.8016  -26.5015  -48.0429 C.3       14 UNK        -0.1800 
     82 C          -3.1472  -27.4819  -48.4106 C.2       14 UNK         0.5000 
     83 O          -3.2811  -28.7048  -48.4342 O.2       14 UNK        -0.5000 
     84 N          -3.8928  -26.7087  -49.2173 N.am      15 UNK        -0.5000 
     85 CA         -3.7613  -25.2862  -49.5407 C.3       15 UNK         0.1400 
     86 CB         -5.1537  -24.7547  -49.9216 C.3       15 UNK        -0.1800 
     87 C          -2.7645  -25.0658  -50.6957 C.2       15 UNK         0.5000 
     88 O          -2.2779  -26.0283  -51.2940 O.2       15 UNK        -0.5000 
     89 N          -2.4853  -23.7900  -50.9891 N.am      16 UNK        -0.5000 
     90 CA         -1.5130  -23.3327  -51.9849 C.3       16 UNK         0.1400 
     91 CB         -1.3359  -21.8145  -51.8319 C.3       16 UNK        -0.1800 
     92 C          -1.8696  -23.6824  -53.4437 C.2       16 UNK         0.5000 
     93 O          -0.9844  -23.6487  -54.2991 O.2       16 UNK        -0.5000 
     94 N          -3.1505  -23.9803  -53.7097 N.am      17 UNK        -0.5000 
     95 CA         -3.7664  -24.3961  -54.9799 C.3       17 UNK         0.1400 
     96 CB         -3.1097  -25.6729  -55.5381 C.3       17 UNK        -0.1800 
     97 C          -3.8429  -23.2904  -56.0513 C.2       17 UNK         0.5000 
     98 O          -4.8375  -23.2233  -56.7744 O.2       17 UNK        -0.5000 
     99 N          -2.8302  -22.4162  -56.1092 N.am      18 UNK        -0.5000 
    100 CA        -2.8109  -21.1862  -56.9059 C.3       18 UNK         0.1400 
    101 CB        -1.3902  -20.6019  -56.8823 C.3       18 UNK        -0.1800 
    102 C         -3.8324  -20.1422  -56.4085 C.2       18 UNK         0.5000 
    103 O         -4.2943  -19.3138  -57.1940 O.2       18 UNK        -0.5000 
    104 N         -4.1792  -20.2244  -55.1204 N.am      19 UNK        -0.5000 
    105 CA        -5.2372  -19.4855  -54.4510 C.3       19 UNK         0.1400 
    106 CB        -4.6980  -18.1333  -53.9592 C.3       19 UNK        -0.1800 
    107 C         -5.7385  -20.3531  -53.2869 C.2       19 UNK         0.5000 
    108 O         -5.0122  -21.2410  -52.8282 O.2       19 UNK        -0.5000 
    109 N         -6.9702  -20.0884  -52.8345 N.am      20 UNK        -0.5000 
    110 CA        -7.6232  -20.8345  -51.7557 C.3       20 UNK         0.1400 
    111 CB        -9.1310  -20.5379  -51.7707 C.3       20 UNK        -0.1800 
    112 C         -7.0250  -20.5336  -50.3696 C.2       20 UNK         0.5000 
    113 O         -6.8756  -21.4519  -49.5648 O.2       20 UNK        -0.5000 
    114 N         -6.6965  -19.2588  -50.1227 N.am      21 UNK        -0.5000 
    115 CA        -6.1196  -18.7780  -48.8632 C.3       21 UNK         0.1400 
    116 CB        -7.2510  -18.3683  -47.9024 C.3       21 UNK        -0.1800 
    117 C         -5.1053  -17.6367  -49.0678 C.2       21 UNK         0.5000 
    118 O         -4.6044  -17.0998  -48.0804 O.2       21 UNK        -0.5000 
    119 N         -4.8146  -17.2888  -50.3307 N.am      22 UNK        -0.5000 
    120 CA        -3.8209  -16.2758  -50.7423 C.3       22 UNK         0.1400 
    121 C         -4.1901  -14.8068  -50.3718 C.2       22 UNK         0.5000 
    122 N         -5.4585  -14.4930  -50.1370 N.am      22 UNK        -0.7600 
    123 O         -3.3325  -13.9296  -50.3339 O.2       22 UNK        -0.5000 
    124 C124       -2.3699  -16.6656  -50.3436 C.3       23 UNK        -0.0398 
    125 S125       -1.9102  -18.2977  -51.0288 S.3       23 UNK        -0.2404 
    126 C126       -0.3278  -17.9468  -51.8520 C.3       23 UNK        -0.0205 
    127 H127        4.0929   -9.5477  -52.7297 H         1 UNK         0.0600 
    128 H128        2.9055  -10.6896  -53.3655 H         1 UNK         0.0600 
    129 H129        4.6252  -10.9403  -53.6779 H         1 UNK         0.0600 
    130 H130        2.1060  -12.0518  -51.7749 H         1 UNK         0.3000 
    131 H131        3.5029  -12.4472  -49.2734 H         1 UNK         0.0600 
    132 H132        2.7163  -14.9859  -50.8060 H         1 UNK         0.0800 
    133 H133        4.2943  -14.3085  -50.9723 H         1 UNK         0.0800 
    134 H134        1.8018  -15.4392  -48.0454 H         1 UNK         0.0800 
    135 H135        2.8875  -16.5181  -47.2135 H         1 UNK         0.0800 
    136 H136        0.7087  -16.1217  -50.1093 H         1 UNK         0.1150 
    137 H137        1.1733  -20.1719  -51.4232 H         1 UNK         0.1150 
    138 H138        3.6780  -18.6313  -48.3042 H         1 UNK         0.1150 
    139 H139        3.6108  -21.1742  -50.7004 H         1 UNK         0.0800 
    140 H140        3.9885  -20.8843  -49.0191 H         1 UNK         0.0800 
    141 H141        1.0534  -20.6310  -47.6722 H         1 UNK         0.0800 
    142 H142        2.4077  -21.5147  -47.0215 H         1 UNK         0.0800 
    143 H143        0.8302  -23.6354  -47.1598 H         1 UNK         0.0600 
    144 H144        0.9088  -21.6008  -45.0766 H         1 UNK         0.3000 
    145 H145       -0.5365  -22.6914  -42.7454 H         1 UNK         0.0600 
    146 H146        0.8836  -23.9782  -41.1229 H         1 UNK         0.0600 
    147 H147       -0.0126  -25.0240  -42.2118 H         1 UNK         0.0600 
    148 H148        1.7037  -24.7612  -42.4741 H         1 UNK         0.0600 
    149 H149        0.9421  -21.0858  -42.5373 H         1 UNK         0.3000 
    150 H150        4.3227  -20.7209  -42.3679 H         1 UNK         0.0600 
    151 H151        4.4344  -20.7815  -44.8695 H         1 UNK         0.0600 
    152 H152        4.3807  -19.1285  -44.2792 H         1 UNK         0.0600 
    153 H153        2.9355  -19.8639  -44.9683 H         1 UNK         0.0600 
    154 H154        2.2329  -18.8030  -42.8956 H         1 UNK         0.3000 
    155 H155        0.9928  -18.6684  -39.5451 H         1 UNK         0.0600 
    156 H156        2.9671  -17.1399  -39.6240 H         1 UNK         0.0600 
    157 H157        1.4703  -16.2662  -39.9123 H         1 UNK         0.0600 
    158 H158        2.5388  -16.6532  -41.2593 H         1 UNK         0.0600 
    159 H159        0.1765  -17.2516  -41.8497 H         1 UNK         0.3000 
    160 H160       -2.2253  -19.6625  -43.0357 H         1 UNK         0.0600 
    161 H161       -2.4106  -16.8629  -41.8066 H         1 UNK         0.0600 
    162 H162       -3.2583  -18.2902  -41.2221 H         1 UNK         0.0600 
    163 H163       -3.6279  -17.6425  -42.8134 H         1 UNK         0.0600 
    164 H164       -1.4469  -17.1291  -44.0803 H         1 UNK         0.3000 
    165 H165        1.1250  -18.3399  -46.2810 H         1 UNK         0.0600 
    166 H166       -0.3712  -16.9710  -47.8092 H         1 UNK         0.0600 
    167 H167       -0.9297  -18.6185  -47.5677 H         1 UNK         0.0600 
    168 H168       -1.7168  -17.2867  -46.7283 H         1 UNK         0.0600 
    169 H169        0.1916  -15.7096  -45.8288 H         1 UNK         0.3000 
    170 H170        2.3169  -14.8907  -43.0633 H         1 UNK         0.0600 
    171 H171        3.6732  -14.5981  -45.1377 H         1 UNK         0.0600 
    172 H172        2.2642  -13.9976  -45.9971 H         1 UNK         0.0600 
    173 H173        2.9261  -13.0871  -44.6429 H         1 UNK         0.0600 
    174 H174        0.2895  -13.5037  -44.5909 H         1 UNK         0.3000 
    175 H175       -2.4178  -14.2360  -42.3874 H         1 UNK         0.0600 
    176 H176       -1.1858  -12.3407  -41.3184 H         1 UNK         0.0600 
    177 H177       -0.8482  -11.6503  -42.9014 H         1 UNK         0.0600 
    178 H178       -2.5087  -11.7602  -42.3171 H         1 UNK         0.0600 
    179 H179       -2.2024  -12.6206  -44.7390 H         1 UNK         0.3000 
    180 H180       -2.8762  -15.1672  -47.1364 H         1 UNK         0.0600 
    181 H181       -4.6670  -12.9555  -45.9847 H         1 UNK         0.0600 
    182 H182       -5.1182  -14.6403  -46.2298 H         1 UNK         0.0600 
    183 H183       -4.7881  -13.6132  -47.6130 H         1 UNK         0.0600 
    184 H184       -2.6672  -12.3957  -47.4896 H         1 UNK         0.3000 
    185 H185       -0.8007  -11.6466  -48.7199 H         1 UNK         0.0600 
    186 H186       -1.0383  -10.6729  -46.4240 H         1 UNK         0.0600 
    187 H187        0.5582  -11.2704  -45.9879 H         1 UNK         0.0600 
    188 H188        0.3814  -10.0272  -47.2254 H         1 UNK         0.0600 
    189 H189        1.9356  -11.9425  -47.8812 H         1 UNK         0.3000 
    190 H190       -1.2438  -21.0480  -45.8776 H         1 UNK         0.3000 
    191 H191       -3.3105  -21.2407  -47.8870 H         1 UNK         0.0600 
    192 H192       -3.3819  -20.2307  -44.9944 H         1 UNK         0.0600 
    193 H193       -4.6778  -20.0220  -46.1597 H         1 UNK         0.0600 
    194 H194       -3.1286  -19.2523  -46.4400 H         1 UNK         0.0600 
    195 H195       -2.5196  -23.1236  -45.0231 H         1 UNK         0.3000 
    196 H196       -5.0996  -24.4992  -44.8726 H         1 UNK         0.0600 
    197 H197       -4.0106  -25.6884  -42.9884 H         1 UNK         0.0600 
    198 H198       -3.7959  -23.9540  -42.8172 H         1 UNK         0.0600 
    199 H199       -2.4605  -24.9589  -43.3812 H         1 UNK         0.0600 
    200 H200       -2.1130  -24.9354  -46.5882 H         1 UNK         0.3000 
    201 H201       -1.9119  -27.7004  -46.6985 H         1 UNK         0.0600 
    202 H202       -0.0453  -26.2965  -47.2848 H         1 UNK         0.0600 
    203 H203       -0.8855  -25.6166  -48.6692 H         1 UNK         0.0600 
    204 H204       -0.4223  -27.3096  -48.6695 H         1 UNK         0.0600 
    205 H205       -4.5257  -27.1988  -49.8307 H         1 UNK         0.3000 
    206 H206       -3.4133  -24.7185  -48.6824 H         1 UNK         0.0600 
    207 H207       -5.8658  -24.9073  -49.1100 H         1 UNK         0.0600 
    208 H208       -5.1303  -23.6825  -50.1215 H         1 UNK         0.0600 
    209 H209       -5.5475  -25.2473  -50.8115 H         1 UNK         0.0600 
    210 H210       -2.8983  -23.0658  -50.4195 H         1 UNK         0.3000 
    211 H211       -0.5580  -23.8122  -51.7605 H         1 UNK         0.0600 
    212 H212       -0.9803  -21.5565  -50.8336 H         1 UNK         0.0600 
    213 H213       -2.2724  -21.2818  -52.0024 H         1 UNK         0.0600 
    214 H214       -0.6062  -21.4291  -52.5448 H         1 UNK         0.0600 
    215 H215       -3.7940  -23.9008  -52.9348 H         1 UNK         0.3000 
    216 H216       -4.7977  -24.6480  -54.7277 H         1 UNK         0.0600 
    217 H217       -3.6595  -26.0445  -56.4037 H         1 UNK         0.0600 
    218 H218       -3.0995  -26.4684  -54.7928 H         1 UNK         0.0600 
    219 H219       -2.0822  -25.4990  -55.8581 H         1 UNK         0.0600 
    220 H220       -2.0299  -22.5951  -55.5098 H         1 UNK         0.3000 
    221 H221       -3.0663  -21.4402  -57.9367 H         1 UNK         0.0600 
    222 H222       -1.3307  -19.6943  -57.4844 H         1 UNK         0.0600 
    223 H223       -1.0778  -20.3460  -55.8689 H         1 UNK         0.0600 
    224 H224       -0.6663  -21.3089  -57.2881 H         1 UNK         0.0600 
    225 H225       -3.7858  -20.9652  -54.5535 H         1 UNK         0.3000 
    226 H226       -6.0642  -19.3248  -55.1458 H         1 UNK         0.0600 
    227 H227       -4.3490  -17.5219  -54.7914 H         1 UNK         0.0600 
    228 H228       -5.4708  -17.5642  -53.4421 H         1 UNK         0.0600 
    229 H229       -3.8620  -18.2677  -53.2734 H         1 UNK         0.0600 
    230 H230       -7.5125  -19.3579  -53.2731 H         1 UNK         0.3000 
    231 H231       -7.4888  -21.9016  -51.9481 H         1 UNK         0.0600 
    232 H232       -9.5801  -20.8276  -52.7210 H         1 UNK         0.0600 
    233 H233       -9.3376  -19.4791  -51.6100 H         1 UNK         0.0600 
    234 H234       -9.6456  -21.0952  -50.9867 H         1 UNK         0.0600 
    235 H235       -6.9065  -18.5641  -50.8233 H         1 UNK         0.3000 
    236 H236       -5.5532  -19.5882  -48.3999 H         1 UNK         0.0600 
    237 H237       -6.8535  -18.0353  -46.9426 H         1 UNK         0.0600 
    238 H238       -7.8487  -17.5538  -48.3128 H         1 UNK         0.0600 
    239 H239       -7.9188  -19.2058  -47.6998 H         1 UNK         0.0600 
    240 H240       -5.2287  -17.8178  -51.0798 H         1 UNK         0.3000 
    241 H241       -3.8493  -16.2710  -51.8317 H         1 UNK         0.0600 
    242 H242       -5.7003  -13.5390  -49.9224 H         1 UNK         0.3800 
    243 H243       -6.1773  -15.1970  -50.1707 H         1 UNK         0.3800 
    244 H244       -1.6629  -15.9135  -50.6957 H         1 UNK         0.0800 
    245 H245       -2.2631  -16.6926  -49.2601 H         1 UNK         0.0800 
    246 H246       -0.2135  -18.6347  -52.6912 H         1 UNK         0.0800 
    247 H247       -0.3256  -16.9440  -52.2812 H         1 UNK         0.0800 
@<TRIPOS>BOND
     1    1    2 1    
     2    1  127 1    
     3    1  128 1    
     4    1  129 1    
     5    2    3 2    
     6    2    4 am   BACKBONE|DICT|INTERRES
     7    4    5 1    
     8    4  130 1    
     9    5    6 1    
    10    5   65 1    
    11    5  131 1    
    12    6    7 1    
    13    6  132 1    
    14    6  133 1    
    15    7    8 1    
    16    8    9 1    
    17    8  134 1    
    18    8  135 1    
    19    9   10 ar   
    20    9   14 ar   
    21   10   11 ar   
    22   10  136 1    
    23   11   12 ar   
    24   11  126 1    
    25   12   13 ar   
    26   12  137 1    
    27   13   14 ar   
    28   13   15 1    
    29   14  138 1    
    30   15   16 1    
    31   15  139 1    
    32   15  140 1    
    33   16   17 1    
    34   17   18 1    
    35   17  141 1    
    36   17  142 1    
    37   18   19 1    
    38   18   67 1    
    39   18  143 1    
    40   19   20 am   BACKBONE|DICT|INTERRES
    41   19  144 1    
    42   20   21 2    
    43   20   22 1    
    44   22   23 1    
    45   22   24 1    
    46   22  145 1    
    47   23  146 1    
    48   23  147 1    
    49   23  148 1    
    50   24   25 am   BACKBONE|DICT|INTERRES
    51   24  149 1    
    52   25   26 2    
    53   25   27 1    
    54   27   28 1    
    55   27   29 1    
    56   27  150 1    
    57   28  151 1    
    58   28  152 1    
    59   28  153 1    
    60   29   30 am   BACKBONE|DICT|INTERRES
    61   29  154 1    
    62   30   31 2    
    63   30   32 1    
    64   32   33 1    
    65   32   34 1    
    66   32  155 1    
    67   33  156 1    
    68   33  157 1    
    69   33  158 1    
    70   34   35 am   BACKBONE|DICT|INTERRES
    71   34  159 1    
    72   35   36 2    
    73   35   37 1    
    74   37   38 1    
    75   37   39 1    
    76   37  160 1    
    77   38  161 1    
    78   38  162 1    
    79   38  163 1    
    80   39   40 am   BACKBONE|DICT|INTERRES
    81   39  164 1    
    82   40   41 2    
    83   40   42 1    
    84   42   43 1    
    85   42   44 1    
    86   42  165 1    
    87   43  166 1    
    88   43  167 1    
    89   43  168 1    
    90   44   45 am   BACKBONE|DICT|INTERRES
    91   44  169 1    
    92   45   46 2    
    93   45   47 1    
    94   47   48 1    
    95   47   49 1    
    96   47  170 1    
    97   48  171 1    
    98   48  172 1    
    99   48  173 1    
   100   49   50 am   BACKBONE|DICT|INTERRES
   101   49  174 1    
   102   50   51 2    
   103   50   52 1    
   104   52   53 1    
   105   52   54 1    
   106   52  175 1    
   107   53  176 1    
   108   53  177 1    
   109   53  178 1    
   110   54   55 am   BACKBONE|DICT|INTERRES
   111   54  179 1    
   112   55   56 2    
   113   55   57 1    
   114   57   58 1    
   115   57   59 1    
   116   57  180 1    
   117   58  181 1    
   118   58  182 1    
   119   58  183 1    
   120   59   60 am   BACKBONE|DICT|INTERRES
   121   59  184 1    
   122   60   61 2    
   123   60   62 1    
   124   62   63 1    
   125   62   64 1    
   126   62  185 1    
   127   63  186 1    
   128   63  187 1    
   129   63  188 1    
   130   64   65 am   BACKBONE|DICT|INTERRES
   131   64  189 1    
   132   65   66 2    
   133   67   68 2    
   134   67   69 am   BACKBONE|DICT|INTERRES
   135   69   70 1    
   136   69  190 1    
   137   70   71 1    
   138   70   72 1    
   139   70  191 1    
   140   71  192 1    
   141   71  193 1    
   142   71  194 1    
   143   72   73 2    
   144   72   74 am   BACKBONE|DICT|INTERRES
   145   74   75 1    
   146   74  195 1    
   147   75   76 1    
   148   75   77 1    
   149   75  196 1    
   150   76  197 1    
   151   76  198 1    
   152   76  199 1    
   153   77   78 2    
   154   77   79 am   BACKBONE|DICT|INTERRES
   155   79   80 1    
   156   79  200 1    
   157   80   81 1    
   158   80   82 1    
   159   80  201 1    
   160   81  202 1    
   161   81  203 1    
   162   81  204 1    
   163   82   83 2    
   164   82   84 am   BACKBONE|DICT|INTERRES
   165   84   85 1    
   166   84  205 1    
   167   85   86 1    
   168   85   87 1    
   169   85  206 1    
   170   86  207 1    
   171   86  208 1    
   172   86  209 1    
   173   87   88 2    
   174   87   89 am   BACKBONE|DICT|INTERRES
   175   89   90 1    
   176   89  210 1    
   177   90   91 1    
   178   90   92 1    
   179   90  211 1    
   180   91  212 1    
   181   91  213 1    
   182   91  214 1    
   183   92   93 2    
   184   92   94 am   BACKBONE|DICT|INTERRES
   185   94   95 1    
   186   94  215 1    
   187   95   96 1    
   188   95   97 1    
   189   95  216 1    
   190   96  217 1    
   191   96  218 1    
   192   96  219 1    
   193   97   98 2    
   194   97   99 am   BACKBONE|DICT|INTERRES
   195   99  100 1    
   196   99  220 1    
   197  100  101 1    
   198  100  102 1    
   199  100  221 1    
   200  101  222 1    
   201  101  223 1    
   202  101  224 1    
   203  102  103 2    
   204  102  104 am   BACKBONE|DICT|INTERRES
   205  104  105 1    
   206  104  225 1    
   207  105  106 1    
   208  105  107 1    
   209  105  226 1    
   210  106  227 1    
   211  106  228 1    
   212  106  229 1    
   213  107  108 2    
   214  107  109 am   BACKBONE|DICT|INTERRES
   215  109  110 1    
   216  109  230 1    
   217  110  111 1    
   218  110  112 1    
   219  110  231 1    
   220  111  232 1    
   221  111  233 1    
   222  111  234 1    
   223  112  113 2    
   224  112  114 am   BACKBONE|DICT|INTERRES
   225  114  115 1    
   226  114  235 1    
   227  115  116 1    
   228  115  117 1    
   229  115  236 1    
   230  116  237 1    
   231  116  238 1    
   232  116  239 1    
   233  117  118 2    
   234  117  119 am   BACKBONE|DICT|INTERRES
   235  119  120 1    
   236  119  240 1    
   237  120  121 1    
   238  120  124 1    
   239  120  241 1    
   240  121  122 am   BACKBONE|DICT|INTERRES
   241  121  123 2    
   242  122  242 1    
   243  122  243 1    
   244  124  125 1    
   245  124  244 1    
   246  124  245 1    
   247  125  126 1    
   248  126  246 1    
   249  126  247 1    
@<TRIPOS>SUBSTRUCTURE
     1 UNK         1 GROUP             0       ****    0 ROOT    
