@<TRIPOS>MOLECULE
3R540
247   249    1
SMALL
USER_CHARGES


@<TRIPOS>ATOM
      1 CA         -2.5610  -10.8403  -43.6023 C.3       0 UNK        -0.1800 
      2 C          -1.0393  -10.8571  -43.5986 C.2       0 UNK         0.5000 
      3 O          -0.4207  -10.4505  -42.6155 O.2       0 UNK        -0.5000 
      4 N          -0.4322  -11.3447  -44.6879 N.am      1 UNK        -0.5000 
      5 CA          1.0210  -11.4434  -44.8809 C.3       1 UNK         0.1400 
      6 C6          1.3917  -11.4827  -46.3871 C.3       23 UNK        -0.0398 
      7 S7          0.8093  -12.9724  -47.2753 S.3       23 UNK        -0.2404 
      8 C8         -0.4129  -12.2865  -48.4383 C.3       23 UNK        -0.0205 
      9 C9         -1.0034  -13.3716  -49.3308 C.ar      23 UNK        -0.0193 
     10 C10        -0.2573  -13.8753  -50.4011 C.ar      23 UNK        -0.1150 
     11 C11        -0.7822  -14.8732  -51.2276 C.ar      23 UNK        -0.0193 
     12 C12        -2.0686  -15.3591  -50.9829 C.ar      23 UNK        -0.1150 
     13 C13        -2.8342  -14.8571  -49.9296 C.ar      23 UNK        -0.0193 
     14 C14        -2.2946  -13.8633  -49.1039 C.ar      23 UNK        -0.1150 
     15 C15        -4.2570  -15.3595  -49.7197 C.3       23 UNK        -0.0205 
     16 S16        -4.3395  -16.8284  -48.6471 S.3       23 UNK        -0.2404 
     17 C17        -3.8764  -18.1838  -49.7821 C.3       23 UNK        -0.0398 
     18 CA         -3.8557  -19.6046  -49.1548 C.3       11 UNK         0.1400 
     19 N          -2.6891  -19.8470  -48.2991 N.am      11 UNK        -0.5000 
     20 C          -2.2787  -21.0678  -47.9235 C.2       10 UNK         0.5000 
     21 O          -2.8291  -22.1056  -48.2866 O.2       10 UNK        -0.5000 
     22 CA         -1.0803  -21.1641  -46.9640 C.3       10 UNK         0.1400 
     23 CB          0.2438  -21.0594  -47.7315 C.3       10 UNK        -0.1800 
     24 N          -1.1185  -20.1695  -45.8937 N.am      10 UNK        -0.5000 
     25 C          -2.0623  -20.1156  -44.9423 C.2       9 UNK         0.5000 
     26 O          -3.0123  -20.8962  -44.8750 O.2       9 UNK        -0.5000 
     27 CA         -1.9429  -18.9689  -43.9249 C.3       9 UNK         0.1400 
     28 CB         -0.9299  -19.3065  -42.8203 C.3       9 UNK        -0.1800 
     29 N          -1.5539  -17.7301  -44.5971 N.am      9 UNK        -0.5000 
     30 C          -2.4200  -16.9606  -45.2714 C.2       8 UNK         0.5000 
     31 O          -3.6362  -17.1483  -45.2666 O.2       8 UNK        -0.5000 
     32 CA         -1.8394  -15.8083  -46.1122 C.3       8 UNK         0.1400 
     33 CB         -1.9555  -14.4699  -45.3723 C.3       8 UNK        -0.1800 
     34 N          -0.4614  -16.0414  -46.5559 N.am      8 UNK        -0.5000 
     35 C          -0.1274  -16.9571  -47.4777 C.2       7 UNK         0.5000 
     36 O          -0.9454  -17.6793  -48.0434 O.2       7 UNK        -0.5000 
     37 CA          1.3678  -17.1629  -47.7804 C.3       7 UNK         0.1400 
     38 CB          1.8145  -16.3397  -48.9943 C.3       7 UNK        -0.1800 
     39 N           2.2674  -16.8996  -46.6588 N.am      7 UNK        -0.5000 
     40 C           2.2710  -17.5477  -45.4873 C.2       6 UNK         0.5000 
     41 O           1.3887  -18.3433  -45.1609 O.2       6 UNK        -0.5000 
     42 CA          3.4295  -17.2559  -44.5037 C.3       6 UNK         0.1400 
     43 CB          4.3547  -18.4803  -44.3669 C.3       6 UNK        -0.1800 
     44 N           4.1993  -16.0293  -44.7886 N.am      6 UNK        -0.5000 
     45 C           5.0063  -15.7763  -45.8314 C.2       5 UNK         0.5000 
     46 O           5.2459  -16.5907  -46.7219 O.2       5 UNK        -0.5000 
     47 CA          5.5905  -14.3600  -45.9538 C.3       5 UNK         0.1400 
     48 CB          4.8471  -13.5916  -47.0586 C.3       5 UNK        -0.1800 
     49 N           5.4966  -13.5845  -44.7161 N.am      5 UNK        -0.5000 
     50 C           6.5153  -13.3894  -43.8700 C.2       4 UNK         0.5000 
     51 O           7.6022  -13.9610  -43.9655 O.2       4 UNK        -0.5000 
     52 CA          6.3007  -12.3653  -42.7458 C.3       4 UNK         0.1400 
     53 CB          6.3117  -10.9344  -43.3094 C.3       4 UNK        -0.1800 
     54 N           5.0449  -12.5858  -42.0283 N.am      4 UNK        -0.5000 
     55 C           4.9529  -12.7608  -40.7019 C.2       3 UNK         0.5000 
     56 O           5.9275  -12.8075  -39.9496 O.2       3 UNK        -0.5000 
     57 CA          3.5421  -12.8840  -40.0891 C.3       3 UNK         0.1400 
     58 CB          3.1355  -11.5639  -39.4154 C.3       3 UNK        -0.1800 
     59 N           2.5032  -13.2557  -41.0485 N.am      3 UNK        -0.5000 
     60 C           2.3959  -14.4537  -41.6352 C.2       2 UNK         0.5000 
     61 O           3.1610  -15.3936  -41.4235 O.2       2 UNK        -0.5000 
     62 CA          1.2568  -14.6234  -42.6565 C.3       2 UNK         0.1400 
     63 CB          0.0249  -15.2376  -41.9716 C.3       2 UNK        -0.1800 
     64 N           0.8721  -13.3987  -43.3662 N.am      2 UNK        -0.5000 
     65 C           1.6767  -12.6026  -44.0891 C.2       1 UNK         0.5000 
     66 O           2.8973  -12.7602  -44.1535 O.2       1 UNK        -0.5000 
     67 C          -5.1788  -19.9872  -48.4545 C.2       11 UNK         0.5000 
     68 O          -6.0622  -20.5456  -49.1043 O.2       11 UNK        -0.5000 
     69 N          -5.2693  -19.7350  -47.1390 N.am      12 UNK        -0.5000 
     70 CA         -6.4155  -20.0841  -46.2969 C.3       12 UNK         0.1400 
     71 CB         -6.2968  -19.3668  -44.9441 C.3       12 UNK        -0.1800 
     72 C          -6.5624  -21.6043  -46.1033 C.2       12 UNK         0.5000 
     73 O          -7.6812  -22.1172  -46.1311 O.2       12 UNK        -0.5000 
     74 N          -5.4271  -22.3013  -45.9579 N.am      13 UNK        -0.5000 
     75 CA         -5.3395  -23.7638  -45.9197 C.3       13 UNK         0.1400 
     76 CB         -3.9958  -24.1532  -45.2827 C.3       13 UNK        -0.1800 
     77 C          -5.4723  -24.4197  -47.3105 C.2       13 UNK         0.5000 
     78 O          -5.5442  -25.6475  -47.3951 O.2       13 UNK        -0.5000 
     79 N          -5.4385  -23.6026  -48.3734 N.am      14 UNK        -0.5000 
     80 CA         -5.3934  -23.9693  -49.7902 C.3       14 UNK         0.1400 
     81 CB         -6.7460  -24.5515  -50.2455 C.3       14 UNK        -0.1800 
     82 C          -4.1966  -24.8851  -50.1188 C.2       14 UNK         0.5000 
     83 O          -4.3508  -25.8536  -50.8573 O.2       14 UNK        -0.5000 
     84 N          -3.0369  -24.5867  -49.5148 N.am      15 UNK        -0.5000 
     85 CA         -1.7945  -25.3680  -49.5406 C.3       15 UNK         0.1400 
     86 CB         -1.1329  -25.2860  -50.9285 C.3       15 UNK        -0.1800 
     87 C          -1.9925  -26.8212  -49.0522 C.2       15 UNK         0.5000 
     88 O          -1.4441  -27.7538  -49.6414 O.2       15 UNK        -0.5000 
     89 N          -2.7931  -26.9685  -47.9857 N.am      16 UNK        -0.5000 
     90 CA         -3.2704  -28.2196  -47.3905 C.3       16 UNK         0.1400 
     91 CB         -2.1043  -29.0759  -46.8519 C.3       16 UNK        -0.1800 
     92 C          -4.2111  -28.9802  -48.3473 C.2       16 UNK         0.5000 
     93 O          -3.9686  -30.1461  -48.6652 O.2       16 UNK        -0.5000 
     94 N          -5.2780  -28.2864  -48.7719 N.am      17 UNK        -0.5000 
     95 CA         -6.3640  -28.7647  -49.6365 C.3       17 UNK         0.1400 
     96 CB         -7.2105  -29.8266  -48.9033 C.3       17 UNK        -0.1800 
     97 C          -5.8887  -29.2249  -51.0328 C.2       17 UNK         0.5000 
     98 O          -6.2654  -30.3027  -51.4988 O.2       17 UNK        -0.5000 
     99 N          -5.0773  -28.3831  -51.6769 N.am      18 UNK        -0.5000 
    100 CA        -4.5971  -28.5168  -53.0473 C.3       18 UNK         0.1400 
    101 CB        -3.0910  -28.8461  -53.0137 C.3       18 UNK        -0.1800 
    102 C         -4.9391  -27.2150  -53.8018 C.2       18 UNK         0.5000 
    103 O         -6.0300  -26.6717  -53.6085 O.2       18 UNK        -0.5000 
    104 N         -4.0215  -26.7279  -54.6464 N.am      19 UNK        -0.5000 
    105 CA        -4.0981  -25.4076  -55.2690 C.3       19 UNK         0.1400 
    106 CB        -3.3215  -25.4257  -56.5952 C.3       19 UNK        -0.1800 
    107 C         -3.5121  -24.3668  -54.3008 C.2       19 UNK         0.5000 
    108 O         -2.3783  -24.5398  -53.8508 O.2       19 UNK        -0.5000 
    109 N         -4.2885  -23.3215  -53.9902 N.am      20 UNK        -0.5000 
    110 CA        -3.9246  -22.2626  -53.0468 C.3       20 UNK         0.1400 
    111 CB        -5.1444  -21.3540  -52.8257 C.3       20 UNK        -0.1800 
    112 C         -2.7070  -21.4320  -53.4938 C.2       20 UNK         0.5000 
    113 O         -2.5141  -21.2152  -54.6942 O.2       20 UNK        -0.5000 
    114 N         -1.9314  -20.9626  -52.5050 N.am      21 UNK        -0.5000 
    115 CA        -0.7408  -20.1267  -52.6731 C.3       21 UNK         0.1400 
    116 CB        -0.1747  -19.7688  -51.2894 C.3       21 UNK        -0.1800 
    117 C         -1.0253  -18.8543  -53.4921 C.2       21 UNK         0.5000 
    118 O         -1.9986  -18.1575  -53.2030 O.2       21 UNK        -0.5000 
    119 N         -0.1814  -18.6203  -54.5052 N.am      22 UNK        -0.5000 
    120 CA        -0.2611  -17.5658  -55.5338 C.3       22 UNK         0.1400 
    121 C         -1.5795  -17.4932  -56.3693 C.2       22 UNK         0.5000 
    122 N         -2.4410  -18.5044  -56.3460 N.am      22 UNK        -0.7600 
    123 O         -1.8031  -16.5302  -57.0984 O.2       22 UNK        -0.5000 
    124 C124        0.3069  -16.1900  -55.0720 C.3       23 UNK        -0.0398 
    125 S125       -0.7615  -15.1868  -53.9829 S.3       23 UNK        -0.2404 
    126 C126        0.0412  -15.4489  -52.3697 C.3       23 UNK        -0.0205 
    127 H127       -2.9249   -9.8185  -43.4953 H         1 UNK         0.0600 
    128 H128       -2.9447  -11.4293  -42.7694 H         1 UNK         0.0600 
    129 H129       -2.9690  -11.2522  -44.5258 H         1 UNK         0.0600 
    130 H130       -0.9916  -11.6675  -45.4634 H         1 UNK         0.3000 
    131 H131        1.4636  -10.5309  -44.4761 H         1 UNK         0.0600 
    132 H132        1.0000  -10.5924  -46.8807 H         1 UNK         0.0800 
    133 H133        2.4744  -11.4203  -46.5079 H         1 UNK         0.0800 
    134 H134       -1.2016  -11.7785  -47.8820 H         1 UNK         0.0800 
    135 H135        0.0656  -11.5285  -49.0602 H         1 UNK         0.0800 
    136 H136        0.7397  -13.4973  -50.5787 H         1 UNK         0.1150 
    137 H137       -2.4791  -16.1223  -51.6285 H         1 UNK         0.1150 
    138 H138       -2.8840  -13.4700  -48.2881 H         1 UNK         0.1150 
    139 H139       -4.8579  -14.5692  -49.2677 H         1 UNK         0.0800 
    140 H140       -4.7256  -15.5798  -50.6801 H         1 UNK         0.0800 
    141 H141       -2.8967  -17.9629  -50.2052 H         1 UNK         0.0800 
    142 H142       -4.5717  -18.1681  -50.6228 H         1 UNK         0.0800 
    143 H143       -3.7539  -20.2961  -49.9933 H         1 UNK         0.0600 
    144 H144       -2.1473  -19.0287  -48.0235 H         1 UNK         0.3000 
    145 H145       -1.1156  -22.1486  -46.4928 H         1 UNK         0.0600 
    146 H146        1.0999  -21.1063  -47.0581 H         1 UNK         0.0600 
    147 H147        0.3435  -21.8791  -48.4441 H         1 UNK         0.0600 
    148 H148        0.3072  -20.1300  -48.2947 H         1 UNK         0.0600 
    149 H149       -0.3633  -19.4960  -45.8648 H         1 UNK         0.3000 
    150 H150       -2.9179  -18.8328  -43.4516 H         1 UNK         0.0600 
    151 H151       -1.2406  -20.1956  -42.2704 H         1 UNK         0.0600 
    152 H152       -0.8461  -18.4920  -42.1008 H         1 UNK         0.0600 
    153 H153        0.0643  -19.5035  -43.2209 H         1 UNK         0.0600 
    154 H154       -0.5611  -17.5577  -44.6927 H         1 UNK         0.3000 
    155 H155       -2.4565  -15.7249  -47.0026 H         1 UNK         0.0600 
    156 H156       -2.9624  -14.3241  -44.9787 H         1 UNK         0.0600 
    157 H157       -1.7539  -13.6357  -46.0406 H         1 UNK         0.0600 
    158 H158       -1.2658  -14.4109  -44.5374 H         1 UNK         0.0600 
    159 H159        0.2642  -15.4643  -46.1582 H         1 UNK         0.3000 
    160 H160        1.4971  -18.2139  -48.0399 H         1 UNK         0.0600 
    161 H161        2.8376  -16.5826  -49.2814 H         1 UNK         0.0600 
    162 H162        1.7684  -15.2697  -48.7969 H         1 UNK         0.0600 
    163 H163        1.1795  -16.5475  -49.8553 H         1 UNK         0.0600 
    164 H164        3.0596  -16.3043  -46.8543 H         1 UNK         0.3000 
    165 H165        2.9698  -17.1085  -43.5274 H         1 UNK         0.0600 
    166 H166        5.1538  -18.2924  -43.6498 H         1 UNK         0.0600 
    167 H167        3.7980  -19.3483  -44.0115 H         1 UNK         0.0600 
    168 H168        4.8120  -18.7588  -45.3164 H         1 UNK         0.0600 
    169 H169        4.0780  -15.2796  -44.1225 H         1 UNK         0.3000 
    170 H170        6.6341  -14.4611  -46.2591 H         1 UNK         0.0600 
    171 H171        4.9350  -14.0996  -48.0199 H         1 UNK         0.0600 
    172 H172        3.7845  -13.4980  -46.8345 H         1 UNK         0.0600 
    173 H173        5.2531  -12.5878  -47.1843 H         1 UNK         0.0600 
    174 H174        4.6113  -13.1090  -44.5552 H         1 UNK         0.3000 
    175 H175        7.1532  -12.4599  -42.0699 H         1 UNK         0.0600 
    176 H176        5.4701  -10.7569  -43.9804 H         1 UNK         0.0600 
    177 H177        6.2599  -10.1976  -42.5077 H         1 UNK         0.0600 
    178 H178        7.2272  -10.7406  -43.8700 H         1 UNK         0.0600 
    179 H179        4.1964  -12.5890  -42.5823 H         1 UNK         0.3000 
    180 H180        3.5875  -13.6593  -39.3213 H         1 UNK         0.0600 
    181 H181        2.1749  -11.6584  -38.9086 H         1 UNK         0.0600 
    182 H182        3.0560  -10.7516  -40.1390 H         1 UNK         0.0600 
    183 H183        3.8684  -11.2646  -38.6649 H         1 UNK         0.0600 
    184 H184        1.8324  -12.5411  -41.2925 H         1 UNK         0.3000 
    185 H185        1.6002  -15.3232  -43.4158 H         1 UNK         0.0600 
    186 H186       -0.4523  -14.5295  -41.2932 H         1 UNK         0.0600 
    187 H187       -0.7194  -15.5674  -42.6940 H         1 UNK         0.0600 
    188 H188        0.2997  -16.1161  -41.3856 H         1 UNK         0.0600 
    189 H189       -0.1064  -13.1552  -43.3392 H         1 UNK         0.3000 
    190 H190       -4.4990  -19.2646  -46.6836 H         1 UNK         0.3000 
    191 H191       -7.3193  -19.7237  -46.7927 H         1 UNK         0.0600 
    192 H192       -5.3962  -19.6628  -44.4058 H         1 UNK         0.0600 
    193 H193       -6.2665  -18.2849  -45.0746 H         1 UNK         0.0600 
    194 H194       -7.1512  -19.5936  -44.3053 H         1 UNK         0.0600 
    195 H195       -4.5522  -21.7932  -45.8722 H         1 UNK         0.3000 
    196 H196       -6.1452  -24.1513  -45.2931 H         1 UNK         0.0600 
    197 H197       -3.8976  -23.7309  -44.2824 H         1 UNK         0.0600 
    198 H198       -3.1525  -23.7994  -45.8773 H         1 UNK         0.0600 
    199 H199       -3.9023  -25.2358  -45.1876 H         1 UNK         0.0600 
    200 H200       -5.3511  -22.6131  -48.1862 H         1 UNK         0.3000 
    201 H201       -5.2317  -23.0408  -50.3362 H         1 UNK         0.0600 
    202 H202       -6.7464  -24.7507  -51.3182 H         1 UNK         0.0600 
    203 H203       -7.5592  -23.8540  -50.0452 H         1 UNK         0.0600 
    204 H204       -6.9757  -25.4876  -49.7374 H         1 UNK         0.0600 
    205 H205       -3.0081  -23.7383  -48.9492 H         1 UNK         0.3000 
    206 H206       -1.1212  -24.8924  -48.8261 H         1 UNK         0.0600 
    207 H207       -1.0385  -24.2532  -51.2644 H         1 UNK         0.0600 
    208 H208       -1.7094  -25.8316  -51.6752 H         1 UNK         0.0600 
    209 H209       -0.1316  -25.7170  -50.9113 H         1 UNK         0.0600 
    210 H210       -3.2360  -26.1349  -47.6259 H         1 UNK         0.3000 
    211 H211       -3.8789  -27.9320  -46.5316 H         1 UNK         0.0600 
    212 H212       -1.4753  -28.5017  -46.1717 H         1 UNK         0.0600 
    213 H213       -2.4814  -29.9359  -46.2974 H         1 UNK         0.0600 
    214 H214       -1.4710  -29.4601  -47.6516 H         1 UNK         0.0600 
    215 H215       -5.3734  -27.3301  -48.4413 H         1 UNK         0.3000 
    216 H216       -7.0104  -27.9042  -49.8118 H         1 UNK         0.0600 
    217 H217       -8.0890  -30.0987  -49.4895 H         1 UNK         0.0600 
    218 H218       -6.6452  -30.7405  -48.7187 H         1 UNK         0.0600 
    219 H219       -7.5662  -29.4524  -47.9433 H         1 UNK         0.0600 
    220 H220       -4.8514  -27.4868  -51.2432 H         1 UNK         0.3000 
    221 H221       -5.1212  -29.3258  -53.5594 H         1 UNK         0.0600 
    222 H222       -2.5111  -28.0328  -52.5748 H         1 UNK         0.0600 
    223 H223       -2.9026  -29.7395  -52.4178 H         1 UNK         0.0600 
    224 H224       -2.7006  -29.0422  -54.0127 H         1 UNK         0.0600 
    225 H225       -3.1313  -27.1991  -54.7152 H         1 UNK         0.3000 
    226 H226       -5.1388  -25.1592  -55.4885 H         1 UNK         0.0600 
    227 H227       -3.7429  -26.1540  -57.2883 H         1 UNK         0.0600 
    228 H228       -3.3620  -24.4505  -57.0821 H         1 UNK         0.0600 
    229 H229       -2.2699  -25.6743  -56.4457 H         1 UNK         0.0600 
    230 H230       -5.1946  -23.2392  -54.4272 H         1 UNK         0.3000 
    231 H231       -3.6703  -22.7433  -52.1014 H         1 UNK         0.0600 
    232 H232       -4.9251  -20.5642  -52.1067 H         1 UNK         0.0600 
    233 H233       -5.9947  -21.9160  -52.4389 H         1 UNK         0.0600 
    234 H234       -5.4557  -20.8711  -53.7529 H         1 UNK         0.0600 
    235 H235       -2.1739  -21.1858  -51.5526 H         1 UNK         0.3000 
    236 H236        0.0020  -20.7288  -53.2003 H         1 UNK         0.0600 
    237 H237        0.7248  -19.1585  -51.3798 H         1 UNK         0.0600 
    238 H238       -0.8905  -19.2052  -50.6904 H         1 UNK         0.0600 
    239 H239        0.0976  -20.6658  -50.7340 H         1 UNK         0.0600 
    240 H240        0.5669  -19.2828  -54.6505 H         1 UNK         0.3000 
    241 H241        0.4531  -17.9163  -56.2798 H         1 UNK         0.0600 
    242 H242       -2.2877  -19.3115  -55.7542 H         1 UNK         0.3800 
    243 H243       -3.2772  -18.4507  -56.9053 H         1 UNK         0.3800 
    244 H244        1.2735  -16.3381  -54.5892 H         1 UNK         0.0800 
    245 H245        0.5232  -15.5801  -55.9504 H         1 UNK         0.0800 
    246 H246        0.1775  -16.5164  -52.1969 H         1 UNK         0.0800 
    247 H247        1.0383  -15.0066  -52.3908 H         1 UNK         0.0800 
@<TRIPOS>BOND
     1    1    2 1    
     2    1  127 1    
     3    1  128 1    
     4    1  129 1    
     5    2    3 2    
     6    2    4 am   BACKBONE|DICT|INTERRES
     7    4    5 1    
     8    4  130 1    
     9    5    6 1    
    10    5   65 1    
    11    5  131 1    
    12    6    7 1    
    13    6  132 1    
    14    6  133 1    
    15    7    8 1    
    16    8    9 1    
    17    8  134 1    
    18    8  135 1    
    19    9   10 ar   
    20    9   14 ar   
    21   10   11 ar   
    22   10  136 1    
    23   11   12 ar   
    24   11  126 1    
    25   12   13 ar   
    26   12  137 1    
    27   13   14 ar   
    28   13   15 1    
    29   14  138 1    
    30   15   16 1    
    31   15  139 1    
    32   15  140 1    
    33   16   17 1    
    34   17   18 1    
    35   17  141 1    
    36   17  142 1    
    37   18   19 1    
    38   18   67 1    
    39   18  143 1    
    40   19   20 am   BACKBONE|DICT|INTERRES
    41   19  144 1    
    42   20   21 2    
    43   20   22 1    
    44   22   23 1    
    45   22   24 1    
    46   22  145 1    
    47   23  146 1    
    48   23  147 1    
    49   23  148 1    
    50   24   25 am   BACKBONE|DICT|INTERRES
    51   24  149 1    
    52   25   26 2    
    53   25   27 1    
    54   27   28 1    
    55   27   29 1    
    56   27  150 1    
    57   28  151 1    
    58   28  152 1    
    59   28  153 1    
    60   29   30 am   BACKBONE|DICT|INTERRES
    61   29  154 1    
    62   30   31 2    
    63   30   32 1    
    64   32   33 1    
    65   32   34 1    
    66   32  155 1    
    67   33  156 1    
    68   33  157 1    
    69   33  158 1    
    70   34   35 am   BACKBONE|DICT|INTERRES
    71   34  159 1    
    72   35   36 2    
    73   35   37 1    
    74   37   38 1    
    75   37   39 1    
    76   37  160 1    
    77   38  161 1    
    78   38  162 1    
    79   38  163 1    
    80   39   40 am   BACKBONE|DICT|INTERRES
    81   39  164 1    
    82   40   41 2    
    83   40   42 1    
    84   42   43 1    
    85   42   44 1    
    86   42  165 1    
    87   43  166 1    
    88   43  167 1    
    89   43  168 1    
    90   44   45 am   BACKBONE|DICT|INTERRES
    91   44  169 1    
    92   45   46 2    
    93   45   47 1    
    94   47   48 1    
    95   47   49 1    
    96   47  170 1    
    97   48  171 1    
    98   48  172 1    
    99   48  173 1    
   100   49   50 am   BACKBONE|DICT|INTERRES
   101   49  174 1    
   102   50   51 2    
   103   50   52 1    
   104   52   53 1    
   105   52   54 1    
   106   52  175 1    
   107   53  176 1    
   108   53  177 1    
   109   53  178 1    
   110   54   55 am   BACKBONE|DICT|INTERRES
   111   54  179 1    
   112   55   56 2    
   113   55   57 1    
   114   57   58 1    
   115   57   59 1    
   116   57  180 1    
   117   58  181 1    
   118   58  182 1    
   119   58  183 1    
   120   59   60 am   BACKBONE|DICT|INTERRES
   121   59  184 1    
   122   60   61 2    
   123   60   62 1    
   124   62   63 1    
   125   62   64 1    
   126   62  185 1    
   127   63  186 1    
   128   63  187 1    
   129   63  188 1    
   130   64   65 am   BACKBONE|DICT|INTERRES
   131   64  189 1    
   132   65   66 2    
   133   67   68 2    
   134   67   69 am   BACKBONE|DICT|INTERRES
   135   69   70 1    
   136   69  190 1    
   137   70   71 1    
   138   70   72 1    
   139   70  191 1    
   140   71  192 1    
   141   71  193 1    
   142   71  194 1    
   143   72   73 2    
   144   72   74 am   BACKBONE|DICT|INTERRES
   145   74   75 1    
   146   74  195 1    
   147   75   76 1    
   148   75   77 1    
   149   75  196 1    
   150   76  197 1    
   151   76  198 1    
   152   76  199 1    
   153   77   78 2    
   154   77   79 am   BACKBONE|DICT|INTERRES
   155   79   80 1    
   156   79  200 1    
   157   80   81 1    
   158   80   82 1    
   159   80  201 1    
   160   81  202 1    
   161   81  203 1    
   162   81  204 1    
   163   82   83 2    
   164   82   84 am   BACKBONE|DICT|INTERRES
   165   84   85 1    
   166   84  205 1    
   167   85   86 1    
   168   85   87 1    
   169   85  206 1    
   170   86  207 1    
   171   86  208 1    
   172   86  209 1    
   173   87   88 2    
   174   87   89 am   BACKBONE|DICT|INTERRES
   175   89   90 1    
   176   89  210 1    
   177   90   91 1    
   178   90   92 1    
   179   90  211 1    
   180   91  212 1    
   181   91  213 1    
   182   91  214 1    
   183   92   93 2    
   184   92   94 am   BACKBONE|DICT|INTERRES
   185   94   95 1    
   186   94  215 1    
   187   95   96 1    
   188   95   97 1    
   189   95  216 1    
   190   96  217 1    
   191   96  218 1    
   192   96  219 1    
   193   97   98 2    
   194   97   99 am   BACKBONE|DICT|INTERRES
   195   99  100 1    
   196   99  220 1    
   197  100  101 1    
   198  100  102 1    
   199  100  221 1    
   200  101  222 1    
   201  101  223 1    
   202  101  224 1    
   203  102  103 2    
   204  102  104 am   BACKBONE|DICT|INTERRES
   205  104  105 1    
   206  104  225 1    
   207  105  106 1    
   208  105  107 1    
   209  105  226 1    
   210  106  227 1    
   211  106  228 1    
   212  106  229 1    
   213  107  108 2    
   214  107  109 am   BACKBONE|DICT|INTERRES
   215  109  110 1    
   216  109  230 1    
   217  110  111 1    
   218  110  112 1    
   219  110  231 1    
   220  111  232 1    
   221  111  233 1    
   222  111  234 1    
   223  112  113 2    
   224  112  114 am   BACKBONE|DICT|INTERRES
   225  114  115 1    
   226  114  235 1    
   227  115  116 1    
   228  115  117 1    
   229  115  236 1    
   230  116  237 1    
   231  116  238 1    
   232  116  239 1    
   233  117  118 2    
   234  117  119 am   BACKBONE|DICT|INTERRES
   235  119  120 1    
   236  119  240 1    
   237  120  121 1    
   238  120  124 1    
   239  120  241 1    
   240  121  122 am   BACKBONE|DICT|INTERRES
   241  121  123 2    
   242  122  242 1    
   243  122  243 1    
   244  124  125 1    
   245  124  244 1    
   246  124  245 1    
   247  125  126 1    
   248  126  246 1    
   249  126  247 1    
@<TRIPOS>SUBSTRUCTURE
     1 UNK         1 GROUP             0       ****    0 ROOT    
