@<TRIPOS>MOLECULE
3R540
247   249    1
SMALL
USER_CHARGES


@<TRIPOS>ATOM
      1 CA          6.3542  -14.9450  -44.4954 C.3       0 UNK        -0.1800 
      2 C           4.9250  -14.4255  -44.4410 C.2       0 UNK         0.5000 
      3 O           4.2856  -14.4984  -43.3919 O.2       0 UNK        -0.5000 
      4 N           4.4169  -13.9163  -45.5706 N.am      1 UNK        -0.5000 
      5 CA          3.0680  -13.3495  -45.6900 C.3       1 UNK         0.1400 
      6 C6          2.6088  -13.2523  -47.1634 C.3       23 UNK        -0.0398 
      7 S7          2.1246  -14.8871  -47.8001 S.3       23 UNK        -0.2404 
      8 C8          3.4639  -15.3239  -48.9435 C.3       23 UNK        -0.0205 
      9 C9          3.1492  -16.6466  -49.6266 C.ar      23 UNK        -0.0193 
     10 C10         2.1611  -16.6990  -50.6149 C.ar      23 UNK        -0.1150 
     11 C11         1.8273  -17.9118  -51.2224 C.ar      23 UNK        -0.0193 
     12 C12         2.5118  -19.0731  -50.8597 C.ar      23 UNK        -0.1150 
     13 C13         3.5052  -19.0360  -49.8778 C.ar      23 UNK        -0.0193 
     14 C14         3.8174  -17.8200  -49.2596 C.ar      23 UNK        -0.1150 
     15 C15         4.2417  -20.3120  -49.4966 C.3       23 UNK        -0.0205 
     16 S16         3.4424  -21.1836  -48.1129 S.3       23 UNK        -0.2404 
     17 C17         1.8564  -21.6994  -48.8589 C.3       23 UNK        -0.0398 
     18 CA          1.1523  -22.7971  -48.0287 C.3       11 UNK         0.1400 
     19 N           0.7484  -22.3231  -46.7033 N.am      11 UNK        -0.5000 
     20 C           0.2967  -23.1036  -45.7134 C.2       10 UNK         0.5000 
     21 O           0.2043  -24.3288  -45.7960 O.2       10 UNK        -0.5000 
     22 CA         -0.1758  -22.3880  -44.4355 C.3       10 UNK         0.1400 
     23 CB          1.0176  -21.9532  -43.5713 C.3       10 UNK        -0.1800 
     24 N          -1.0211  -21.2296  -44.7315 N.am      10 UNK        -0.5000 
     25 C          -2.2517  -21.3091  -45.2568 C.2       9 UNK         0.5000 
     26 O          -2.8101  -22.3712  -45.5256 O.2       9 UNK        -0.5000 
     27 CA         -2.9702  -19.9838  -45.5640 C.3       9 UNK         0.1400 
     28 CB         -3.6954  -19.4490  -44.3210 C.3       9 UNK        -0.1800 
     29 N          -2.0585  -18.9618  -46.0701 N.am      9 UNK        -0.5000 
     30 C          -1.4886  -18.9955  -47.2830 C.2       8 UNK         0.5000 
     31 O          -1.6820  -19.8878  -48.1073 O.2       8 UNK        -0.5000 
     32 CA         -0.4975  -17.8623  -47.5996 C.3       8 UNK         0.1400 
     33 CB         -1.2702  -16.6042  -48.0269 C.3       8 UNK        -0.1800 
     34 N           0.3865  -17.5467  -46.4723 N.am      8 UNK        -0.5000 
     35 C           1.1989  -18.4334  -45.8757 C.2       7 UNK         0.5000 
     36 O           1.2741  -19.6126  -46.2107 O.2       7 UNK        -0.5000 
     37 CA          2.0328  -17.9672  -44.6685 C.3       7 UNK         0.1400 
     38 CB          3.4495  -17.5868  -45.1191 C.3       7 UNK        -0.1800 
     39 N           1.4412  -16.8657  -43.9081 N.am      7 UNK        -0.5000 
     40 C           0.2389  -16.8918  -43.3140 C.2       6 UNK         0.5000 
     41 O          -0.5113  -17.8702  -43.3306 O.2       6 UNK        -0.5000 
     42 CA         -0.2314  -15.5965  -42.6173 C.3       6 UNK         0.1400 
     43 CB          0.9148  -14.6325  -42.2429 C.3       6 UNK        -0.1800 
     44 N          -1.2527  -14.8801  -43.3908 N.am      6 UNK        -0.5000 
     45 C          -1.1979  -14.5339  -44.6869 C.2       5 UNK         0.5000 
     46 O          -0.2625  -14.8097  -45.4354 O.2       5 UNK        -0.5000 
     47 CA         -2.3823  -13.7163  -45.2315 C.3       5 UNK         0.1400 
     48 CB         -3.7456  -14.2411  -44.7442 C.3       5 UNK        -0.1800 
     49 N          -2.2266  -12.3126  -44.8533 N.am      5 UNK        -0.5000 
     50 C          -1.3918  -11.4587  -45.4612 C.2       4 UNK         0.5000 
     51 O          -0.7956  -11.7238  -46.5087 O.2       4 UNK        -0.5000 
     52 CA         -1.2022  -10.0775  -44.8022 C.3       4 UNK         0.1400 
     53 CB         -1.1728  -10.1495  -43.2627 C.3       4 UNK        -0.1800 
     54 N           0.0622   -9.5126  -45.2626 N.am      4 UNK        -0.5000 
     55 C           0.2311   -8.3439  -45.8905 C.2       3 UNK         0.5000 
     56 O          -0.6826   -7.5386  -46.0797 O.2       3 UNK        -0.5000 
     57 CA          1.6478   -8.0324  -46.4306 C.3       3 UNK         0.1400 
     58 CB          1.9968   -6.5308  -46.3539 C.3       3 UNK        -0.1800 
     59 N           2.7145   -8.8577  -45.8447 N.am      3 UNK        -0.5000 
     60 C           3.1333   -8.8692  -44.5695 C.2       2 UNK         0.5000 
     61 O           2.7058   -8.1080  -43.7001 O.2       2 UNK        -0.5000 
     62 CA          4.1934   -9.9380  -44.2125 C.3       2 UNK         0.1400 
     63 CB          4.2718  -10.2102  -42.6956 C.3       2 UNK        -0.1800 
     64 N           4.0366  -11.2087  -44.9384 N.am      2 UNK        -0.5000 
     65 C           2.9436  -11.9902  -44.9704 C.2       1 UNK         0.5000 
     66 O           1.8711  -11.6827  -44.4524 O.2       1 UNK        -0.5000 
     67 C          -0.0404  -23.3996  -48.7971 C.2       11 UNK         0.5000 
     68 O           0.1159  -24.4508  -49.4188 O.2       11 UNK        -0.5000 
     69 N          -1.2202  -22.7689  -48.6942 N.am      12 UNK        -0.5000 
     70 CA         -2.4716  -23.2900  -49.2394 C.3       12 UNK         0.1400 
     71 CB         -3.5830  -22.2485  -49.1023 C.3       12 UNK        -0.1800 
     72 C          -2.8974  -24.6131  -48.5856 C.2       12 UNK         0.5000 
     73 O          -3.2473  -25.5449  -49.3053 O.2       12 UNK        -0.5000 
     74 N          -2.8205  -24.6977  -47.2497 N.am      13 UNK        -0.5000 
     75 CA         -3.1194  -25.9094  -46.4833 C.3       13 UNK         0.1400 
     76 CB         -3.0724  -25.6046  -44.9789 C.3       13 UNK        -0.1800 
     77 C          -2.1895  -27.0846  -46.8359 C.2       13 UNK         0.5000 
     78 O          -2.6680  -28.2103  -46.9759 O.2       13 UNK        -0.5000 
     79 N          -0.8944  -26.7960  -47.0293 N.am      14 UNK        -0.5000 
     80 CA          0.1105  -27.7542  -47.4959 C.3       14 UNK         0.1400 
     81 CB          1.5074  -27.1260  -47.3782 C.3       14 UNK        -0.1800 
     82 C          -0.1497  -28.2489  -48.9336 C.2       14 UNK         0.5000 
     83 O           0.0713  -29.4260  -49.2201 O.2       14 UNK        -0.5000 
     84 N          -0.6403  -27.3532  -49.8007 N.am      15 UNK        -0.5000 
     85 CA         -1.0410  -27.6464  -51.1793 C.3       15 UNK         0.1400 
     86 CB         -1.0280  -26.3351  -51.9829 C.3       15 UNK        -0.1800 
     87 C          -2.4210  -28.3302  -51.2939 C.2       15 UNK         0.5000 
     88 O          -2.7646  -28.7971  -52.3807 O.2       15 UNK        -0.5000 
     89 N          -3.1877  -28.3565  -50.1929 N.am      16 UNK        -0.5000 
     90 CA         -4.5861  -28.7865  -50.0785 C.3       16 UNK         0.1400 
     91 CB         -4.7320  -30.2958  -50.3637 C.3       16 UNK        -0.1800 
     92 C          -5.5418  -27.9053  -50.9149 C.2       16 UNK         0.5000 
     93 O          -6.4655  -28.4144  -51.5532 O.2       16 UNK        -0.5000 
     94 N          -5.2859  -26.5936  -50.8961 N.am      17 UNK        -0.5000 
     95 CA         -6.0188  -25.5497  -51.6040 C.3       17 UNK         0.1400 
     96 CB         -5.0234  -24.8256  -52.5274 C.3       17 UNK        -0.1800 
     97 C          -6.6386  -24.5573  -50.6035 C.2       17 UNK         0.5000 
     98 O          -6.3576  -24.6171  -49.4037 O.2       17 UNK        -0.5000 
     99 N          -7.4621  -23.6395  -51.1231 N.am      18 UNK        -0.5000 
    100 CA        -7.9864  -22.4898  -50.3856 C.3       18 UNK         0.1400 
    101 CB        -9.2364  -21.9669  -51.1103 C.3       18 UNK        -0.1800 
    102 C         -6.9282  -21.3765  -50.2981 C.2       18 UNK         0.5000 
    103 O         -6.1177  -21.2329  -51.2168 O.2       18 UNK        -0.5000 
    104 N         -6.9810  -20.5645  -49.2337 N.am      19 UNK        -0.5000 
    105 CA        -6.0692  -19.4341  -49.0057 C.3       19 UNK         0.1400 
    106 CB        -6.3237  -18.8465  -47.6094 C.3       19 UNK        -0.1800 
    107 C         -6.1546  -18.3366  -50.0869 C.2       19 UNK         0.5000 
    108 O         -5.1613  -17.6560  -50.3392 O.2       19 UNK        -0.5000 
    109 N         -7.3261  -18.2124  -50.7274 N.am      20 UNK        -0.5000 
    110 CA        -7.5631  -17.3327  -51.8726 C.3       20 UNK         0.1400 
    111 CB        -9.0777  -17.1873  -52.0853 C.3       20 UNK        -0.1800 
    112 C         -6.8834  -17.8293  -53.1649 C.2       20 UNK         0.5000 
    113 O         -6.5044  -17.0066  -53.9993 O.2       20 UNK        -0.5000 
    114 N         -6.7380  -19.1549  -53.3088 N.am      21 UNK        -0.5000 
    115 CA        -6.0193  -19.7919  -54.4142 C.3       21 UNK         0.1400 
    116 CB        -6.5573  -21.2164  -54.6234 C.3       21 UNK        -0.1800 
    117 C         -4.5009  -19.8083  -54.1615 C.2       21 UNK         0.5000 
    118 O         -3.7270  -19.6739  -55.1094 O.2       21 UNK        -0.5000 
    119 N         -4.1115  -19.9423  -52.8863 N.am      22 UNK        -0.5000 
    120 CA        -2.7282  -19.8995  -52.3842 C.3       22 UNK         0.1400 
    121 C         -1.8872  -21.1808  -52.6803 C.2       22 UNK         0.5000 
    122 N         -2.4960  -22.2824  -53.1027 N.am      22 UNK        -0.7600 
    123 O         -0.6726  -21.1951  -52.5062 O.2       22 UNK        -0.5000 
    124 C124       -2.0051  -18.5703  -52.7520 C.3       23 UNK        -0.0398 
    125 S125       -0.9088  -17.9829  -51.4205 S.3       23 UNK        -0.2404 
    126 C126        0.7092  -17.9778  -52.2480 C.3       23 UNK        -0.0205 
    127 H127        6.9792  -14.3965  -43.7908 H         1 UNK         0.0600 
    128 H128        6.7874  -14.8384  -45.4902 H         1 UNK         0.0600 
    129 H129        6.3796  -16.0007  -44.2255 H         1 UNK         0.0600 
    130 H130        4.9827  -13.9002  -46.4064 H         1 UNK         0.3000 
    131 H131        2.3799  -14.0229  -45.1761 H         1 UNK         0.0600 
    132 H132        1.7250  -12.6174  -47.2531 H         1 UNK         0.0800 
    133 H133        3.3752  -12.8018  -47.7958 H         1 UNK         0.0800 
    134 H134        4.4062  -15.3833  -48.3973 H         1 UNK         0.0800 
    135 H135        3.5785  -14.5409  -49.6943 H         1 UNK         0.0800 
    136 H136        1.6267  -15.7993  -50.8864 H         1 UNK         0.1150 
    137 H137        2.2566  -20.0117  -51.3314 H         1 UNK         0.1150 
    138 H138        4.5753  -17.7901  -48.4895 H         1 UNK         0.1150 
    139 H139        4.3144  -20.9805  -50.3558 H         1 UNK         0.0800 
    140 H140        5.2675  -20.0723  -49.2131 H         1 UNK         0.0800 
    141 H141        2.0570  -22.0584  -49.8701 H         1 UNK         0.0800 
    142 H142        1.2113  -20.8240  -48.9584 H         1 UNK         0.0800 
    143 H143        1.8675  -23.6084  -47.8762 H         1 UNK         0.0600 
    144 H144        0.8434  -21.3214  -46.5384 H         1 UNK         0.3000 
    145 H145       -0.7697  -23.0982  -43.8562 H         1 UNK         0.0600 
    146 H146        0.6853  -21.4665  -42.6542 H         1 UNK         0.0600 
    147 H147        1.6205  -22.8151  -43.2828 H         1 UNK         0.0600 
    148 H148        1.6723  -21.2613  -44.1007 H         1 UNK         0.0600 
    149 H149       -0.6203  -20.3159  -44.5734 H         1 UNK         0.3000 
    150 H150       -3.7195  -20.1824  -46.3330 H         1 UNK         0.0600 
    151 H151       -4.4013  -20.1856  -43.9350 H         1 UNK         0.0600 
    152 H152       -4.2618  -18.5469  -44.5532 H         1 UNK         0.0600 
    153 H153       -2.9971  -19.2100  -43.5179 H         1 UNK         0.0600 
    154 H154       -1.7877  -18.2307  -45.4267 H         1 UNK         0.3000 
    155 H155        0.1304  -18.1856  -48.4326 H         1 UNK         0.0600 
    156 H156       -1.8757  -16.2071  -47.2127 H         1 UNK         0.0600 
    157 H157       -0.5962  -15.8170  -48.3615 H         1 UNK         0.0600 
    158 H158       -1.9466  -16.8222  -48.8541 H         1 UNK         0.0600 
    159 H159        0.3702  -16.5882  -46.1352 H         1 UNK         0.3000 
    160 H160        2.1147  -18.8168  -43.9880 H         1 UNK         0.0600 
    161 H161        3.4401  -16.7180  -45.7770 H         1 UNK         0.0600 
    162 H162        3.9175  -18.4052  -45.6683 H         1 UNK         0.0600 
    163 H163        4.0880  -17.3631  -44.2648 H         1 UNK         0.0600 
    164 H164        1.9761  -16.0100  -43.8667 H         1 UNK         0.3000 
    165 H165       -0.7080  -15.9124  -41.6882 H         1 UNK         0.0600 
    166 H166        0.5485  -13.8222  -41.6126 H         1 UNK         0.0600 
    167 H167        1.6995  -15.1441  -41.6839 H         1 UNK         0.0600 
    168 H168        1.3726  -14.1762  -43.1190 H         1 UNK         0.0600 
    169 H169       -2.0825  -14.6291  -42.8736 H         1 UNK         0.3000 
    170 H170       -2.3675  -13.8005  -46.3206 H         1 UNK         0.0600 
    171 H171       -3.8510  -15.3069  -44.9525 H         1 UNK         0.0600 
    172 H172       -3.8889  -14.0960  -43.6731 H         1 UNK         0.0600 
    173 H173       -4.5619  -13.7312  -45.2562 H         1 UNK         0.0600 
    174 H174       -2.6776  -12.0215  -43.9986 H         1 UNK         0.3000 
    175 H175       -2.0408   -9.4516  -45.1126 H         1 UNK         0.0600 
    176 H176       -0.4261  -10.8621  -42.9087 H         1 UNK         0.0600 
    177 H177       -0.9322   -9.1777  -42.8309 H         1 UNK         0.0600 
    178 H178       -2.1394  -10.4467  -42.8554 H         1 UNK         0.0600 
    179 H179        0.8551  -10.1397  -45.1657 H         1 UNK         0.3000 
    180 H180        1.6190   -8.3008  -47.4876 H         1 UNK         0.0600 
    181 H181        1.9557   -6.1549  -45.3314 H         1 UNK         0.0600 
    182 H182        1.2995   -5.9365  -46.9453 H         1 UNK         0.0600 
    183 H183        2.9960   -6.3369  -46.7439 H         1 UNK         0.0600 
    184 H184        3.1320   -9.5305  -46.4720 H         1 UNK         0.3000 
    185 H185        5.1535   -9.5232  -44.5224 H         1 UNK         0.0600 
    186 H186        4.5229   -9.3032  -42.1445 H         1 UNK         0.0600 
    187 H187        3.3238  -10.5810  -42.3040 H         1 UNK         0.0600 
    188 H188        5.0393  -10.9497  -42.4671 H         1 UNK         0.0600 
    189 H189        4.8680  -11.5502  -45.3996 H         1 UNK         0.3000 
    190 H190       -1.2724  -21.8779  -48.2114 H         1 UNK         0.3000 
    191 H191       -2.3174  -23.4783  -50.3037 H         1 UNK         0.0600 
    192 H192       -3.7665  -21.9785  -48.0630 H         1 UNK         0.0600 
    193 H193       -4.5139  -22.6355  -49.5102 H         1 UNK         0.0600 
    194 H194       -3.3400  -21.3417  -49.6503 H         1 UNK         0.0600 
    195 H195       -2.5750  -23.8706  -46.7129 H         1 UNK         0.3000 
    196 H196       -4.1386  -26.2108  -46.7342 H         1 UNK         0.0600 
    197 H197       -3.3004  -26.4953  -44.3922 H         1 UNK         0.0600 
    198 H198       -3.8038  -24.8427  -44.7091 H         1 UNK         0.0600 
    199 H199       -2.0897  -25.2493  -44.6689 H         1 UNK         0.0600 
    200 H200       -0.5737  -25.8507  -46.8412 H         1 UNK         0.3000 
    201 H201        0.0734  -28.6232  -46.8357 H         1 UNK         0.0600 
    202 H202        1.7223  -26.8329  -46.3504 H         1 UNK         0.0600 
    203 H203        1.6052  -26.2396  -48.0050 H         1 UNK         0.0600 
    204 H204        2.2802  -27.8320  -47.6845 H         1 UNK         0.0600 
    205 H205       -0.7419  -26.3901  -49.4991 H         1 UNK         0.3000 
    206 H206       -0.3047  -28.3214  -51.6201 H         1 UNK         0.0600 
    207 H207       -0.0461  -25.8623  -51.9516 H         1 UNK         0.0600 
    208 H208       -1.2691  -26.5141  -53.0313 H         1 UNK         0.0600 
    209 H209       -1.7553  -25.6202  -51.5975 H         1 UNK         0.0600 
    210 H210       -2.8111  -27.9066  -49.3687 H         1 UNK         0.3000 
    211 H211       -4.8633  -28.6237  -49.0360 H         1 UNK         0.0600 
    212 H212       -4.5356  -30.5346  -51.4091 H         1 UNK         0.0600 
    213 H213       -5.7418  -30.6387  -50.1360 H         1 UNK         0.0600 
    214 H214       -4.0456  -30.8799  -49.7507 H         1 UNK         0.0600 
    215 H215       -4.5398  -26.2540  -50.2888 H         1 UNK         0.3000 
    216 H216       -6.8225  -25.9796  -52.2048 H         1 UNK         0.0600 
    217 H217       -5.5188  -24.0648  -53.1306 H         1 UNK         0.0600 
    218 H218       -4.5463  -25.5235  -53.2158 H         1 UNK         0.0600 
    219 H219       -4.2364  -24.3335  -51.9544 H         1 UNK         0.0600 
    220 H220       -7.6194  -23.6348  -52.1198 H         1 UNK         0.3000 
    221 H221       -8.2651  -22.8010  -49.3765 H         1 UNK         0.0600 
    222 H222       -9.0068  -21.6312  -52.1227 H         1 UNK         0.0600 
    223 H223      -10.0023  -22.7396  -51.1801 H         1 UNK         0.0600 
    224 H224       -9.6767  -21.1238  -50.5765 H         1 UNK         0.0600 
    225 H225       -7.6799  -20.7286  -48.5232 H         1 UNK         0.3000 
    226 H226       -5.0485  -19.8181  -49.0239 H         1 UNK         0.0600 
    227 H227       -6.1893  -19.6000  -46.8331 H         1 UNK         0.0600 
    228 H228       -5.6270  -18.0347  -47.3950 H         1 UNK         0.0600 
    229 H229       -7.3341  -18.4463  -47.5192 H         1 UNK         0.0600 
    230 H230       -8.0938  -18.7998  -50.4384 H         1 UNK         0.3000 
    231 H231       -7.1543  -16.3470  -51.6399 H         1 UNK         0.0600 
    232 H232       -9.2922  -16.5171  -52.9188 H         1 UNK         0.0600 
    233 H233       -9.5619  -16.7702  -51.2021 H         1 UNK         0.0600 
    234 H234       -9.5480  -18.1465  -52.3059 H         1 UNK         0.0600 
    235 H235       -7.0192  -19.7614  -52.5510 H         1 UNK         0.3000 
    236 H236       -6.2005  -19.2277  -55.3316 H         1 UNK         0.0600 
    237 H237       -7.6251  -21.2052  -54.8421 H         1 UNK         0.0600 
    238 H238       -6.0584  -21.7007  -55.4638 H         1 UNK         0.0600 
    239 H239       -6.4027  -21.8439  -53.7465 H         1 UNK         0.0600 
    240 H240       -4.8241  -20.1421  -52.1917 H         1 UNK         0.3000 
    241 H241       -2.8561  -19.9031  -51.3027 H         1 UNK         0.0600 
    242 H242       -3.4900  -22.2860  -53.2588 H         1 UNK         0.3800 
    243 H243       -1.9463  -23.1026  -53.2994 H         1 UNK         0.3800 
    244 H244       -1.4645  -18.6611  -53.6954 H         1 UNK         0.0800 
    245 H245       -2.7363  -17.7757  -52.9076 H         1 UNK         0.0800 
    246 H246        0.8138  -18.8755  -52.8594 H         1 UNK         0.0800 
    247 H247        0.7703  -17.1267  -52.9276 H         1 UNK         0.0800 
@<TRIPOS>BOND
     1    1    2 1    
     2    1  127 1    
     3    1  128 1    
     4    1  129 1    
     5    2    3 2    
     6    2    4 am   BACKBONE|DICT|INTERRES
     7    4    5 1    
     8    4  130 1    
     9    5    6 1    
    10    5   65 1    
    11    5  131 1    
    12    6    7 1    
    13    6  132 1    
    14    6  133 1    
    15    7    8 1    
    16    8    9 1    
    17    8  134 1    
    18    8  135 1    
    19    9   10 ar   
    20    9   14 ar   
    21   10   11 ar   
    22   10  136 1    
    23   11   12 ar   
    24   11  126 1    
    25   12   13 ar   
    26   12  137 1    
    27   13   14 ar   
    28   13   15 1    
    29   14  138 1    
    30   15   16 1    
    31   15  139 1    
    32   15  140 1    
    33   16   17 1    
    34   17   18 1    
    35   17  141 1    
    36   17  142 1    
    37   18   19 1    
    38   18   67 1    
    39   18  143 1    
    40   19   20 am   BACKBONE|DICT|INTERRES
    41   19  144 1    
    42   20   21 2    
    43   20   22 1    
    44   22   23 1    
    45   22   24 1    
    46   22  145 1    
    47   23  146 1    
    48   23  147 1    
    49   23  148 1    
    50   24   25 am   BACKBONE|DICT|INTERRES
    51   24  149 1    
    52   25   26 2    
    53   25   27 1    
    54   27   28 1    
    55   27   29 1    
    56   27  150 1    
    57   28  151 1    
    58   28  152 1    
    59   28  153 1    
    60   29   30 am   BACKBONE|DICT|INTERRES
    61   29  154 1    
    62   30   31 2    
    63   30   32 1    
    64   32   33 1    
    65   32   34 1    
    66   32  155 1    
    67   33  156 1    
    68   33  157 1    
    69   33  158 1    
    70   34   35 am   BACKBONE|DICT|INTERRES
    71   34  159 1    
    72   35   36 2    
    73   35   37 1    
    74   37   38 1    
    75   37   39 1    
    76   37  160 1    
    77   38  161 1    
    78   38  162 1    
    79   38  163 1    
    80   39   40 am   BACKBONE|DICT|INTERRES
    81   39  164 1    
    82   40   41 2    
    83   40   42 1    
    84   42   43 1    
    85   42   44 1    
    86   42  165 1    
    87   43  166 1    
    88   43  167 1    
    89   43  168 1    
    90   44   45 am   BACKBONE|DICT|INTERRES
    91   44  169 1    
    92   45   46 2    
    93   45   47 1    
    94   47   48 1    
    95   47   49 1    
    96   47  170 1    
    97   48  171 1    
    98   48  172 1    
    99   48  173 1    
   100   49   50 am   BACKBONE|DICT|INTERRES
   101   49  174 1    
   102   50   51 2    
   103   50   52 1    
   104   52   53 1    
   105   52   54 1    
   106   52  175 1    
   107   53  176 1    
   108   53  177 1    
   109   53  178 1    
   110   54   55 am   BACKBONE|DICT|INTERRES
   111   54  179 1    
   112   55   56 2    
   113   55   57 1    
   114   57   58 1    
   115   57   59 1    
   116   57  180 1    
   117   58  181 1    
   118   58  182 1    
   119   58  183 1    
   120   59   60 am   BACKBONE|DICT|INTERRES
   121   59  184 1    
   122   60   61 2    
   123   60   62 1    
   124   62   63 1    
   125   62   64 1    
   126   62  185 1    
   127   63  186 1    
   128   63  187 1    
   129   63  188 1    
   130   64   65 am   BACKBONE|DICT|INTERRES
   131   64  189 1    
   132   65   66 2    
   133   67   68 2    
   134   67   69 am   BACKBONE|DICT|INTERRES
   135   69   70 1    
   136   69  190 1    
   137   70   71 1    
   138   70   72 1    
   139   70  191 1    
   140   71  192 1    
   141   71  193 1    
   142   71  194 1    
   143   72   73 2    
   144   72   74 am   BACKBONE|DICT|INTERRES
   145   74   75 1    
   146   74  195 1    
   147   75   76 1    
   148   75   77 1    
   149   75  196 1    
   150   76  197 1    
   151   76  198 1    
   152   76  199 1    
   153   77   78 2    
   154   77   79 am   BACKBONE|DICT|INTERRES
   155   79   80 1    
   156   79  200 1    
   157   80   81 1    
   158   80   82 1    
   159   80  201 1    
   160   81  202 1    
   161   81  203 1    
   162   81  204 1    
   163   82   83 2    
   164   82   84 am   BACKBONE|DICT|INTERRES
   165   84   85 1    
   166   84  205 1    
   167   85   86 1    
   168   85   87 1    
   169   85  206 1    
   170   86  207 1    
   171   86  208 1    
   172   86  209 1    
   173   87   88 2    
   174   87   89 am   BACKBONE|DICT|INTERRES
   175   89   90 1    
   176   89  210 1    
   177   90   91 1    
   178   90   92 1    
   179   90  211 1    
   180   91  212 1    
   181   91  213 1    
   182   91  214 1    
   183   92   93 2    
   184   92   94 am   BACKBONE|DICT|INTERRES
   185   94   95 1    
   186   94  215 1    
   187   95   96 1    
   188   95   97 1    
   189   95  216 1    
   190   96  217 1    
   191   96  218 1    
   192   96  219 1    
   193   97   98 2    
   194   97   99 am   BACKBONE|DICT|INTERRES
   195   99  100 1    
   196   99  220 1    
   197  100  101 1    
   198  100  102 1    
   199  100  221 1    
   200  101  222 1    
   201  101  223 1    
   202  101  224 1    
   203  102  103 2    
   204  102  104 am   BACKBONE|DICT|INTERRES
   205  104  105 1    
   206  104  225 1    
   207  105  106 1    
   208  105  107 1    
   209  105  226 1    
   210  106  227 1    
   211  106  228 1    
   212  106  229 1    
   213  107  108 2    
   214  107  109 am   BACKBONE|DICT|INTERRES
   215  109  110 1    
   216  109  230 1    
   217  110  111 1    
   218  110  112 1    
   219  110  231 1    
   220  111  232 1    
   221  111  233 1    
   222  111  234 1    
   223  112  113 2    
   224  112  114 am   BACKBONE|DICT|INTERRES
   225  114  115 1    
   226  114  235 1    
   227  115  116 1    
   228  115  117 1    
   229  115  236 1    
   230  116  237 1    
   231  116  238 1    
   232  116  239 1    
   233  117  118 2    
   234  117  119 am   BACKBONE|DICT|INTERRES
   235  119  120 1    
   236  119  240 1    
   237  120  121 1    
   238  120  124 1    
   239  120  241 1    
   240  121  122 am   BACKBONE|DICT|INTERRES
   241  121  123 2    
   242  122  242 1    
   243  122  243 1    
   244  124  125 1    
   245  124  244 1    
   246  124  245 1    
   247  125  126 1    
   248  126  246 1    
   249  126  247 1    
@<TRIPOS>SUBSTRUCTURE
     1 UNK         1 GROUP             0       ****    0 ROOT    
