@<TRIPOS>MOLECULE
3R540
247   249    1
SMALL
USER_CHARGES


@<TRIPOS>ATOM
      1 CA          2.8476  -17.4347  -41.1695 C.3       0 UNK        -0.1800 
      2 C           2.2079  -16.3273  -41.9957 C.2       0 UNK         0.5000 
      3 O           1.2737  -15.6760  -41.5283 O.2       0 UNK        -0.5000 
      4 N           2.7042  -16.1185  -43.2217 N.am      1 UNK        -0.5000 
      5 CA          2.2564  -15.0662  -44.1369 C.3       1 UNK         0.1400 
      6 C6          2.7678  -15.3263  -45.5739 C.3       23 UNK        -0.0398 
      7 S7          1.8545  -14.3805  -46.8374 S.3       23 UNK        -0.2404 
      8 C8          2.4717  -15.1536  -48.3664 C.3       23 UNK        -0.0205 
      9 C9          1.6969  -16.4162  -48.7123 C.ar      23 UNK        -0.0193 
     10 C10         0.4851  -16.3175  -49.3997 C.ar      23 UNK        -0.1150 
     11 C11        -0.2590  -17.4583  -49.7079 C.ar      23 UNK        -0.0193 
     12 C12         0.2293  -18.7094  -49.3158 C.ar      23 UNK        -0.1150 
     13 C13         1.4603  -18.8359  -48.6599 C.ar      23 UNK        -0.0193 
     14 C14         2.1835  -17.6775  -48.3553 C.ar      23 UNK        -0.1150 
     15 C15         2.0285  -20.1957  -48.2472 C.3       23 UNK        -0.0205 
     16 S16         1.5517  -21.5947  -49.3170 S.3       23 UNK        -0.2404 
     17 C17        -0.0667  -22.0524  -48.6069 C.3       23 UNK        -0.0398 
     18 CA         -0.0669  -23.4822  -48.0263 C.3       11 UNK         0.1400 
     19 N           0.8860  -23.6558  -46.9266 N.am      11 UNK        -0.5000 
     20 C           1.3715  -24.8436  -46.5404 C.2       10 UNK         0.5000 
     21 O           1.0562  -25.9112  -47.0653 O.2       10 UNK        -0.5000 
     22 CA          2.3288  -24.8432  -45.3337 C.3       10 UNK         0.1400 
     23 CB          3.7555  -24.4886  -45.7783 C.3       10 UNK        -0.1800 
     24 N           1.9093  -23.9234  -44.2751 N.am      10 UNK        -0.5000 
     25 C           0.7577  -24.0207  -43.5966 C.2       9 UNK         0.5000 
     26 O          -0.0529  -24.9312  -43.7617 O.2       9 UNK        -0.5000 
     27 CA          0.4263  -22.8920  -42.6024 C.3       9 UNK         0.1400 
     28 CB          0.8705  -23.2825  -41.1851 C.3       9 UNK        -0.1800 
     29 N           0.9972  -21.5840  -42.9412 N.am      9 UNK        -0.5000 
     30 C           0.7825  -20.9074  -44.0773 C.2       8 UNK         0.5000 
     31 O           0.1583  -21.3583  -45.0433 O.2       8 UNK        -0.5000 
     32 CA          1.4129  -19.5070  -44.1528 C.3       8 UNK         0.1400 
     33 CB          2.8982  -19.5948  -44.5416 C.3       8 UNK        -0.1800 
     34 N           0.6976  -18.6861  -45.1283 N.am      8 UNK        -0.5000 
     35 C          -0.3631  -17.9294  -44.8291 C.2       7 UNK         0.5000 
     36 O          -0.7688  -17.7271  -43.6821 O.2       7 UNK        -0.5000 
     37 CA         -1.1092  -17.3019  -46.0098 C.3       7 UNK         0.1400 
     38 CB         -2.2547  -18.2119  -46.4849 C.3       7 UNK        -0.1800 
     39 N          -1.6142  -16.0008  -45.5904 N.am      7 UNK        -0.5000 
     40 C          -1.8938  -14.9851  -46.4122 C.2       6 UNK         0.5000 
     41 O          -1.9200  -15.0902  -47.6394 O.2       6 UNK        -0.5000 
     42 CA         -2.1286  -13.5989  -45.7873 C.3       6 UNK         0.1400 
     43 CB         -1.8187  -13.5185  -44.2741 C.3       6 UNK        -0.1800 
     44 N          -1.3023  -12.6716  -46.5541 N.am      6 UNK        -0.5000 
     45 C          -1.3718  -11.3398  -46.5539 C.2       5 UNK         0.5000 
     46 O          -2.1071  -10.6805  -45.8146 O.2       5 UNK        -0.5000 
     47 CA         -0.4797  -10.6217  -47.5744 C.3       5 UNK         0.1400 
     48 CB         -1.2141  -10.4636  -48.9195 C.3       5 UNK        -0.1800 
     49 N          -0.1125   -9.3211  -47.0273 N.am      5 UNK        -0.5000 
     50 C           0.8700   -8.5306  -47.4723 C.2       4 UNK         0.5000 
     51 O           1.5455   -8.7738  -48.4731 O.2       4 UNK        -0.5000 
     52 CA          1.1800   -7.2778  -46.6315 C.3       4 UNK         0.1400 
     53 CB         -0.0756   -6.6327  -46.0136 C.3       4 UNK        -0.1800 
     54 N           2.1084   -7.6436  -45.5654 N.am      4 UNK        -0.5000 
     55 C           3.4322   -7.7891  -45.7174 C.2       3 UNK         0.5000 
     56 O           4.0521   -7.4429  -46.7239 O.2       3 UNK        -0.5000 
     57 CA          4.1934   -8.4523  -44.5510 C.3       3 UNK         0.1400 
     58 CB          4.7732   -7.3854  -43.6094 C.3       3 UNK        -0.1800 
     59 N           3.3747   -9.3874  -43.7707 N.am      3 UNK        -0.5000 
     60 C           2.8560  -10.5303  -44.2414 C.2       2 UNK         0.5000 
     61 O           3.0145  -10.9314  -45.3966 O.2       2 UNK        -0.5000 
     62 CA          1.9743  -11.3222  -43.2581 C.3       2 UNK         0.1400 
     63 CB          0.6011  -10.6482  -43.1050 C.3       2 UNK        -0.1800 
     64 N           1.7663  -12.7026  -43.6920 N.am      2 UNK        -0.5000 
     65 C           2.6795  -13.6768  -43.6075 C.2       1 UNK         0.5000 
     66 O           3.8069  -13.5213  -43.1298 O.2       1 UNK        -0.5000 
     67 C          -1.4906  -23.8897  -47.6084 C.2       11 UNK         0.5000 
     68 O          -2.2646  -24.3148  -48.4656 O.2       11 UNK        -0.5000 
     69 N          -1.8163  -23.7705  -46.3138 N.am      12 UNK        -0.5000 
     70 CA         -3.0685  -24.2649  -45.7421 C.3       12 UNK         0.1400 
     71 CB         -3.2859  -23.6578  -44.3484 C.3       12 UNK        -0.1800 
     72 C          -3.0972  -25.8029  -45.7012 C.2       12 UNK         0.5000 
     73 O          -4.0936  -26.3988  -46.1084 O.2       12 UNK        -0.5000 
     74 N          -1.9848  -26.4158  -45.2701 N.am      13 UNK        -0.5000 
     75 CA         -1.7798  -27.8660  -45.2379 C.3       13 UNK         0.1400 
     76 CB         -0.4677  -28.1790  -44.5031 C.3       13 UNK        -0.1800 
     77 C          -1.7859  -28.5067  -46.6388 C.2       13 UNK         0.5000 
     78 O          -2.3598  -29.5821  -46.8130 O.2       13 UNK        -0.5000 
     79 N          -1.1814  -27.8189  -47.6177 N.am      14 UNK        -0.5000 
     80 CA         -1.1781  -28.2062  -49.0313 C.3       14 UNK         0.1400 
     81 CB         -0.0508  -27.4457  -49.7477 C.3       14 UNK        -0.1800 
     82 C          -2.5221  -27.9539  -49.7472 C.2       14 UNK         0.5000 
     83 O          -2.6976  -28.4268  -50.8701 O.2       14 UNK        -0.5000 
     84 N          -3.4207  -27.1876  -49.1095 N.am      15 UNK        -0.5000 
     85 CA         -4.7185  -26.7059  -49.5995 C.3       15 UNK         0.1400 
     86 CB         -5.6658  -27.8731  -49.9425 C.3       15 UNK        -0.1800 
     87 C          -4.6158  -25.6745  -50.7437 C.2       15 UNK         0.5000 
     88 O          -5.6350  -25.3194  -51.3361 O.2       15 UNK        -0.5000 
     89 N          -3.4076  -25.1566  -50.9986 N.am      16 UNK        -0.5000 
     90 CA         -3.1290  -24.0917  -51.9597 C.3       16 UNK         0.1400 
     91 CB         -1.6101  -23.9476  -52.1352 C.3       16 UNK        -0.1800 
     92 C          -3.7540  -22.7537  -51.5352 C.2       16 UNK         0.5000 
     93 O          -4.2609  -22.0272  -52.3885 O.2       16 UNK        -0.5000 
     94 N          -3.7499  -22.4754  -50.2238 N.am      17 UNK        -0.5000 
     95 CA         -4.3966  -21.3003  -49.6373 C.3       17 UNK         0.1400 
     96 CB         -3.8624  -21.0697  -48.2173 C.3       17 UNK        -0.1800 
     97 C          -5.9312  -21.4151  -49.6326 C.2       17 UNK         0.5000 
     98 O          -6.6121  -20.4033  -49.7947 O.2       17 UNK        -0.5000 
     99 N          -6.4469  -22.6440  -49.4808 N.am      18 UNK        -0.5000 
    100 CA        -7.8770  -22.9558  -49.5369 C.3       18 UNK         0.1400 
    101 CB        -8.1229  -24.3585  -48.9596 C.3       18 UNK        -0.1800 
    102 C         -8.4345  -22.8383  -50.9673 C.2       18 UNK         0.5000 
    103 O         -9.5259  -22.3005  -51.1556 O.2       18 UNK        -0.5000 
    104 N         -7.6531  -23.3061  -51.9506 N.am      19 UNK        -0.5000 
    105 CA        -7.9294  -23.1664  -53.3818 C.3       19 UNK         0.1400 
    106 CB        -7.0350  -24.1533  -54.1492 C.3       19 UNK        -0.1800 
    107 C         -7.7086  -21.7342  -53.9115 C.2       19 UNK         0.5000 
    108 O         -8.1919  -21.4157  -54.9985 O.2       19 UNK        -0.5000 
    109 N         -6.9608  -20.9184  -53.1526 N.am      20 UNK        -0.5000 
    110 CA        -6.4717  -19.5744  -53.4804 C.3       20 UNK         0.1400 
    111 CB        -7.6372  -18.5784  -53.6483 C.3       20 UNK        -0.1800 
    112 C         -5.4927  -19.5720  -54.6748 C.2       20 UNK         0.5000 
    113 O         -5.3897  -18.5777  -55.3957 O.2       20 UNK        -0.5000 
    114 N         -4.7622  -20.6829  -54.8439 N.am      21 UNK        -0.5000 
    115 CA        -3.7695  -20.9064  -55.8962 C.3       21 UNK         0.1400 
    116 CB        -3.3659  -22.3889  -55.8874 C.3       21 UNK        -0.1800 
    117 C         -2.5305  -20.0042  -55.7481 C.2       21 UNK         0.5000 
    118 O         -1.8838  -19.6839  -56.7458 O.2       21 UNK        -0.5000 
    119 N         -2.2464  -19.5930  -54.5076 N.am      22 UNK        -0.5000 
    120 CA        -1.2353  -18.5912  -54.1479 C.3       22 UNK         0.1400 
    121 C         -1.6453  -17.1146  -54.4386 C.2       22 UNK         0.5000 
    122 N         -2.8648  -16.8247  -54.8805 N.am      22 UNK        -0.7600 
    123 O         -0.8309  -16.2104  -54.2748 O.2       22 UNK        -0.5000 
    124 C124       -0.7512  -18.7925  -52.6898 C.3       23 UNK        -0.0398 
    125 S125       -2.0966  -18.7334  -51.4512 S.3       23 UNK        -0.2404 
    126 C126       -1.5944  -17.2991  -50.4369 C.3       23 UNK        -0.0205 
    127 H127        2.0891  -18.1470  -40.8448 H         1 UNK         0.0600 
    128 H128        3.3221  -17.0137  -40.2830 H         1 UNK         0.0600 
    129 H129        3.6045  -17.9784  -41.7355 H         1 UNK         0.0600 
    130 H130        3.5116  -16.6449  -43.5206 H         1 UNK         0.3000 
    131 H131        1.1660  -15.1154  -44.1562 H         1 UNK         0.0600 
    132 H132        3.8345  -15.1109  -45.6599 H         1 UNK         0.0800 
    133 H133        2.6496  -16.3832  -45.8128 H         1 UNK         0.0800 
    134 H134        2.3766  -14.4361  -49.1827 H         1 UNK         0.0800 
    135 H135        3.5380  -15.3659  -48.2747 H         1 UNK         0.0800 
    136 H136        0.1070  -15.3428  -49.6749 H         1 UNK         0.1150 
    137 H137       -0.3542  -19.5869  -49.5376 H         1 UNK         0.1150 
    138 H138        3.1290  -17.7563  -47.8371 H         1 UNK         0.1150 
    139 H139        3.1185  -20.1461  -48.2408 H         1 UNK         0.0800 
    140 H140        1.7234  -20.4173  -47.2270 H         1 UNK         0.0800 
    141 H141       -0.8032  -21.9658  -49.4080 H         1 UNK         0.0800 
    142 H142       -0.3616  -21.3317  -47.8421 H         1 UNK         0.0800 
    143 H143        0.2253  -24.1571  -48.8335 H         1 UNK         0.0600 
    144 H144        1.1248  -22.8269  -46.3985 H         1 UNK         0.3000 
    145 H145        2.3390  -25.8528  -44.9175 H         1 UNK         0.0600 
    146 H146        4.4576  -24.5631  -44.9477 H         1 UNK         0.0600 
    147 H147        4.1017  -25.1697  -46.5571 H         1 UNK         0.0600 
    148 H148        3.8140  -23.4755  -46.1786 H         1 UNK         0.0600 
    149 H149        2.5193  -23.1449  -44.0756 H         1 UNK         0.3000 
    150 H150       -0.6592  -22.7773  -42.5975 H         1 UNK         0.0600 
    151 H151        1.9551  -23.3728  -41.1140 H         1 UNK         0.0600 
    152 H152        0.4411  -24.2413  -40.8908 H         1 UNK         0.0600 
    153 H153        0.5450  -22.5449  -40.4513 H         1 UNK         0.0600 
    154 H154        1.5448  -21.1457  -42.2148 H         1 UNK         0.3000 
    155 H155        1.3449  -19.0436  -43.1672 H         1 UNK         0.0600 
    156 H156        3.0602  -20.1913  -45.4380 H         1 UNK         0.0600 
    157 H157        3.4793  -20.0563  -43.7423 H         1 UNK         0.0600 
    158 H158        3.3231  -18.6074  -44.7179 H         1 UNK         0.0600 
    159 H159        0.9267  -18.8399  -46.0983 H         1 UNK         0.3000 
    160 H160       -0.3983  -17.1559  -46.8229 H         1 UNK         0.0600 
    161 H161       -2.9999  -18.3615  -45.7030 H         1 UNK         0.0600 
    162 H162       -1.8736  -19.1929  -46.7697 H         1 UNK         0.0600 
    163 H163       -2.7602  -17.7950  -47.3555 H         1 UNK         0.0600 
    164 H164       -1.6065  -15.8584  -44.5882 H         1 UNK         0.3000 
    165 H165       -3.1777  -13.3437  -45.9482 H         1 UNK         0.0600 
    166 H166       -1.9779  -12.5135  -43.8844 H         1 UNK         0.0600 
    167 H167       -2.4736  -14.1786  -43.7043 H         1 UNK         0.0600 
    168 H168       -0.7909  -13.7989  -44.0528 H         1 UNK         0.0600 
    169 H169       -0.7085  -13.1319  -47.2334 H         1 UNK         0.3000 
    170 H170        0.4300  -11.2094  -47.7187 H         1 UNK         0.0600 
    171 H171       -2.1064   -9.8448  -48.8172 H         1 UNK         0.0600 
    172 H172       -0.5751  -10.0068  -49.6749 H         1 UNK         0.0600 
    173 H173       -1.5286  -11.4326  -49.3093 H         1 UNK         0.0600 
    174 H174       -0.6364   -9.0625  -46.2008 H         1 UNK         0.3000 
    175 H175        1.6465   -6.5410  -47.2891 H         1 UNK         0.0600 
    176 H176       -0.5426   -7.2679  -45.2601 H         1 UNK         0.0600 
    177 H177        0.1727   -5.6854  -45.5345 H         1 UNK         0.0600 
    178 H178       -0.8228   -6.4199  -46.7794 H         1 UNK         0.0600 
    179 H179        1.6986   -7.9620  -44.7006 H         1 UNK         0.3000 
    180 H180        5.0241   -9.0153  -44.9817 H         1 UNK         0.0600 
    181 H181        3.9869   -6.8033  -43.1274 H         1 UNK         0.0600 
    182 H182        5.4102   -6.6879  -44.1550 H         1 UNK         0.0600 
    183 H183        5.3846   -7.8379  -42.8284 H         1 UNK         0.0600 
    184 H184        3.1959   -9.1283  -42.8109 H         1 UNK         0.3000 
    185 H185        2.4682  -11.3351  -42.2840 H         1 UNK         0.0600 
    186 H186        0.0803  -10.5755  -44.0592 H         1 UNK         0.0600 
    187 H187       -0.0371  -11.2031  -42.4169 H         1 UNK         0.0600 
    188 H188        0.6982   -9.6372  -42.7077 H         1 UNK         0.0600 
    189 H189        0.8892  -12.8935  -44.1505 H         1 UNK         0.3000 
    190 H190       -1.1337  -23.3890  -45.6734 H         1 UNK         0.3000 
    191 H191       -3.8914  -23.9372  -46.3801 H         1 UNK         0.0600 
    192 H192       -3.2558  -22.5686  -44.3834 H         1 UNK         0.0600 
    193 H193       -4.2599  -23.9445  -43.9503 H         1 UNK         0.0600 
    194 H194       -2.5334  -23.9922  -43.6353 H         1 UNK         0.0600 
    195 H195       -1.2270  -25.8470  -44.9000 H         1 UNK         0.3000 
    196 H196       -2.6018  -28.3053  -44.6691 H         1 UNK         0.0600 
    197 H197       -0.2972  -29.2548  -44.4468 H         1 UNK         0.0600 
    198 H198       -0.4883  -27.7987  -43.4816 H         1 UNK         0.0600 
    199 H199        0.3916  -27.7349  -45.0067 H         1 UNK         0.0600 
    200 H200       -0.6561  -26.9852  -47.3750 H         1 UNK         0.3000 
    201 H201       -0.9661  -29.2752  -49.0984 H         1 UNK         0.0600 
    202 H202        0.0188  -27.7400  -50.7958 H         1 UNK         0.0600 
    203 H203        0.9171  -27.6510  -49.2899 H         1 UNK         0.0600 
    204 H204       -0.2134  -26.3681  -49.7200 H         1 UNK         0.0600 
    205 H205       -3.1704  -26.8536  -48.1879 H         1 UNK         0.3000 
    206 H206       -5.1617  -26.1670  -48.7612 H         1 UNK         0.0600 
    207 H207       -5.7300  -28.5833  -49.1181 H         1 UNK         0.0600 
    208 H208       -6.6761  -27.5117  -50.1372 H         1 UNK         0.0600 
    209 H209       -5.3405  -28.4151  -50.8305 H         1 UNK         0.0600 
    210 H210       -2.6477  -25.4320  -50.3923 H         1 UNK         0.3000 
    211 H211       -3.5639  -24.3750  -52.9204 H         1 UNK         0.0600 
    212 H212       -1.1149  -23.7080  -51.1938 H         1 UNK         0.0600 
    213 H213       -1.3711  -23.1531  -52.8436 H         1 UNK         0.0600 
    214 H214       -1.1702  -24.8684  -52.5186 H         1 UNK         0.0600 
    215 H215       -3.3135  -23.1374  -49.5892 H         1 UNK         0.3000 
    216 H216       -4.1388  -20.4281  -50.2398 H         1 UNK         0.0600 
    217 H217       -4.3131  -20.1823  -47.7711 H         1 UNK         0.0600 
    218 H218       -2.7850  -20.9143  -48.2252 H         1 UNK         0.0600 
    219 H219       -4.0793  -21.9120  -47.5617 H         1 UNK         0.0600 
    220 H220       -5.8139  -23.4221  -49.3819 H         1 UNK         0.3000 
    221 H221       -8.4081  -22.2356  -48.9106 H         1 UNK         0.0600 
    222 H222       -7.6355  -25.1340  -49.5500 H         1 UNK         0.0600 
    223 H223       -7.7555  -24.4348  -47.9360 H         1 UNK         0.0600 
    224 H224       -9.1891  -24.5873  -48.9396 H         1 UNK         0.0600 
    225 H225       -6.8098  -23.8165  -51.7039 H         1 UNK         0.3000 
    226 H226       -8.9730  -23.4315  -53.5633 H         1 UNK         0.0600 
    227 H227       -7.2278  -24.1073  -55.2218 H         1 UNK         0.0600 
    228 H228       -5.9767  -23.9378  -53.9956 H         1 UNK         0.0600 
    229 H229       -7.2160  -25.1798  -53.8299 H         1 UNK         0.0600 
    230 H230       -6.5927  -21.3074  -52.2957 H         1 UNK         0.3000 
    231 H231       -5.8880  -19.2523  -52.6166 H         1 UNK         0.0600 
    232 H232       -8.2238  -18.7849  -54.5436 H         1 UNK         0.0600 
    233 H233       -7.2671  -17.5559  -53.7306 H         1 UNK         0.0600 
    234 H234       -8.3089  -18.6112  -52.7904 H         1 UNK         0.0600 
    235 H235       -4.8297  -21.3988  -54.1268 H         1 UNK         0.3000 
    236 H236       -4.2357  -20.6784  -56.8568 H         1 UNK         0.0600 
    237 H237       -4.2306  -23.0341  -56.0439 H         1 UNK         0.0600 
    238 H238       -2.6510  -22.6040  -56.6826 H         1 UNK         0.0600 
    239 H239       -2.9021  -22.6732  -54.9422 H         1 UNK         0.0600 
    240 H240       -2.8368  -19.9086  -53.7509 H         1 UNK         0.3000 
    241 H241       -0.3689  -18.7704  -54.7872 H         1 UNK         0.0600 
    242 H242       -3.5562  -17.5459  -55.0414 H         1 UNK         0.3800 
    243 H243       -3.1014  -15.8634  -55.0677 H         1 UNK         0.3800 
    244 H244       -0.2703  -19.7674  -52.6007 H         1 UNK         0.0800 
    245 H245        0.0248  -18.0666  -52.4414 H         1 UNK         0.0800 
    246 H246       -1.5636  -16.4194  -51.0820 H         1 UNK         0.0800 
    247 H247       -2.3699  -17.1088  -49.6945 H         1 UNK         0.0800 
@<TRIPOS>BOND
     1    1    2 1    
     2    1  127 1    
     3    1  128 1    
     4    1  129 1    
     5    2    3 2    
     6    2    4 am   BACKBONE|DICT|INTERRES
     7    4    5 1    
     8    4  130 1    
     9    5    6 1    
    10    5   65 1    
    11    5  131 1    
    12    6    7 1    
    13    6  132 1    
    14    6  133 1    
    15    7    8 1    
    16    8    9 1    
    17    8  134 1    
    18    8  135 1    
    19    9   10 ar   
    20    9   14 ar   
    21   10   11 ar   
    22   10  136 1    
    23   11   12 ar   
    24   11  126 1    
    25   12   13 ar   
    26   12  137 1    
    27   13   14 ar   
    28   13   15 1    
    29   14  138 1    
    30   15   16 1    
    31   15  139 1    
    32   15  140 1    
    33   16   17 1    
    34   17   18 1    
    35   17  141 1    
    36   17  142 1    
    37   18   19 1    
    38   18   67 1    
    39   18  143 1    
    40   19   20 am   BACKBONE|DICT|INTERRES
    41   19  144 1    
    42   20   21 2    
    43   20   22 1    
    44   22   23 1    
    45   22   24 1    
    46   22  145 1    
    47   23  146 1    
    48   23  147 1    
    49   23  148 1    
    50   24   25 am   BACKBONE|DICT|INTERRES
    51   24  149 1    
    52   25   26 2    
    53   25   27 1    
    54   27   28 1    
    55   27   29 1    
    56   27  150 1    
    57   28  151 1    
    58   28  152 1    
    59   28  153 1    
    60   29   30 am   BACKBONE|DICT|INTERRES
    61   29  154 1    
    62   30   31 2    
    63   30   32 1    
    64   32   33 1    
    65   32   34 1    
    66   32  155 1    
    67   33  156 1    
    68   33  157 1    
    69   33  158 1    
    70   34   35 am   BACKBONE|DICT|INTERRES
    71   34  159 1    
    72   35   36 2    
    73   35   37 1    
    74   37   38 1    
    75   37   39 1    
    76   37  160 1    
    77   38  161 1    
    78   38  162 1    
    79   38  163 1    
    80   39   40 am   BACKBONE|DICT|INTERRES
    81   39  164 1    
    82   40   41 2    
    83   40   42 1    
    84   42   43 1    
    85   42   44 1    
    86   42  165 1    
    87   43  166 1    
    88   43  167 1    
    89   43  168 1    
    90   44   45 am   BACKBONE|DICT|INTERRES
    91   44  169 1    
    92   45   46 2    
    93   45   47 1    
    94   47   48 1    
    95   47   49 1    
    96   47  170 1    
    97   48  171 1    
    98   48  172 1    
    99   48  173 1    
   100   49   50 am   BACKBONE|DICT|INTERRES
   101   49  174 1    
   102   50   51 2    
   103   50   52 1    
   104   52   53 1    
   105   52   54 1    
   106   52  175 1    
   107   53  176 1    
   108   53  177 1    
   109   53  178 1    
   110   54   55 am   BACKBONE|DICT|INTERRES
   111   54  179 1    
   112   55   56 2    
   113   55   57 1    
   114   57   58 1    
   115   57   59 1    
   116   57  180 1    
   117   58  181 1    
   118   58  182 1    
   119   58  183 1    
   120   59   60 am   BACKBONE|DICT|INTERRES
   121   59  184 1    
   122   60   61 2    
   123   60   62 1    
   124   62   63 1    
   125   62   64 1    
   126   62  185 1    
   127   63  186 1    
   128   63  187 1    
   129   63  188 1    
   130   64   65 am   BACKBONE|DICT|INTERRES
   131   64  189 1    
   132   65   66 2    
   133   67   68 2    
   134   67   69 am   BACKBONE|DICT|INTERRES
   135   69   70 1    
   136   69  190 1    
   137   70   71 1    
   138   70   72 1    
   139   70  191 1    
   140   71  192 1    
   141   71  193 1    
   142   71  194 1    
   143   72   73 2    
   144   72   74 am   BACKBONE|DICT|INTERRES
   145   74   75 1    
   146   74  195 1    
   147   75   76 1    
   148   75   77 1    
   149   75  196 1    
   150   76  197 1    
   151   76  198 1    
   152   76  199 1    
   153   77   78 2    
   154   77   79 am   BACKBONE|DICT|INTERRES
   155   79   80 1    
   156   79  200 1    
   157   80   81 1    
   158   80   82 1    
   159   80  201 1    
   160   81  202 1    
   161   81  203 1    
   162   81  204 1    
   163   82   83 2    
   164   82   84 am   BACKBONE|DICT|INTERRES
   165   84   85 1    
   166   84  205 1    
   167   85   86 1    
   168   85   87 1    
   169   85  206 1    
   170   86  207 1    
   171   86  208 1    
   172   86  209 1    
   173   87   88 2    
   174   87   89 am   BACKBONE|DICT|INTERRES
   175   89   90 1    
   176   89  210 1    
   177   90   91 1    
   178   90   92 1    
   179   90  211 1    
   180   91  212 1    
   181   91  213 1    
   182   91  214 1    
   183   92   93 2    
   184   92   94 am   BACKBONE|DICT|INTERRES
   185   94   95 1    
   186   94  215 1    
   187   95   96 1    
   188   95   97 1    
   189   95  216 1    
   190   96  217 1    
   191   96  218 1    
   192   96  219 1    
   193   97   98 2    
   194   97   99 am   BACKBONE|DICT|INTERRES
   195   99  100 1    
   196   99  220 1    
   197  100  101 1    
   198  100  102 1    
   199  100  221 1    
   200  101  222 1    
   201  101  223 1    
   202  101  224 1    
   203  102  103 2    
   204  102  104 am   BACKBONE|DICT|INTERRES
   205  104  105 1    
   206  104  225 1    
   207  105  106 1    
   208  105  107 1    
   209  105  226 1    
   210  106  227 1    
   211  106  228 1    
   212  106  229 1    
   213  107  108 2    
   214  107  109 am   BACKBONE|DICT|INTERRES
   215  109  110 1    
   216  109  230 1    
   217  110  111 1    
   218  110  112 1    
   219  110  231 1    
   220  111  232 1    
   221  111  233 1    
   222  111  234 1    
   223  112  113 2    
   224  112  114 am   BACKBONE|DICT|INTERRES
   225  114  115 1    
   226  114  235 1    
   227  115  116 1    
   228  115  117 1    
   229  115  236 1    
   230  116  237 1    
   231  116  238 1    
   232  116  239 1    
   233  117  118 2    
   234  117  119 am   BACKBONE|DICT|INTERRES
   235  119  120 1    
   236  119  240 1    
   237  120  121 1    
   238  120  124 1    
   239  120  241 1    
   240  121  122 am   BACKBONE|DICT|INTERRES
   241  121  123 2    
   242  122  242 1    
   243  122  243 1    
   244  124  125 1    
   245  124  244 1    
   246  124  245 1    
   247  125  126 1    
   248  126  246 1    
   249  126  247 1    
@<TRIPOS>SUBSTRUCTURE
     1 UNK         1 GROUP             0       ****    0 ROOT    
