@<TRIPOS>MOLECULE
3R540
247   249    1
SMALL
USER_CHARGES


@<TRIPOS>ATOM
      1 CA         -3.5840  -10.6205  -45.7489 C.3       0 UNK        -0.1800 
      2 C          -2.0891  -10.8567  -45.5911 C.2       0 UNK         0.5000 
      3 O          -1.4803  -10.3394  -44.6539 O.2       0 UNK        -0.5000 
      4 N          -1.4944  -11.6495  -46.4934 N.am      1 UNK        -0.5000 
      5 CA         -0.0630  -11.9832  -46.5089 C.3       1 UNK         0.1400 
      6 C6          0.3836  -12.6260  -47.8444 C.3       23 UNK        -0.0398 
      7 S7         -0.5256  -14.1460  -48.2806 S.3       23 UNK        -0.2404 
      8 C8          0.0624  -14.3952  -49.9814 C.3       23 UNK        -0.0205 
      9 C9         -0.6238  -15.5906  -50.6182 C.ar      23 UNK        -0.0193 
     10 C10         0.0648  -16.7912  -50.8111 C.ar      23 UNK        -0.1150 
     11 C11        -0.5775  -17.8923  -51.3860 C.ar      23 UNK        -0.0193 
     12 C12        -1.9231  -17.7888  -51.7517 C.ar      23 UNK        -0.1150 
     13 C13        -2.6142  -16.5868  -51.5812 C.ar      23 UNK        -0.0193 
     14 C14        -1.9577  -15.4906  -51.0180 C.ar      23 UNK        -0.1150 
     15 C15        -4.0652  -16.4621  -52.0195 C.3       23 UNK        -0.0205 
     16 S16        -5.2017  -17.4060  -50.9570 S.3       23 UNK        -0.2404 
     17 C17        -4.8953  -16.6854  -49.3071 C.3       23 UNK        -0.0398 
     18 CA         -4.3484  -17.7543  -48.3165 C.3       11 UNK         0.1400 
     19 N          -2.9358  -17.5246  -47.9605 N.am      11 UNK        -0.5000 
     20 C          -2.1469  -18.3817  -47.2956 C.2       10 UNK         0.5000 
     21 O          -2.5602  -19.4300  -46.7944 O.2       10 UNK        -0.5000 
     22 CA         -0.6790  -17.9600  -47.0983 C.3       10 UNK         0.1400 
     23 CB         -0.5836  -16.9104  -45.9817 C.3       10 UNK        -0.1800 
     24 N           0.1906  -19.0790  -46.7371 N.am      10 UNK        -0.5000 
     25 C           0.4257  -20.1694  -47.4791 C.2       9 UNK         0.5000 
     26 O          -0.0201  -20.3473  -48.6116 O.2       9 UNK        -0.5000 
     27 CA          1.3082  -21.2511  -46.8382 C.3       9 UNK         0.1400 
     28 CB          2.7951  -20.8892  -46.9786 C.3       9 UNK        -0.1800 
     29 N           0.9916  -21.4470  -45.4240 N.am      9 UNK        -0.5000 
     30 C          -0.0117  -22.2108  -44.9714 C.2       8 UNK         0.5000 
     31 O          -0.7903  -22.8221  -45.7014 O.2       8 UNK        -0.5000 
     32 CA         -0.1647  -22.3200  -43.4424 C.3       8 UNK         0.1400 
     33 CB          0.7964  -23.3791  -42.8819 C.3       8 UNK        -0.1800 
     34 N           0.0703  -21.0485  -42.7632 N.am      8 UNK        -0.5000 
     35 C          -0.7360  -19.9812  -42.8481 C.2       7 UNK         0.5000 
     36 O          -1.8192  -19.9848  -43.4297 O.2       7 UNK        -0.5000 
     37 CA         -0.2345  -18.6809  -42.1903 C.3       7 UNK         0.1400 
     38 CB         -0.8475  -18.5088  -40.7930 C.3       7 UNK        -0.1800 
     39 N           1.2265  -18.5815  -42.0940 N.am      7 UNK        -0.5000 
     40 C           2.0615  -18.5617  -43.1410 C.2       6 UNK         0.5000 
     41 O           1.6996  -18.7038  -44.3110 O.2       6 UNK        -0.5000 
     42 CA          3.5583  -18.3783  -42.8362 C.3       6 UNK         0.1400 
     43 CB          4.3261  -19.6811  -43.1094 C.3       6 UNK        -0.1800 
     44 N           4.1210  -17.3038  -43.6533 N.am      6 UNK        -0.5000 
     45 C           3.7655  -16.0184  -43.5386 C.2       5 UNK         0.5000 
     46 O           3.0136  -15.6003  -42.6555 O.2       5 UNK        -0.5000 
     47 CA          4.3165  -15.0581  -44.6075 C.3       5 UNK         0.1400 
     48 CB          3.6251  -15.3063  -45.9602 C.3       5 UNK        -0.1800 
     49 N           4.0919  -13.6671  -44.2219 N.am      5 UNK        -0.5000 
     50 C           4.8397  -12.9740  -43.3553 C.2       4 UNK         0.5000 
     51 O           5.8823  -13.4019  -42.8576 O.2       4 UNK        -0.5000 
     52 CA          4.3362  -11.5725  -42.9737 C.3       4 UNK         0.1400 
     53 CB          4.5777  -10.5766  -44.1200 C.3       4 UNK        -0.1800 
     54 N           2.9093  -11.5865  -42.6438 N.am      4 UNK        -0.5000 
     55 C           2.3842  -11.1887  -41.4755 C.2       3 UNK         0.5000 
     56 O           3.0590  -10.7816  -40.5285 O.2       3 UNK        -0.5000 
     57 CA          0.8469  -11.2242  -41.3290 C.3       3 UNK         0.1400 
     58 CB          0.2601   -9.8169  -41.5189 C.3       3 UNK        -0.1800 
     59 N           0.1977  -12.1306  -42.2743 N.am      3 UNK        -0.5000 
     60 C           0.2081  -13.4674  -42.1807 C.2       2 UNK         0.5000 
     61 O           0.6294  -14.0689  -41.1930 O.2       2 UNK        -0.5000 
     62 CA         -0.3445  -14.2707  -43.3810 C.3       2 UNK         0.1400 
     63 CB         -1.6778  -14.9389  -43.0037 C.3       2 UNK        -0.1800 
     64 N          -0.5464  -13.4877  -44.6075 N.am      2 UNK        -0.5000 
     65 C           0.3935  -12.8171  -45.2923 C.2       1 UNK         0.5000 
     66 O           1.5788  -12.7880  -44.9651 O.2       1 UNK        -0.5000 
     67 C          -5.3147  -17.9723  -47.1252 C.2       11 UNK         0.5000 
     68 O          -6.4716  -18.3305  -47.3491 O.2       11 UNK        -0.5000 
     69 N          -4.8298  -17.8025  -45.8874 N.am      12 UNK        -0.5000 
     70 CA         -5.4952  -18.2319  -44.6575 C.3       12 UNK         0.1400 
     71 CB         -4.6964  -17.7092  -43.4530 C.3       12 UNK        -0.1800 
     72 C          -5.6912  -19.7637  -44.5699 C.2       12 UNK         0.5000 
     73 O          -6.6161  -20.2046  -43.8857 O.2       12 UNK        -0.5000 
     74 N          -4.8539  -20.5405  -45.2743 N.am      13 UNK        -0.5000 
     75 CA         -4.9784  -21.9947  -45.3993 C.3       13 UNK         0.1400 
     76 CB         -4.1374  -22.6825  -44.3155 C.3       13 UNK        -0.1800 
     77 C          -4.6024  -22.5164  -46.7977 C.2       13 UNK         0.5000 
     78 O          -5.1301  -23.5538  -47.2013 O.2       13 UNK        -0.5000 
     79 N          -3.7078  -21.8180  -47.5143 N.am      14 UNK        -0.5000 
     80 CA         -3.2364  -22.1086  -48.8742 C.3       14 UNK         0.1400 
     81 CB         -4.3508  -21.8104  -49.8996 C.3       14 UNK        -0.1800 
     82 C          -2.6486  -23.5275  -49.0270 C.2       14 UNK         0.5000 
     83 O          -2.9607  -24.2211  -49.9961 O.2       14 UNK        -0.5000 
     84 N          -1.8456  -23.9540  -48.0411 N.am      15 UNK        -0.5000 
     85 CA         -1.2513  -25.2886  -47.9030 C.3       15 UNK         0.1400 
     86 CB         -0.2087  -25.5378  -49.0131 C.3       15 UNK        -0.1800 
     87 C          -2.3169  -26.4020  -47.8067 C.2       15 UNK         0.5000 
     88 O          -2.1507  -27.4675  -48.3987 O.2       15 UNK        -0.5000 
     89 N          -3.4131  -26.1102  -47.0894 N.am      16 UNK        -0.5000 
     90 CA         -4.6475  -26.9004  -46.9961 C.3       16 UNK         0.1400 
     91 CB         -4.3973  -28.2618  -46.3135 C.3       16 UNK        -0.1800 
     92 C          -5.3477  -27.0147  -48.3672 C.2       16 UNK         0.5000 
     93 O          -5.7385  -28.1059  -48.7850 O.2       16 UNK        -0.5000 
     94 N          -5.4567  -25.8634  -49.0457 N.am      17 UNK        -0.5000 
     95 CA         -6.0065  -25.6442  -50.3888 C.3       17 UNK         0.1400 
     96 CB         -7.5119  -25.9795  -50.4237 C.3       17 UNK        -0.1800 
     97 C          -5.2226  -26.3257  -51.5346 C.2       17 UNK         0.5000 
     98 O          -5.7463  -26.4255  -52.6457 O.2       17 UNK        -0.5000 
     99 N          -3.9848  -26.7665  -51.2717 N.am      18 UNK        -0.5000 
    100 CA        -3.1056  -27.3958  -52.2578 C.3       18 UNK         0.1400 
    101 CB        -2.1215  -28.3311  -51.5410 C.3       18 UNK        -0.1800 
    102 C         -2.3378  -26.3750  -53.1172 C.2       18 UNK         0.5000 
    103 O         -1.9072  -26.7268  -54.2172 O.2       18 UNK        -0.5000 
    104 N         -2.1663  -25.1395  -52.6232 N.am      19 UNK        -0.5000 
    105 CA        -1.4411  -24.0582  -53.2940 C.3       19 UNK         0.1400 
    106 CB        -0.9416  -23.0529  -52.2399 C.3       19 UNK        -0.1800 
    107 C         -2.2945  -23.3963  -54.3966 C.2       19 UNK         0.5000 
    108 O         -2.6472  -22.2194  -54.2967 O.2       19 UNK        -0.5000 
    109 N         -2.6263  -24.1753  -55.4325 N.am      20 UNK        -0.5000 
    110 CA        -3.3512  -23.7333  -56.6222 C.3       20 UNK         0.1400 
    111 CB        -3.6844  -24.9555  -57.4908 C.3       20 UNK        -0.1800 
    112 C         -2.5411  -22.6966  -57.4232 C.2       20 UNK         0.5000 
    113 O         -1.3424  -22.8935  -57.6355 O.2       20 UNK        -0.5000 
    114 N         -3.2151  -21.6141  -57.8370 N.am      21 UNK        -0.5000 
    115 CA        -2.6862  -20.4586  -58.5788 C.3       21 UNK         0.1400 
    116 CB        -2.1678  -20.8844  -59.9688 C.3       21 UNK        -0.1800 
    117 C         -1.6544  -19.6065  -57.8012 C.2       21 UNK         0.5000 
    118 O         -0.9917  -18.7586  -58.4018 O.2       21 UNK        -0.5000 
    119 N         -1.5449  -19.8238  -56.4853 N.am      22 UNK        -0.5000 
    120 CA        -0.7203  -19.0380  -55.5588 C.3       22 UNK         0.1400 
    121 C         -1.3439  -17.6425  -55.2657 C.2       22 UNK         0.5000 
    122 N         -0.5271  -16.6360  -54.9880 N.am      22 UNK        -0.7600 
    123 O         -2.5607  -17.4662  -55.2735 O.2       22 UNK        -0.5000 
    124 C124       -0.4634  -19.8605  -54.2729 C.3       23 UNK        -0.0398 
    125 S125        0.9376  -19.2759  -53.2600 S.3       23 UNK        -0.2404 
    126 C126        0.1856  -19.1899  -51.6023 C.3       23 UNK        -0.0205 
    127 H127       -3.7838   -9.5564  -45.8745 H         1 UNK         0.0600 
    128 H128       -3.9886  -11.1474  -46.6134 H         1 UNK         0.0600 
    129 H129       -4.1137  -10.9656  -44.8610 H         1 UNK         0.0600 
    130 H130       -2.0424  -12.0605  -47.2364 H         1 UNK         0.3000 
    131 H131        0.4739  -11.0354  -46.4270 H         1 UNK         0.0600 
    132 H132        0.2452  -11.9030  -48.6495 H         1 UNK         0.0800 
    133 H133        1.4527  -12.8475  -47.8277 H         1 UNK         0.0800 
    134 H134        1.1453  -14.5290  -49.9750 H         1 UNK         0.0800 
    135 H135       -0.1396  -13.5027  -50.5755 H         1 UNK         0.0800 
    136 H136        1.1013  -16.8705  -50.5147 H         1 UNK         0.1150 
    137 H137       -2.4367  -18.6357  -52.1823 H         1 UNK         0.1150 
    138 H138       -2.4861  -14.5578  -50.8789 H         1 UNK         0.1150 
    139 H139       -4.3777  -15.4169  -52.0357 H         1 UNK         0.0800 
    140 H140       -4.1595  -16.8232  -53.0446 H         1 UNK         0.0800 
    141 H141       -4.2207  -15.8332  -49.3846 H         1 UNK         0.0800 
    142 H142       -5.8406  -16.2519  -48.9745 H         1 UNK         0.0800 
    143 H143       -4.3458  -18.7231  -48.8180 H         1 UNK         0.0600 
    144 H144       -2.5229  -16.6777  -48.3251 H         1 UNK         0.3000 
    145 H145       -0.3131  -17.5295  -48.0317 H         1 UNK         0.0600 
    146 H146        0.4337  -16.5327  -45.8788 H         1 UNK         0.0600 
    147 H147       -1.2299  -16.0550  -46.1766 H         1 UNK         0.0600 
    148 H148       -0.8830  -17.3312  -45.0230 H         1 UNK         0.0600 
    149 H149        0.6279  -19.0231  -45.8214 H         1 UNK         0.3000 
    150 H150        1.1360  -22.1871  -47.3747 H         1 UNK         0.0600 
    151 H151        3.0675  -20.7646  -48.0274 H         1 UNK         0.0600 
    152 H152        3.4320  -21.6727  -46.5678 H         1 UNK         0.0600 
    153 H153        3.0352  -19.9576  -46.4646 H         1 UNK         0.0600 
    154 H154        1.5288  -20.9041  -44.7627 H         1 UNK         0.3000 
    155 H155       -1.1826  -22.6428  -43.2208 H         1 UNK         0.0600 
    156 H156        0.6312  -24.3461  -43.3591 H         1 UNK         0.0600 
    157 H157        0.6491  -23.5176  -41.8106 H         1 UNK         0.0600 
    158 H158        1.8398  -23.1063  -43.0454 H         1 UNK         0.0600 
    159 H159        0.9318  -20.9566  -42.2464 H         1 UNK         0.3000 
    160 H160       -0.5783  -17.8516  -42.8093 H         1 UNK         0.0600 
    161 H161       -1.9369  -18.5478  -40.8375 H         1 UNK         0.0600 
    162 H162       -0.5766  -17.5456  -40.3597 H         1 UNK         0.0600 
    163 H163       -0.5176  -19.2919  -40.1093 H         1 UNK         0.0600 
    164 H164        1.6046  -18.4558  -41.1660 H         1 UNK         0.3000 
    165 H165        3.6844  -18.1145  -41.7840 H         1 UNK         0.0600 
    166 H166        5.3832  -19.5738  -42.8656 H         1 UNK         0.0600 
    167 H167        3.9354  -20.4996  -42.5036 H         1 UNK         0.0600 
    168 H168        4.2526  -19.9829  -44.1551 H         1 UNK         0.0600 
    169 H169        4.7137  -17.5852  -44.4201 H         1 UNK         0.3000 
    170 H170        5.3885  -15.2334  -44.7185 H         1 UNK         0.0600 
    171 H171        2.5431  -15.1916  -45.8864 H         1 UNK         0.0600 
    172 H172        3.9828  -14.6113  -46.7201 H         1 UNK         0.0600 
    173 H173        3.8206  -16.3148  -46.3262 H         1 UNK         0.0600 
    174 H174        3.2138  -13.2661  -44.5441 H         1 UNK         0.3000 
    175 H175        4.9257  -11.2439  -42.1154 H         1 UNK         0.0600 
    176 H176        4.0009  -10.8357  -45.0089 H         1 UNK         0.0600 
    177 H177        4.2991   -9.5649  -43.8250 H         1 UNK         0.0600 
    178 H178        5.6305  -10.5546  -44.4042 H         1 UNK         0.0600 
    179 H179        2.2881  -11.9506  -43.3588 H         1 UNK         0.3000 
    180 H180        0.6183  -11.5552  -40.3138 H         1 UNK         0.0600 
    181 H181        0.6953   -9.1115  -40.8098 H         1 UNK         0.0600 
    182 H182        0.4504   -9.4347  -42.5228 H         1 UNK         0.0600 
    183 H183       -0.8184   -9.8143  -41.3593 H         1 UNK         0.0600 
    184 H184       -0.2055  -11.7079  -43.1002 H         1 UNK         0.3000 
    185 H185        0.3835  -15.0529  -43.6057 H         1 UNK         0.0600 
    186 H186       -1.5617  -15.5793  -42.1283 H         1 UNK         0.0600 
    187 H187       -2.4425  -14.1982  -42.7670 H         1 UNK         0.0600 
    188 H188       -2.0584  -15.5632  -43.8111 H         1 UNK         0.0600 
    189 H189       -1.4952  -13.4270  -44.9457 H         1 UNK         0.3000 
    190 H190       -3.8638  -17.5267  -45.7982 H         1 UNK         0.3000 
    191 H191       -6.4864  -17.7745  -44.6346 H         1 UNK         0.0600 
    192 H192       -5.1584  -18.0152  -42.5135 H         1 UNK         0.0600 
    193 H193       -4.6505  -16.6200  -43.4524 H         1 UNK         0.0600 
    194 H194       -3.6739  -18.0867  -43.4540 H         1 UNK         0.0600 
    195 H195       -4.0935  -20.0972  -45.7797 H         1 UNK         0.3000 
    196 H196       -6.0221  -22.2788  -45.2494 H         1 UNK         0.0600 
    197 H197       -4.4869  -22.4197  -43.3171 H         1 UNK         0.0600 
    198 H198       -3.0944  -22.3838  -44.3929 H         1 UNK         0.0600 
    199 H199       -4.1823  -23.7686  -44.4049 H         1 UNK         0.0600 
    200 H200       -3.2696  -20.9990  -47.0965 H         1 UNK         0.3000 
    201 H201       -2.4165  -21.4181  -49.0725 H         1 UNK         0.0600 
    202 H202       -4.6929  -20.7796  -49.8240 H         1 UNK         0.0600 
    203 H203       -5.2159  -22.4564  -49.7543 H         1 UNK         0.0600 
    204 H204       -3.9992  -21.9561  -50.9216 H         1 UNK         0.0600 
    205 H205       -1.6424  -23.3247  -47.2664 H         1 UNK         0.3000 
    206 H206       -0.7224  -25.2928  -46.9492 H         1 UNK         0.0600 
    207 H207        0.5314  -24.7382  -49.0436 H         1 UNK         0.0600 
    208 H208        0.3288  -26.4711  -48.8421 H         1 UNK         0.0600 
    209 H209       -0.6703  -25.6039  -49.9981 H         1 UNK         0.0600 
    210 H210       -3.4704  -25.1827  -46.6919 H         1 UNK         0.3000 
    211 H211       -5.3248  -26.3343  -46.3548 H         1 UNK         0.0600 
    212 H212       -3.7801  -28.9203  -46.9250 H         1 UNK         0.0600 
    213 H213       -5.3385  -28.7804  -46.1281 H         1 UNK         0.0600 
    214 H214       -3.9017  -28.1348  -45.3512 H         1 UNK         0.0600 
    215 H215       -5.1176  -25.0254  -48.5826 H         1 UNK         0.3000 
    216 H216       -5.9098  -24.5742  -50.5721 H         1 UNK         0.0600 
    217 H217       -8.0476  -25.4703  -49.6226 H         1 UNK         0.0600 
    218 H218       -7.6912  -27.0499  -50.3211 H         1 UNK         0.0600 
    219 H219       -7.9634  -25.6626  -51.3645 H         1 UNK         0.0600 
    220 H220       -3.6049  -26.6151  -50.3468 H         1 UNK         0.3000 
    221 H221       -3.7110  -28.0060  -52.9314 H         1 UNK         0.0600 
    222 H222       -1.4167  -27.7761  -50.9221 H         1 UNK         0.0600 
    223 H223       -2.6438  -29.0428  -50.9011 H         1 UNK         0.0600 
    224 H224       -1.5380  -28.9064  -52.2607 H         1 UNK         0.0600 
    225 H225       -2.5645  -24.9134  -51.7145 H         1 UNK         0.3000 
    226 H226       -0.5582  -24.4814  -53.7776 H         1 UNK         0.0600 
    227 H227       -0.3895  -23.5525  -51.4443 H         1 UNK         0.0600 
    228 H228       -0.2660  -22.3248  -52.6863 H         1 UNK         0.0600 
    229 H229       -1.7625  -22.5011  -51.7827 H         1 UNK         0.0600 
    230 H230       -2.3124  -25.1396  -55.4149 H         1 UNK         0.3000 
    231 H231       -4.2879  -23.2789  -56.2925 H         1 UNK         0.0600 
    232 H232       -4.2932  -25.6749  -56.9427 H         1 UNK         0.0600 
    233 H233       -4.2467  -24.6623  -58.3783 H         1 UNK         0.0600 
    234 H234       -2.7818  -25.4674  -57.8275 H         1 UNK         0.0600 
    235 H235       -4.1948  -21.5482  -57.5960 H         1 UNK         0.3000 
    236 H236       -3.5403  -19.8000  -58.7423 H         1 UNK         0.0600 
    237 H237       -2.9134  -21.4708  -60.5058 H         1 UNK         0.0600 
    238 H238       -1.9382  -20.0143  -60.5848 H         1 UNK         0.0600 
    239 H239       -1.2578  -21.4806  -59.8985 H         1 UNK         0.0600 
    240 H240       -2.1439  -20.5194  -56.0625 H         1 UNK         0.3000 
    241 H241        0.2419  -18.8747  -56.0486 H         1 UNK         0.0600 
    242 H242       -0.9189  -15.7317  -54.7799 H         1 UNK         0.3800 
    243 H243        0.4707  -16.7693  -54.9372 H         1 UNK         0.3800 
    244 H244       -1.3713  -19.9337  -53.6752 H         1 UNK         0.0800 
    245 H245       -0.2158  -20.8847  -54.5536 H         1 UNK         0.0800 
    246 H246        0.9825  -19.2718  -50.8619 H         1 UNK         0.0800 
    247 H247       -0.4663  -20.0484  -51.4340 H         1 UNK         0.0800 
@<TRIPOS>BOND
     1    1    2 1    
     2    1  127 1    
     3    1  128 1    
     4    1  129 1    
     5    2    3 2    
     6    2    4 am   BACKBONE|DICT|INTERRES
     7    4    5 1    
     8    4  130 1    
     9    5    6 1    
    10    5   65 1    
    11    5  131 1    
    12    6    7 1    
    13    6  132 1    
    14    6  133 1    
    15    7    8 1    
    16    8    9 1    
    17    8  134 1    
    18    8  135 1    
    19    9   10 ar   
    20    9   14 ar   
    21   10   11 ar   
    22   10  136 1    
    23   11   12 ar   
    24   11  126 1    
    25   12   13 ar   
    26   12  137 1    
    27   13   14 ar   
    28   13   15 1    
    29   14  138 1    
    30   15   16 1    
    31   15  139 1    
    32   15  140 1    
    33   16   17 1    
    34   17   18 1    
    35   17  141 1    
    36   17  142 1    
    37   18   19 1    
    38   18   67 1    
    39   18  143 1    
    40   19   20 am   BACKBONE|DICT|INTERRES
    41   19  144 1    
    42   20   21 2    
    43   20   22 1    
    44   22   23 1    
    45   22   24 1    
    46   22  145 1    
    47   23  146 1    
    48   23  147 1    
    49   23  148 1    
    50   24   25 am   BACKBONE|DICT|INTERRES
    51   24  149 1    
    52   25   26 2    
    53   25   27 1    
    54   27   28 1    
    55   27   29 1    
    56   27  150 1    
    57   28  151 1    
    58   28  152 1    
    59   28  153 1    
    60   29   30 am   BACKBONE|DICT|INTERRES
    61   29  154 1    
    62   30   31 2    
    63   30   32 1    
    64   32   33 1    
    65   32   34 1    
    66   32  155 1    
    67   33  156 1    
    68   33  157 1    
    69   33  158 1    
    70   34   35 am   BACKBONE|DICT|INTERRES
    71   34  159 1    
    72   35   36 2    
    73   35   37 1    
    74   37   38 1    
    75   37   39 1    
    76   37  160 1    
    77   38  161 1    
    78   38  162 1    
    79   38  163 1    
    80   39   40 am   BACKBONE|DICT|INTERRES
    81   39  164 1    
    82   40   41 2    
    83   40   42 1    
    84   42   43 1    
    85   42   44 1    
    86   42  165 1    
    87   43  166 1    
    88   43  167 1    
    89   43  168 1    
    90   44   45 am   BACKBONE|DICT|INTERRES
    91   44  169 1    
    92   45   46 2    
    93   45   47 1    
    94   47   48 1    
    95   47   49 1    
    96   47  170 1    
    97   48  171 1    
    98   48  172 1    
    99   48  173 1    
   100   49   50 am   BACKBONE|DICT|INTERRES
   101   49  174 1    
   102   50   51 2    
   103   50   52 1    
   104   52   53 1    
   105   52   54 1    
   106   52  175 1    
   107   53  176 1    
   108   53  177 1    
   109   53  178 1    
   110   54   55 am   BACKBONE|DICT|INTERRES
   111   54  179 1    
   112   55   56 2    
   113   55   57 1    
   114   57   58 1    
   115   57   59 1    
   116   57  180 1    
   117   58  181 1    
   118   58  182 1    
   119   58  183 1    
   120   59   60 am   BACKBONE|DICT|INTERRES
   121   59  184 1    
   122   60   61 2    
   123   60   62 1    
   124   62   63 1    
   125   62   64 1    
   126   62  185 1    
   127   63  186 1    
   128   63  187 1    
   129   63  188 1    
   130   64   65 am   BACKBONE|DICT|INTERRES
   131   64  189 1    
   132   65   66 2    
   133   67   68 2    
   134   67   69 am   BACKBONE|DICT|INTERRES
   135   69   70 1    
   136   69  190 1    
   137   70   71 1    
   138   70   72 1    
   139   70  191 1    
   140   71  192 1    
   141   71  193 1    
   142   71  194 1    
   143   72   73 2    
   144   72   74 am   BACKBONE|DICT|INTERRES
   145   74   75 1    
   146   74  195 1    
   147   75   76 1    
   148   75   77 1    
   149   75  196 1    
   150   76  197 1    
   151   76  198 1    
   152   76  199 1    
   153   77   78 2    
   154   77   79 am   BACKBONE|DICT|INTERRES
   155   79   80 1    
   156   79  200 1    
   157   80   81 1    
   158   80   82 1    
   159   80  201 1    
   160   81  202 1    
   161   81  203 1    
   162   81  204 1    
   163   82   83 2    
   164   82   84 am   BACKBONE|DICT|INTERRES
   165   84   85 1    
   166   84  205 1    
   167   85   86 1    
   168   85   87 1    
   169   85  206 1    
   170   86  207 1    
   171   86  208 1    
   172   86  209 1    
   173   87   88 2    
   174   87   89 am   BACKBONE|DICT|INTERRES
   175   89   90 1    
   176   89  210 1    
   177   90   91 1    
   178   90   92 1    
   179   90  211 1    
   180   91  212 1    
   181   91  213 1    
   182   91  214 1    
   183   92   93 2    
   184   92   94 am   BACKBONE|DICT|INTERRES
   185   94   95 1    
   186   94  215 1    
   187   95   96 1    
   188   95   97 1    
   189   95  216 1    
   190   96  217 1    
   191   96  218 1    
   192   96  219 1    
   193   97   98 2    
   194   97   99 am   BACKBONE|DICT|INTERRES
   195   99  100 1    
   196   99  220 1    
   197  100  101 1    
   198  100  102 1    
   199  100  221 1    
   200  101  222 1    
   201  101  223 1    
   202  101  224 1    
   203  102  103 2    
   204  102  104 am   BACKBONE|DICT|INTERRES
   205  104  105 1    
   206  104  225 1    
   207  105  106 1    
   208  105  107 1    
   209  105  226 1    
   210  106  227 1    
   211  106  228 1    
   212  106  229 1    
   213  107  108 2    
   214  107  109 am   BACKBONE|DICT|INTERRES
   215  109  110 1    
   216  109  230 1    
   217  110  111 1    
   218  110  112 1    
   219  110  231 1    
   220  111  232 1    
   221  111  233 1    
   222  111  234 1    
   223  112  113 2    
   224  112  114 am   BACKBONE|DICT|INTERRES
   225  114  115 1    
   226  114  235 1    
   227  115  116 1    
   228  115  117 1    
   229  115  236 1    
   230  116  237 1    
   231  116  238 1    
   232  116  239 1    
   233  117  118 2    
   234  117  119 am   BACKBONE|DICT|INTERRES
   235  119  120 1    
   236  119  240 1    
   237  120  121 1    
   238  120  124 1    
   239  120  241 1    
   240  121  122 am   BACKBONE|DICT|INTERRES
   241  121  123 2    
   242  122  242 1    
   243  122  243 1    
   244  124  125 1    
   245  124  244 1    
   246  124  245 1    
   247  125  126 1    
   248  126  246 1    
   249  126  247 1    
@<TRIPOS>SUBSTRUCTURE
     1 UNK         1 GROUP             0       ****    0 ROOT    
