@<TRIPOS>MOLECULE
3R540
247   249    1
SMALL
USER_CHARGES


@<TRIPOS>ATOM
      1 CA          2.3096  -15.4525  -47.8898 C.3       0 UNK        -0.1800 
      2 C           1.3091  -15.1554  -49.0064 C.2       0 UNK         0.5000 
      3 O           1.4508  -15.6956  -50.1012 O.2       0 UNK        -0.5000 
      4 N           0.2795  -14.3266  -48.7828 N.am      1 UNK        -0.5000 
      5 CA          0.0191  -13.5415  -47.5713 C.3       1 UNK         0.1400 
      6 C6         -1.4225  -12.9690  -47.5451 C.3       23 UNK        -0.0398 
      7 S7         -2.7930  -14.1566  -47.8062 S.3       23 UNK        -0.2404 
      8 C8         -2.2488  -15.6851  -46.9789 C.3       23 UNK        -0.0205 
      9 C9         -3.3234  -16.7586  -47.0398 C.ar      23 UNK        -0.0193 
     10 C10        -3.6216  -17.3795  -48.2552 C.ar      23 UNK        -0.1150 
     11 C11        -4.6383  -18.3349  -48.3351 C.ar      23 UNK        -0.0193 
     12 C12        -5.3468  -18.6818  -47.1818 C.ar      23 UNK        -0.1150 
     13 C13        -5.0310  -18.0989  -45.9519 C.ar      23 UNK        -0.0193 
     14 C14        -4.0238  -17.1305  -45.8885 C.ar      23 UNK        -0.1150 
     15 C15        -5.7775  -18.5182  -44.6922 C.3       23 UNK        -0.0205 
     16 S16        -5.4678  -20.2600  -44.2446 S.3       23 UNK        -0.2404 
     17 C17        -3.6491  -20.2889  -44.1084 C.3       23 UNK        -0.0398 
     18 CA         -2.9840  -21.0097  -45.3115 C.3       11 UNK         0.1400 
     19 N          -1.6841  -20.4298  -45.6496 N.am      11 UNK        -0.5000 
     20 C          -0.9692  -20.7265  -46.7438 C.2       10 UNK         0.5000 
     21 O          -1.3532  -21.4841  -47.6372 O.2       10 UNK        -0.5000 
     22 CA          0.4380  -20.1062  -46.8291 C.3       10 UNK         0.1400 
     23 CB          0.3716  -18.6809  -47.3961 C.3       10 UNK        -0.1800 
     24 N           1.1354  -20.0879  -45.5396 N.am      10 UNK        -0.5000 
     25 C           1.4679  -21.1812  -44.8379 C.2       9 UNK         0.5000 
     26 O           1.2559  -22.3282  -45.2240 O.2       9 UNK        -0.5000 
     27 CA          2.0913  -20.9676  -43.4477 C.3       9 UNK         0.1400 
     28 CB          3.5810  -20.6120  -43.5588 C.3       9 UNK        -0.1800 
     29 N           1.3881  -19.9532  -42.6628 N.am      9 UNK        -0.5000 
     30 C           0.1075  -20.0481  -42.2747 C.2       8 UNK         0.5000 
     31 O          -0.6100  -21.0213  -42.5067 O.2       8 UNK        -0.5000 
     32 CA         -0.4915  -18.8290  -41.5522 C.3       8 UNK         0.1400 
     33 CB         -0.0768  -18.8114  -40.0738 C.3       8 UNK        -0.1800 
     34 N          -0.1235  -17.5635  -42.1883 N.am      8 UNK        -0.5000 
     35 C          -0.4529  -17.2269  -43.4436 C.2       7 UNK         0.5000 
     36 O          -1.1444  -17.9266  -44.1816 O.2       7 UNK        -0.5000 
     37 CA          0.1368  -15.9185  -43.9920 C.3       7 UNK         0.1400 
     38 CB         -0.6316  -14.6957  -43.4682 C.3       7 UNK        -0.1800 
     39 N           1.5563  -15.7755  -43.6887 N.am      7 UNK        -0.5000 
     40 C           2.5197  -16.5943  -44.1301 C.2       6 UNK         0.5000 
     41 O           2.3213  -17.5356  -44.8967 O.2       6 UNK        -0.5000 
     42 CA          3.9347  -16.3361  -43.5899 C.3       6 UNK         0.1400 
     43 CB          4.6137  -15.1962  -44.3646 C.3       6 UNK        -0.1800 
     44 N           3.9230  -16.0238  -42.1601 N.am      6 UNK        -0.5000 
     45 C           3.6106  -16.9007  -41.1954 C.2       5 UNK         0.5000 
     46 O           3.3232  -18.0784  -41.4081 O.2       5 UNK        -0.5000 
     47 CA          3.5804  -16.3595  -39.7544 C.3       5 UNK         0.1400 
     48 CB          4.9975  -16.3076  -39.1642 C.3       5 UNK        -0.1800 
     49 N           2.9666  -15.0336  -39.6631 N.am      5 UNK        -0.5000 
     50 C           1.6681  -14.7877  -39.8859 C.2       4 UNK         0.5000 
     51 O           0.8467  -15.6572  -40.1752 O.2       4 UNK        -0.5000 
     52 CA          1.2232  -13.3133  -39.8276 C.3       4 UNK         0.1400 
     53 CB          0.9566  -12.8862  -38.3765 C.3       4 UNK        -0.1800 
     54 N           2.1684  -12.3763  -40.4470 N.am      4 UNK        -0.5000 
     55 C           2.5891  -12.4483  -41.7164 C.2       3 UNK         0.5000 
     56 O           2.2906  -13.3698  -42.4790 O.2       3 UNK        -0.5000 
     57 CA          3.5275  -11.3295  -42.2091 C.3       3 UNK         0.1400 
     58 CB          4.9625  -11.5894  -41.7246 C.3       3 UNK        -0.1800 
     59 N           3.5370  -11.2508  -43.6716 N.am      3 UNK        -0.5000 
     60 C           2.4853  -10.9040  -44.4253 C.2       2 UNK         0.5000 
     61 O           1.4409  -10.4365  -43.9674 O.2       2 UNK        -0.5000 
     62 CA          2.5811  -11.1700  -45.9351 C.3       2 UNK         0.1400 
     63 CB          3.9817  -11.5988  -46.4291 C.3       2 UNK        -0.1800 
     64 N           1.5965  -12.2007  -46.2513 N.am      2 UNK        -0.5000 
     65 C           1.0467  -12.3954  -47.4534 C.2       1 UNK         0.5000 
     66 O           1.3157  -11.7165  -48.4471 O.2       1 UNK        -0.5000 
     67 C          -2.8782  -22.5299  -45.0700 C.2       11 UNK         0.5000 
     68 O          -3.6386  -23.2970  -45.6610 O.2       11 UNK        -0.5000 
     69 N          -1.9136  -22.9357  -44.2302 N.am      12 UNK        -0.5000 
     70 CA         -1.6395  -24.3287  -43.8715 C.3       12 UNK         0.1400 
     71 CB         -0.6226  -24.3664  -42.7208 C.3       12 UNK        -0.1800 
     72 C          -1.1484  -25.1775  -45.0580 C.2       12 UNK         0.5000 
     73 O          -1.5581  -26.3313  -45.1903 O.2       12 UNK        -0.5000 
     74 N          -0.2998  -24.5868  -45.9096 N.am      13 UNK        -0.5000 
     75 CA          0.2077  -25.1922  -47.1416 C.3       13 UNK         0.1400 
     76 CB          1.4169  -24.3837  -47.6380 C.3       13 UNK        -0.1800 
     77 C          -0.8500  -25.2926  -48.2565 C.2       13 UNK         0.5000 
     78 O          -0.6481  -26.0665  -49.1930 O.2       13 UNK        -0.5000 
     79 N          -1.9349  -24.5093  -48.1429 N.am      14 UNK        -0.5000 
     80 CA         -3.0227  -24.3487  -49.1108 C.3       14 UNK         0.1400 
     81 CB         -3.8210  -25.6620  -49.2505 C.3       14 UNK        -0.1800 
     82 C          -2.4892  -23.7983  -50.4489 C.2       14 UNK         0.5000 
     83 O          -2.6386  -24.4397  -51.4893 O.2       14 UNK        -0.5000 
     84 N          -1.8084  -22.6473  -50.3554 N.am      15 UNK        -0.5000 
     85 CA         -1.0977  -21.9585  -51.4299 C.3       15 UNK         0.1400 
     86 CB         -0.2029  -20.8731  -50.7992 C.3       15 UNK        -0.1800 
     87 C          -2.0211  -21.4196  -52.5471 C.2       15 UNK         0.5000 
     88 O          -2.4290  -22.1859  -53.4195 O.2       15 UNK        -0.5000 
     89 N          -2.2631  -20.0979  -52.5673 N.am      16 UNK        -0.5000 
     90 CA         -2.9808  -19.3461  -53.6115 C.3       16 UNK         0.1400 
     91 CB         -4.4913  -19.6373  -53.5518 C.3       16 UNK        -0.1800 
     92 C          -2.3947  -19.5851  -55.0216 C.2       16 UNK         0.5000 
     93 O          -3.1330  -19.8717  -55.9688 O.2       16 UNK        -0.5000 
     94 N          -1.0543  -19.5554  -55.0987 N.am      17 UNK        -0.5000 
     95 CA         -0.2123  -19.8537  -56.2671 C.3       17 UNK         0.1400 
     96 CB         -0.4227  -18.7878  -57.3630 C.3       17 UNK        -0.1800 
     97 C          -0.3728  -21.2901  -56.8202 C.2       17 UNK         0.5000 
     98 O           0.0358  -21.5499  -57.9526 O.2       17 UNK        -0.5000 
     99 N          -0.9909  -22.1841  -56.0299 N.am      18 UNK        -0.5000 
    100 CA        -1.4538  -23.5321  -56.3792 C.3       18 UNK         0.1400 
    101 CB        -0.2715  -24.4535  -56.7443 C.3       18 UNK        -0.1800 
    102 C         -2.5707  -23.5421  -57.4484 C.2       18 UNK         0.5000 
    103 O         -2.8609  -24.5997  -58.0097 O.2       18 UNK        -0.5000 
    104 N         -3.1833  -22.3782  -57.7112 N.am      19 UNK        -0.5000 
    105 CA        -4.2362  -22.1977  -58.7049 C.3       19 UNK         0.1400 
    106 CB        -4.1440  -20.7805  -59.2956 C.3       19 UNK        -0.1800 
    107 C         -5.6109  -22.4593  -58.0765 C.2       19 UNK         0.5000 
    108 O         -6.3357  -23.3410  -58.5391 O.2       19 UNK        -0.5000 
    109 N         -5.9327  -21.7004  -57.0201 N.am      20 UNK        -0.5000 
    110 CA        -7.1943  -21.8180  -56.2839 C.3       20 UNK         0.1400 
    111 CB        -7.6405  -20.4184  -55.8330 C.3       20 UNK        -0.1800 
    112 C         -7.0891  -22.7629  -55.0730 C.2       20 UNK         0.5000 
    113 O         -8.1228  -23.1438  -54.5213 O.2       20 UNK        -0.5000 
    114 N         -5.8551  -23.0881  -54.6517 N.am      21 UNK        -0.5000 
    115 CA        -5.5002  -23.9336  -53.5006 C.3       21 UNK         0.1400 
    116 CB        -5.8247  -25.4096  -53.8064 C.3       21 UNK        -0.1800 
    117 C         -6.1143  -23.4537  -52.1638 C.2       21 UNK         0.5000 
    118 O         -6.4218  -24.2688  -51.2939 O.2       21 UNK        -0.5000 
    119 N         -6.3270  -22.1359  -52.0518 N.am      22 UNK        -0.5000 
    120 CA        -7.0417  -21.4491  -50.9626 C.3       22 UNK         0.1400 
    121 C         -8.5470  -21.8401  -50.8191 C.2       22 UNK         0.5000 
    122 N         -9.1812  -22.4332  -51.8248 N.am      22 UNK        -0.7600 
    123 O         -9.1677  -21.5696  -49.7945 O.2       22 UNK        -0.5000 
    124 C124       -6.2734  -21.4732  -49.6093 C.3       23 UNK        -0.0398 
    125 S125       -4.6066  -20.7382  -49.7356 S.3       23 UNK        -0.2404 
    126 C126       -4.9891  -18.9588  -49.6753 C.3       23 UNK        -0.0205 
    127 H127        2.9553  -14.5942  -47.7057 H         1 UNK         0.0600 
    128 H128        2.9470  -16.2933  -48.1640 H         1 UNK         0.0600 
    129 H129        1.8025  -15.7200  -46.9645 H         1 UNK         0.0600 
    130 H130       -0.3586  -14.1456  -49.5439 H         1 UNK         0.3000 
    131 H131        0.1323  -14.1931  -46.7052 H         1 UNK         0.0600 
    132 H132       -1.6036  -12.4725  -46.5899 H         1 UNK         0.0800 
    133 H133       -1.5329  -12.1937  -48.3060 H         1 UNK         0.0800 
    134 H134       -2.0107  -15.4537  -45.9430 H         1 UNK         0.0800 
    135 H135       -1.3417  -16.0675  -47.4452 H         1 UNK         0.0800 
    136 H136       -3.0760  -17.0946  -49.1438 H         1 UNK         0.1150 
    137 H137       -6.1333  -19.4202  -47.2331 H         1 UNK         0.1150 
    138 H138       -3.7816  -16.6684  -44.9418 H         1 UNK         0.1150 
    139 H139       -5.5038  -17.8816  -43.8493 H         1 UNK         0.0800 
    140 H140       -6.8479  -18.3772  -44.8477 H         1 UNK         0.0800 
    141 H141       -3.3692  -20.7396  -43.1544 H         1 UNK         0.0800 
    142 H142       -3.3043  -19.2585  -44.0412 H         1 UNK         0.0800 
    143 H143       -3.6102  -20.8639  -46.1948 H         1 UNK         0.0600 
    144 H144       -1.3104  -19.7449  -45.0002 H         1 UNK         0.3000 
    145 H145        1.0246  -20.7188  -47.5165 H         1 UNK         0.0600 
    146 H146        1.3710  -18.2891  -47.5834 H         1 UNK         0.0600 
    147 H147       -0.1726  -18.6535  -48.3407 H         1 UNK         0.0600 
    148 H148       -0.1299  -18.0015  -46.7077 H         1 UNK         0.0600 
    149 H149        1.3883  -19.1745  -45.1712 H         1 UNK         0.3000 
    150 H150        2.0136  -21.9120  -42.9050 H         1 UNK         0.0600 
    151 H151        4.1223  -21.3730  -44.1221 H         1 UNK         0.0600 
    152 H152        4.0443  -20.5457  -42.5743 H         1 UNK         0.0600 
    153 H153        3.7339  -19.6592  -44.0647 H         1 UNK         0.0600 
    154 H154        1.9241  -19.1337  -42.3957 H         1 UNK         0.3000 
    155 H155       -1.5788  -18.9194  -41.5984 H         1 UNK         0.0600 
    156 H156        0.9987  -18.6739  -39.9579 H         1 UNK         0.0600 
    157 H157       -0.3446  -19.7470  -39.5812 H         1 UNK         0.0600 
    158 H158       -0.5762  -18.0060  -39.5351 H         1 UNK         0.0600 
    159 H159        0.4146  -16.9115  -41.6251 H         1 UNK         0.3000 
    160 H160        0.0436  -15.9511  -45.0774 H         1 UNK         0.0600 
    161 H161       -0.5108  -14.5790  -42.3912 H         1 UNK         0.0600 
    162 H162       -1.7000  -14.7841  -43.6674 H         1 UNK         0.0600 
    163 H163       -0.2848  -13.7774  -43.9418 H         1 UNK         0.0600 
    164 H164        1.8202  -14.9928  -43.0923 H         1 UNK         0.3000 
    165 H165        4.5211  -17.2455  -43.7368 H         1 UNK         0.0600 
    166 H166        5.6395  -15.0466  -44.0277 H         1 UNK         0.0600 
    167 H167        4.6506  -15.4185  -45.4319 H         1 UNK         0.0600 
    168 H168        4.0810  -14.2531  -44.2457 H         1 UNK         0.0600 
    169 H169        4.0810  -15.0607  -41.9047 H         1 UNK         0.3000 
    170 H170        2.9867  -17.0511  -39.1527 H         1 UNK         0.0600 
    171 H171        5.4734  -17.2883  -39.2064 H         1 UNK         0.0600 
    172 H172        5.6364  -15.6089  -39.7058 H         1 UNK         0.0600 
    173 H173        4.9775  -16.0024  -38.1178 H         1 UNK         0.0600 
    174 H174        3.5736  -14.2591  -39.4390 H         1 UNK         0.3000 
    175 H175        0.2840  -13.2374  -40.3792 H         1 UNK         0.0600 
    176 H176        1.8690  -12.8948  -37.7791 H         1 UNK         0.0600 
    177 H177        0.5350  -11.8818  -38.3318 H         1 UNK         0.0600 
    178 H178        0.2432  -13.5576  -37.8964 H         1 UNK         0.0600 
    179 H179        2.4691  -11.5999  -39.8755 H         1 UNK         0.3000 
    180 H180        3.1783  -10.3754  -41.8092 H         1 UNK         0.0600 
    181 H181        5.3492  -12.5382  -42.0995 H         1 UNK         0.0600 
    182 H182        5.0116  -11.6222  -40.6355 H         1 UNK         0.0600 
    183 H183        5.6381  -10.7993  -42.0532 H         1 UNK         0.0600 
    184 H184        4.3429  -11.6450  -44.1327 H         1 UNK         0.3000 
    185 H185        2.3046  -10.2393  -46.4349 H         1 UNK         0.0600 
    186 H186        4.7393  -10.8617  -46.1602 H         1 UNK         0.0600 
    187 H187        4.2841  -12.5623  -46.0188 H         1 UNK         0.0600 
    188 H188        4.0017  -11.6882  -47.5153 H         1 UNK         0.0600 
    189 H189        1.2978  -12.7543  -45.4598 H         1 UNK         0.3000 
    190 H190       -1.3419  -22.2330  -43.7669 H         1 UNK         0.3000 
    191 H191       -2.5729  -24.7686  -43.5145 H         1 UNK         0.0600 
    192 H192        0.3242  -23.9067  -43.0064 H         1 UNK         0.0600 
    193 H193       -0.4126  -25.3926  -42.4168 H         1 UNK         0.0600 
    194 H194       -0.9990  -23.8378  -41.8448 H         1 UNK         0.0600 
    195 H195        0.0536  -23.6584  -45.6867 H         1 UNK         0.3000 
    196 H196        0.5439  -26.2056  -46.9130 H         1 UNK         0.0600 
    197 H197        1.8405  -24.8241  -48.5414 H         1 UNK         0.0600 
    198 H198        2.2085  -24.3569  -46.8890 H         1 UNK         0.0600 
    199 H199        1.1405  -23.3548  -47.8725 H         1 UNK         0.0600 
    200 H200       -1.9810  -23.8940  -47.3410 H         1 UNK         0.3000 
    201 H201       -3.6955  -23.5929  -48.7026 H         1 UNK         0.0600 
    202 H202       -4.1875  -26.0027  -48.2822 H         1 UNK         0.0600 
    203 H203       -3.2228  -26.4636  -49.6838 H         1 UNK         0.0600 
    204 H204       -4.6877  -25.5253  -49.8943 H         1 UNK         0.0600 
    205 H205       -1.7414  -22.2158  -49.4373 H         1 UNK         0.3000 
    206 H206       -0.4392  -22.6893  -51.9034 H         1 UNK         0.0600 
    207 H207        0.5247  -21.3175  -50.1195 H         1 UNK         0.0600 
    208 H208        0.3609  -20.3298  -51.5587 H         1 UNK         0.0600 
    209 H209       -0.7840  -20.1495  -50.2262 H         1 UNK         0.0600 
    210 H210       -1.8788  -19.5421  -51.8167 H         1 UNK         0.3000 
    211 H211       -2.8374  -18.2875  -53.3906 H         1 UNK         0.0600 
    212 H212       -4.7101  -20.6596  -53.8543 H         1 UNK         0.0600 
    213 H213       -5.0354  -18.9684  -54.2187 H         1 UNK         0.0600 
    214 H214       -4.8891  -19.4870  -52.5506 H         1 UNK         0.0600 
    215 H215       -0.5479  -19.3413  -54.2511 H         1 UNK         0.3000 
    216 H216        0.8209  -19.7781  -55.9254 H         1 UNK         0.0600 
    217 H217        0.3033  -18.9029  -58.1686 H         1 UNK         0.0600 
    218 H218       -0.3016  -17.7813  -56.9628 H         1 UNK         0.0600 
    219 H219       -1.4162  -18.8549  -57.8080 H         1 UNK         0.0600 
    220 H220       -1.3140  -21.8670  -55.1226 H         1 UNK         0.3000 
    221 H221       -1.9097  -23.9335  -55.4731 H         1 UNK         0.0600 
    222 H222        0.1825  -24.1771  -57.6960 H         1 UNK         0.0600 
    223 H223        0.5041  -24.4217  -55.9791 H         1 UNK         0.0600 
    224 H224       -0.5973  -25.4907  -56.8302 H         1 UNK         0.0600 
    225 H225       -2.9182  -21.5567  -57.1791 H         1 UNK         0.3000 
    226 H226       -4.0956  -22.9076  -59.5231 H         1 UNK         0.0600 
    227 H227       -3.1884  -20.6292  -59.7981 H         1 UNK         0.0600 
    228 H228       -4.9296  -20.6136  -60.0336 H         1 UNK         0.0600 
    229 H229       -4.2407  -20.0085  -58.5314 H         1 UNK         0.0600 
    230 H230       -5.2808  -20.9915  -56.7104 H         1 UNK         0.3000 
    231 H231       -7.9711  -22.2171  -56.9396 H         1 UNK         0.0600 
    232 H232       -7.7572  -19.7488  -56.6853 H         1 UNK         0.0600 
    233 H233       -6.9265  -19.9661  -55.1468 H         1 UNK         0.0600 
    234 H234       -8.6030  -20.4608  -55.3212 H         1 UNK         0.0600 
    235 H235       -5.0740  -22.7156  -55.1714 H         1 UNK         0.3000 
    236 H236       -4.4202  -23.8556  -53.3846 H         1 UNK         0.0600 
    237 H237       -6.8992  -25.5791  -53.8821 H         1 UNK         0.0600 
    238 H238       -5.3669  -25.7274  -54.7432 H         1 UNK         0.0600 
    239 H239       -5.4424  -26.0641  -53.0221 H         1 UNK         0.0600 
    240 H240       -6.0449  -21.5515  -52.8228 H         1 UNK         0.3000 
    241 H241       -7.0864  -20.4078  -51.2807 H         1 UNK         0.0600 
    242 H242      -10.1553  -22.6681  -51.7198 H         1 UNK         0.3800 
    243 H243       -8.7032  -22.6701  -52.6885 H         1 UNK         0.3800 
    244 H244       -6.1726  -22.4970  -49.2474 H         1 UNK         0.0800 
    245 H245       -6.8258  -20.9365  -48.8376 H         1 UNK         0.0800 
    246 H246       -6.0431  -18.7798  -49.8887 H         1 UNK         0.0800 
    247 H247       -4.4332  -18.4655  -50.4733 H         1 UNK         0.0800 
@<TRIPOS>BOND
     1    1    2 1    
     2    1  127 1    
     3    1  128 1    
     4    1  129 1    
     5    2    3 2    
     6    2    4 am   BACKBONE|DICT|INTERRES
     7    4    5 1    
     8    4  130 1    
     9    5    6 1    
    10    5   65 1    
    11    5  131 1    
    12    6    7 1    
    13    6  132 1    
    14    6  133 1    
    15    7    8 1    
    16    8    9 1    
    17    8  134 1    
    18    8  135 1    
    19    9   10 ar   
    20    9   14 ar   
    21   10   11 ar   
    22   10  136 1    
    23   11   12 ar   
    24   11  126 1    
    25   12   13 ar   
    26   12  137 1    
    27   13   14 ar   
    28   13   15 1    
    29   14  138 1    
    30   15   16 1    
    31   15  139 1    
    32   15  140 1    
    33   16   17 1    
    34   17   18 1    
    35   17  141 1    
    36   17  142 1    
    37   18   19 1    
    38   18   67 1    
    39   18  143 1    
    40   19   20 am   BACKBONE|DICT|INTERRES
    41   19  144 1    
    42   20   21 2    
    43   20   22 1    
    44   22   23 1    
    45   22   24 1    
    46   22  145 1    
    47   23  146 1    
    48   23  147 1    
    49   23  148 1    
    50   24   25 am   BACKBONE|DICT|INTERRES
    51   24  149 1    
    52   25   26 2    
    53   25   27 1    
    54   27   28 1    
    55   27   29 1    
    56   27  150 1    
    57   28  151 1    
    58   28  152 1    
    59   28  153 1    
    60   29   30 am   BACKBONE|DICT|INTERRES
    61   29  154 1    
    62   30   31 2    
    63   30   32 1    
    64   32   33 1    
    65   32   34 1    
    66   32  155 1    
    67   33  156 1    
    68   33  157 1    
    69   33  158 1    
    70   34   35 am   BACKBONE|DICT|INTERRES
    71   34  159 1    
    72   35   36 2    
    73   35   37 1    
    74   37   38 1    
    75   37   39 1    
    76   37  160 1    
    77   38  161 1    
    78   38  162 1    
    79   38  163 1    
    80   39   40 am   BACKBONE|DICT|INTERRES
    81   39  164 1    
    82   40   41 2    
    83   40   42 1    
    84   42   43 1    
    85   42   44 1    
    86   42  165 1    
    87   43  166 1    
    88   43  167 1    
    89   43  168 1    
    90   44   45 am   BACKBONE|DICT|INTERRES
    91   44  169 1    
    92   45   46 2    
    93   45   47 1    
    94   47   48 1    
    95   47   49 1    
    96   47  170 1    
    97   48  171 1    
    98   48  172 1    
    99   48  173 1    
   100   49   50 am   BACKBONE|DICT|INTERRES
   101   49  174 1    
   102   50   51 2    
   103   50   52 1    
   104   52   53 1    
   105   52   54 1    
   106   52  175 1    
   107   53  176 1    
   108   53  177 1    
   109   53  178 1    
   110   54   55 am   BACKBONE|DICT|INTERRES
   111   54  179 1    
   112   55   56 2    
   113   55   57 1    
   114   57   58 1    
   115   57   59 1    
   116   57  180 1    
   117   58  181 1    
   118   58  182 1    
   119   58  183 1    
   120   59   60 am   BACKBONE|DICT|INTERRES
   121   59  184 1    
   122   60   61 2    
   123   60   62 1    
   124   62   63 1    
   125   62   64 1    
   126   62  185 1    
   127   63  186 1    
   128   63  187 1    
   129   63  188 1    
   130   64   65 am   BACKBONE|DICT|INTERRES
   131   64  189 1    
   132   65   66 2    
   133   67   68 2    
   134   67   69 am   BACKBONE|DICT|INTERRES
   135   69   70 1    
   136   69  190 1    
   137   70   71 1    
   138   70   72 1    
   139   70  191 1    
   140   71  192 1    
   141   71  193 1    
   142   71  194 1    
   143   72   73 2    
   144   72   74 am   BACKBONE|DICT|INTERRES
   145   74   75 1    
   146   74  195 1    
   147   75   76 1    
   148   75   77 1    
   149   75  196 1    
   150   76  197 1    
   151   76  198 1    
   152   76  199 1    
   153   77   78 2    
   154   77   79 am   BACKBONE|DICT|INTERRES
   155   79   80 1    
   156   79  200 1    
   157   80   81 1    
   158   80   82 1    
   159   80  201 1    
   160   81  202 1    
   161   81  203 1    
   162   81  204 1    
   163   82   83 2    
   164   82   84 am   BACKBONE|DICT|INTERRES
   165   84   85 1    
   166   84  205 1    
   167   85   86 1    
   168   85   87 1    
   169   85  206 1    
   170   86  207 1    
   171   86  208 1    
   172   86  209 1    
   173   87   88 2    
   174   87   89 am   BACKBONE|DICT|INTERRES
   175   89   90 1    
   176   89  210 1    
   177   90   91 1    
   178   90   92 1    
   179   90  211 1    
   180   91  212 1    
   181   91  213 1    
   182   91  214 1    
   183   92   93 2    
   184   92   94 am   BACKBONE|DICT|INTERRES
   185   94   95 1    
   186   94  215 1    
   187   95   96 1    
   188   95   97 1    
   189   95  216 1    
   190   96  217 1    
   191   96  218 1    
   192   96  219 1    
   193   97   98 2    
   194   97   99 am   BACKBONE|DICT|INTERRES
   195   99  100 1    
   196   99  220 1    
   197  100  101 1    
   198  100  102 1    
   199  100  221 1    
   200  101  222 1    
   201  101  223 1    
   202  101  224 1    
   203  102  103 2    
   204  102  104 am   BACKBONE|DICT|INTERRES
   205  104  105 1    
   206  104  225 1    
   207  105  106 1    
   208  105  107 1    
   209  105  226 1    
   210  106  227 1    
   211  106  228 1    
   212  106  229 1    
   213  107  108 2    
   214  107  109 am   BACKBONE|DICT|INTERRES
   215  109  110 1    
   216  109  230 1    
   217  110  111 1    
   218  110  112 1    
   219  110  231 1    
   220  111  232 1    
   221  111  233 1    
   222  111  234 1    
   223  112  113 2    
   224  112  114 am   BACKBONE|DICT|INTERRES
   225  114  115 1    
   226  114  235 1    
   227  115  116 1    
   228  115  117 1    
   229  115  236 1    
   230  116  237 1    
   231  116  238 1    
   232  116  239 1    
   233  117  118 2    
   234  117  119 am   BACKBONE|DICT|INTERRES
   235  119  120 1    
   236  119  240 1    
   237  120  121 1    
   238  120  124 1    
   239  120  241 1    
   240  121  122 am   BACKBONE|DICT|INTERRES
   241  121  123 2    
   242  122  242 1    
   243  122  243 1    
   244  124  125 1    
   245  124  244 1    
   246  124  245 1    
   247  125  126 1    
   248  126  246 1    
   249  126  247 1    
@<TRIPOS>SUBSTRUCTURE
     1 UNK         1 GROUP             0       ****    0 ROOT    
