@<TRIPOS>MOLECULE
3R540
247   249    1
SMALL
USER_CHARGES


@<TRIPOS>ATOM
      1 CA         -3.8199  -14.1569  -44.0689 C.3       0 UNK        -0.1800 
      2 C          -3.1796  -13.4992  -45.2834 C.2       0 UNK         0.5000 
      3 O          -3.8542  -12.7784  -46.0193 O.2       0 UNK        -0.5000 
      4 N          -1.8832  -13.7469  -45.4910 N.am      1 UNK        -0.5000 
      5 CA         -1.0669  -13.1427  -46.5458 C.3       1 UNK         0.1400 
      6 C6          0.0928  -14.0891  -46.9500 C.3       23 UNK        -0.0398 
      7 S7         -0.4764  -15.6320  -47.7389 S.3       23 UNK        -0.2404 
      8 C8         -0.2350  -15.2300  -49.4969 C.3       23 UNK        -0.0205 
      9 C9         -0.2079  -16.4825  -50.3567 C.ar      23 UNK        -0.0193 
     10 C10        -1.3600  -16.9243  -51.0124 C.ar      23 UNK        -0.1150 
     11 C11        -1.3228  -18.0630  -51.8255 C.ar      23 UNK        -0.0193 
     12 C12        -0.1182  -18.7552  -51.9822 C.ar      23 UNK        -0.1150 
     13 C13         1.0381  -18.3278  -51.3223 C.ar      23 UNK        -0.0193 
     14 C14         0.9856  -17.1916  -50.5111 C.ar      23 UNK        -0.1150 
     15 C15         2.3492  -19.0830  -51.4880 C.3       23 UNK        -0.0205 
     16 S16         2.2471  -20.8073  -50.9154 S.3       23 UNK        -0.2404 
     17 C17         1.7751  -20.6034  -49.1641 C.3       23 UNK        -0.0398 
     18 CA          1.6034  -21.9688  -48.4497 C.3       11 UNK         0.1400 
     19 N           1.9372  -21.8665  -47.0234 N.am      11 UNK        -0.5000 
     20 C           2.4658  -22.8584  -46.2941 C.2       10 UNK         0.5000 
     21 O           2.7455  -23.9680  -46.7487 O.2       10 UNK        -0.5000 
     22 CA          2.7048  -22.5716  -44.8008 C.3       10 UNK         0.1400 
     23 CB          3.9821  -21.7403  -44.6089 C.3       10 UNK        -0.1800 
     24 N           1.5786  -21.9041  -44.1426 N.am      10 UNK        -0.5000 
     25 C           0.3617  -22.4437  -43.9748 C.2       9 UNK         0.5000 
     26 O           0.0356  -23.5479  -44.4095 O.2       9 UNK        -0.5000 
     27 CA         -0.6757  -21.5980  -43.2157 C.3       9 UNK         0.1400 
     28 CB         -0.4025  -21.6127  -41.7042 C.3       9 UNK        -0.1800 
     29 N          -0.7038  -20.2198  -43.6947 N.am      9 UNK        -0.5000 
     30 C          -1.1871  -19.8467  -44.8849 C.2       8 UNK         0.5000 
     31 O          -1.7622  -20.6116  -45.6575 O.2       8 UNK        -0.5000 
     32 CA         -0.9777  -18.3820  -45.2992 C.3       8 UNK         0.1400 
     33 CB         -2.1300  -17.5087  -44.7861 C.3       8 UNK        -0.1800 
     34 N           0.3075  -17.8426  -44.8550 N.am      8 UNK        -0.5000 
     35 C           1.4935  -18.2770  -45.3071 C.2       7 UNK         0.5000 
     36 O           1.6234  -19.1623  -46.1534 O.2       7 UNK        -0.5000 
     37 CA          2.7470  -17.6551  -44.6709 C.3       7 UNK         0.1400 
     38 CB          3.1276  -16.3497  -45.3757 C.3       7 UNK        -0.1800 
     39 N           2.5805  -17.4054  -43.2403 N.am      7 UNK        -0.5000 
     40 C           2.4801  -18.3732  -42.3186 C.2       6 UNK         0.5000 
     41 O           2.5498  -19.5751  -42.5758 O.2       6 UNK        -0.5000 
     42 CA          2.1873  -17.9168  -40.8791 C.3       6 UNK         0.1400 
     43 CB          3.4503  -17.3462  -40.2165 C.3       6 UNK        -0.1800 
     44 N           1.1145  -16.9228  -40.8207 N.am      6 UNK        -0.5000 
     45 C          -0.1497  -17.1426  -41.2100 C.2       5 UNK         0.5000 
     46 O          -0.5537  -18.2252  -41.6298 O.2       5 UNK        -0.5000 
     47 CA         -1.1247  -15.9541  -41.1472 C.3       5 UNK         0.1400 
     48 CB         -1.9591  -16.0106  -39.8596 C.3       5 UNK        -0.1800 
     49 N          -0.4629  -14.6525  -41.2327 N.am      5 UNK        -0.5000 
     50 C           0.1547  -14.1640  -42.3163 C.2       4 UNK         0.5000 
     51 O           0.2081  -14.7604  -43.3969 O.2       4 UNK        -0.5000 
     52 CA          0.7654  -12.7575  -42.1478 C.3       4 UNK         0.1400 
     53 CB          1.4766  -12.5661  -40.7883 C.3       4 UNK        -0.1800 
     54 N           1.6385  -12.3498  -43.2499 N.am      4 UNK        -0.5000 
     55 C           2.8495  -12.8219  -43.5787 C.2       3 UNK         0.5000 
     56 O           3.3949  -13.7625  -42.9988 O.2       3 UNK        -0.5000 
     57 CA          3.5775  -12.1021  -44.7416 C.3       3 UNK         0.1400 
     58 CB          4.5232  -13.0299  -45.5235 C.3       3 UNK        -0.1800 
     59 N           2.6432  -11.4883  -45.6879 N.am      3 UNK        -0.5000 
     60 C           2.1696  -10.2348  -45.6410 C.2       2 UNK         0.5000 
     61 O           2.5550   -9.3849  -44.8389 O.2       2 UNK        -0.5000 
     62 CA          1.0197   -9.9032  -46.6193 C.3       2 UNK         0.1400 
     63 CB          1.5719   -9.2820  -47.9110 C.3       2 UNK        -0.1800 
     64 N           0.2039  -11.0782  -46.9578 N.am      2 UNK        -0.5000 
     65 C          -0.5119  -11.7822  -46.0673 C.2       1 UNK         0.5000 
     66 O          -0.6667  -11.4167  -44.8986 O.2       1 UNK        -0.5000 
     67 C           0.1985  -22.5780  -48.6814 C.2       11 UNK         0.5000 
     68 O          -0.1804  -22.8228  -49.8268 O.2       11 UNK        -0.5000 
     69 N          -0.5520  -22.8135  -47.5942 N.am      12 UNK        -0.5000 
     70 CA         -1.9061  -23.3712  -47.5495 C.3       12 UNK         0.1400 
     71 CB         -1.9090  -24.8403  -48.0061 C.3       12 UNK        -0.1800 
     72 C          -2.9490  -22.5026  -48.2843 C.2       12 UNK         0.5000 
     73 O          -3.9389  -23.0189  -48.8082 O.2       12 UNK        -0.5000 
     74 N          -2.7376  -21.1805  -48.2484 N.am      13 UNK        -0.5000 
     75 CA         -3.6997  -20.1497  -48.6354 C.3       13 UNK         0.1400 
     76 CB         -3.0081  -18.7809  -48.6351 C.3       13 UNK        -0.1800 
     77 C          -4.9084  -20.1407  -47.6841 C.2       13 UNK         0.5000 
     78 O          -6.0372  -19.9457  -48.1323 O.2       13 UNK        -0.5000 
     79 N          -4.6503  -20.4410  -46.4018 N.am      14 UNK        -0.5000 
     80 CA         -5.6492  -20.6433  -45.3503 C.3       14 UNK         0.1400 
     81 CB         -4.9188  -20.7869  -44.0059 C.3       14 UNK        -0.1800 
     82 C          -6.5739  -21.8554  -45.5993 C.2       14 UNK         0.5000 
     83 O          -7.6784  -21.8928  -45.0576 O.2       14 UNK        -0.5000 
     84 N          -6.1227  -22.8028  -46.4336 N.am      15 UNK        -0.5000 
     85 CA         -6.8787  -23.9658  -46.9012 C.3       15 UNK         0.1400 
     86 CB         -5.9552  -25.1955  -46.8739 C.3       15 UNK        -0.1800 
     87 C          -7.4785  -23.7323  -48.3059 C.2       15 UNK         0.5000 
     88 O          -7.8012  -24.7013  -48.9933 O.2       15 UNK        -0.5000 
     89 N          -7.6174  -22.4587  -48.7061 N.am      16 UNK        -0.5000 
     90 CA         -8.1395  -21.9737  -49.9869 C.3       16 UNK         0.1400 
     91 CB         -9.6024  -22.4155  -50.2086 C.3       16 UNK        -0.1800 
     92 C          -7.2073  -22.2996  -51.1711 C.2       16 UNK         0.5000 
     93 O          -7.6743  -22.7367  -52.2243 O.2       16 UNK        -0.5000 
     94 N          -5.9045  -22.0464  -50.9698 N.am      17 UNK        -0.5000 
     95 CA         -4.8100  -22.1778  -51.9412 C.3       17 UNK         0.1400 
     96 CB         -5.0244  -21.2094  -53.1249 C.3       17 UNK        -0.1800 
     97 C          -4.5967  -23.6433  -52.3685 C.2       17 UNK         0.5000 
     98 O          -4.5724  -23.9546  -53.5608 O.2       17 UNK        -0.5000 
     99 N          -4.4963  -24.5270  -51.3667 N.am      18 UNK        -0.5000 
    100 CA        -4.4614  -25.9767  -51.5544 C.3       18 UNK         0.1400 
    101 CB        -4.8084  -26.6716  -50.2293 C.3       18 UNK        -0.1800 
    102 C         -3.1206  -26.4957  -52.1029 C.2       18 UNK         0.5000 
    103 O         -3.1224  -27.3448  -52.9952 O.2       18 UNK        -0.5000 
    104 N         -2.0053  -26.0025  -51.5475 N.am      19 UNK        -0.5000 
    105 CA        -0.6567  -26.4754  -51.8756 C.3       19 UNK         0.1400 
    106 CB         0.2532  -26.3381  -50.6453 C.3       19 UNK        -0.1800 
    107 C         -0.0482  -25.7459  -53.0847 C.2       19 UNK         0.5000 
    108 O          0.7626  -26.3378  -53.7988 O.2       19 UNK        -0.5000 
    109 N         -0.4496  -24.4899  -53.3033 N.am      20 UNK        -0.5000 
    110 CA        -0.0365  -23.6589  -54.4260 C.3       20 UNK         0.1400 
    111 CB         1.2991  -22.9652  -54.1108 C.3       20 UNK        -0.1800 
    112 C         -1.1390  -22.6309  -54.6952 C.2       20 UNK         0.5000 
    113 O         -1.7281  -22.1096  -53.7457 O.2       20 UNK        -0.5000 
    114 N         -1.3876  -22.3606  -55.9808 N.am      21 UNK        -0.5000 
    115 CA        -2.3543  -21.3730  -56.4552 C.3       21 UNK         0.1400 
    116 CB        -2.6673  -21.6667  -57.9315 C.3       21 UNK        -0.1800 
    117 C         -1.8336  -19.9328  -56.2915 C.2       21 UNK         0.5000 
    118 O         -0.6222  -19.7135  -56.2083 O.2       21 UNK        -0.5000 
    119 N         -2.7619  -18.9745  -56.3010 N.am      22 UNK        -0.5000 
    120 CA        -2.4961  -17.5326  -56.2621 C.3       22 UNK         0.1400 
    121 C         -3.6631  -16.7273  -56.8977 C.2       22 UNK         0.5000 
    122 N         -3.4710  -15.4407  -57.1565 N.am      22 UNK        -0.7600 
    123 O         -4.7421  -17.2543  -57.1653 O.2       22 UNK        -0.5000 
    124 C124       -2.0985  -17.0307  -54.8467 C.3       23 UNK        -0.0398 
    125 S125       -3.3737  -17.3037  -53.5637 S.3       23 UNK        -0.2404 
    126 C126       -2.5840  -18.5669  -52.5154 C.3       23 UNK        -0.0205 
    127 H127       -3.0783  -14.6485  -43.4401 H         1 UNK         0.0600 
    128 H128       -4.5479  -14.9035  -44.3861 H         1 UNK         0.0600 
    129 H129       -4.3340  -13.4105  -43.4634 H         1 UNK         0.0600 
    130 H130       -1.3631  -14.2960  -44.8174 H         1 UNK         0.3000 
    131 H131       -1.6856  -12.9545  -47.4258 H         1 UNK         0.0600 
    132 H132        0.6732  -14.3607  -46.0683 H         1 UNK         0.0800 
    133 H133        0.7963  -13.6009  -47.6245 H         1 UNK         0.0800 
    134 H134       -1.0288  -14.5574  -49.8251 H         1 UNK         0.0800 
    135 H135        0.7030  -14.6904  -49.6341 H         1 UNK         0.0800 
    136 H136       -2.2885  -16.3851  -50.8880 H         1 UNK         0.1150 
    137 H137       -0.0805  -19.6382  -52.6059 H         1 UNK         0.1150 
    138 H138        1.8754  -16.8531  -49.9990 H         1 UNK         0.1150 
    139 H139        2.6274  -19.0789  -52.5426 H         1 UNK         0.0800 
    140 H140        3.1587  -18.5825  -50.9545 H         1 UNK         0.0800 
    141 H141        0.8726  -19.9947  -49.0812 H         1 UNK         0.0800 
    142 H142        2.5698  -20.0253  -48.6899 H         1 UNK         0.0800 
    143 H143        2.3120  -22.6682  -48.8989 H         1 UNK         0.0600 
    144 H144        1.7643  -20.9631  -46.5855 H         1 UNK         0.3000 
    145 H145        2.8526  -23.5317  -44.3022 H         1 UNK         0.0600 
    146 H146        4.2144  -21.6125  -43.5515 H         1 UNK         0.0600 
    147 H147        4.8402  -22.2281  -45.0729 H         1 UNK         0.0600 
    148 H148        3.8871  -20.7496  -45.0534 H         1 UNK         0.0600 
    149 H149        1.7743  -20.9999  -43.7232 H         1 UNK         0.3000 
    150 H150       -1.6597  -22.0409  -43.3848 H         1 UNK         0.0600 
    151 H151       -0.3850  -22.6332  -41.3197 H         1 UNK         0.0600 
    152 H152       -1.1780  -21.0725  -41.1609 H         1 UNK         0.0600 
    153 H153        0.5553  -21.1517  -41.4611 H         1 UNK         0.0600 
    154 H154       -0.3310  -19.5099  -43.0715 H         1 UNK         0.3000 
    155 H155       -0.9774  -18.3469  -46.3894 H         1 UNK         0.0600 
    156 H156       -2.2154  -17.5493  -43.7014 H         1 UNK         0.0600 
    157 H157       -1.9941  -16.4698  -45.0793 H         1 UNK         0.0600 
    158 H158       -3.0839  -17.8403  -45.1978 H         1 UNK         0.0600 
    159 H159        0.2887  -17.1033  -44.1663 H         1 UNK         0.3000 
    160 H160        3.5697  -18.3604  -44.8026 H         1 UNK         0.0600 
    161 H161        2.3956  -15.5666  -45.1828 H         1 UNK         0.0600 
    162 H162        3.1946  -16.4858  -46.4560 H         1 UNK         0.0600 
    163 H163        4.0974  -15.9931  -45.0289 H         1 UNK         0.0600 
    164 H164        2.4912  -16.4402  -42.9532 H         1 UNK         0.3000 
    165 H165        1.8668  -18.7926  -40.3107 H         1 UNK         0.0600 
    166 H166        3.2694  -17.1011  -39.1698 H         1 UNK         0.0600 
    167 H167        4.2657  -18.0703  -40.2435 H         1 UNK         0.0600 
    168 H168        3.7972  -16.4415  -40.7178 H         1 UNK         0.0600 
    169 H169        1.3618  -16.0021  -40.4908 H         1 UNK         0.3000 
    170 H170       -1.8048  -16.0424  -41.9945 H         1 UNK         0.0600 
    171 H171       -1.3364  -15.9053  -38.9703 H         1 UNK         0.0600 
    172 H172       -2.7099  -15.2204  -39.8409 H         1 UNK         0.0600 
    173 H173       -2.4885  -16.9611  -39.7790 H         1 UNK         0.0600 
    174 H174       -0.4790  -14.0908  -40.3938 H         1 UNK         0.3000 
    175 H175       -0.0763  -12.0644  -42.1775 H         1 UNK         0.0600 
    176 H176        1.9584  -11.5898  -40.7320 H         1 UNK         0.0600 
    177 H177        2.2422  -13.3240  -40.6189 H         1 UNK         0.0600 
    178 H178        0.7741  -12.6166  -39.9561 H         1 UNK         0.0600 
    179 H179        1.2415  -11.6319  -43.8418 H         1 UNK         0.3000 
    180 H180        4.1898  -11.3242  -44.2814 H         1 UNK         0.0600 
    181 H181        3.9726  -13.7856  -46.0820 H         1 UNK         0.0600 
    182 H182        5.2220  -13.5432  -44.8620 H         1 UNK         0.0600 
    183 H183        5.1188  -12.4624  -46.2387 H         1 UNK         0.0600 
    184 H184        2.2647  -12.1037  -46.3906 H         1 UNK         0.3000 
    185 H185        0.3727   -9.1695  -46.1338 H         1 UNK         0.0600 
    186 H186        2.1633   -8.3915  -47.6936 H         1 UNK         0.0600 
    187 H187        2.2142   -9.9784  -48.4515 H         1 UNK         0.0600 
    188 H188        0.7657   -8.9791  -48.5794 H         1 UNK         0.0600 
    189 H189        0.2626  -11.3990  -47.9137 H         1 UNK         0.3000 
    190 H190       -0.1525  -22.5849  -46.6942 H         1 UNK         0.3000 
    191 H191       -2.1948  -23.3580  -46.4975 H         1 UNK         0.0600 
    192 H192       -1.1157  -25.4080  -47.5195 H         1 UNK         0.0600 
    193 H193       -2.8507  -25.3256  -47.7554 H         1 UNK         0.0600 
    194 H194       -1.7694  -24.9208  -49.0810 H         1 UNK         0.0600 
    195 H195       -1.9381  -20.8665  -47.7123 H         1 UNK         0.3000 
    196 H196       -4.0440  -20.3606  -49.6473 H         1 UNK         0.0600 
    197 H197       -3.6006  -18.0488  -49.1847 H         1 UNK         0.0600 
    198 H198       -2.0263  -18.8325  -49.1045 H         1 UNK         0.0600 
    199 H199       -2.8740  -18.3917  -47.6274 H         1 UNK         0.0600 
    200 H200       -3.6816  -20.5871  -46.1340 H         1 UNK         0.3000 
    201 H201       -6.2792  -19.7525  -45.3093 H         1 UNK         0.0600 
    202 H202       -4.3252  -19.9002  -43.7819 H         1 UNK         0.0600 
    203 H203       -4.2480  -21.6470  -44.0034 H         1 UNK         0.0600 
    204 H204       -5.6267  -20.9185  -43.1866 H         1 UNK         0.0600 
    205 H205       -5.2190  -22.6714  -46.8651 H         1 UNK         0.3000 
    206 H206       -7.7146  -24.1616  -46.2269 H         1 UNK         0.0600 
    207 H207       -5.5050  -25.3325  -45.8907 H         1 UNK         0.0600 
    208 H208       -6.5063  -26.1072  -47.1074 H         1 UNK         0.0600 
    209 H209       -5.1520  -25.1043  -47.6029 H         1 UNK         0.0600 
    210 H210       -7.2877  -21.7313  -48.0837 H         1 UNK         0.3000 
    211 H211       -8.1461  -20.8855  -49.9089 H         1 UNK         0.0600 
    212 H212       -9.6859  -23.4897  -50.3742 H         1 UNK         0.0600 
    213 H213      -10.0289  -21.9199  -51.0814 H         1 UNK         0.0600 
    214 H214      -10.2265  -22.1574  -49.3531 H         1 UNK         0.0600 
    215 H215       -5.6264  -21.7794  -50.0365 H         1 UNK         0.3000 
    216 H216       -3.8933  -21.8745  -51.4342 H         1 UNK         0.0600 
    217 H217       -5.8612  -21.5105  -53.7554 H         1 UNK         0.0600 
    218 H218       -4.1414  -21.1685  -53.7584 H         1 UNK         0.0600 
    219 H219       -5.2171  -20.1948  -52.7769 H         1 UNK         0.0600 
    220 H220       -4.5100  -24.1785  -50.4138 H         1 UNK         0.3000 
    221 H221       -5.2366  -26.2408  -52.2772 H         1 UNK         0.0600 
    222 H222       -4.0840  -26.4406  -49.4492 H         1 UNK         0.0600 
    223 H223       -5.7937  -26.3715  -49.8734 H         1 UNK         0.0600 
    224 H224       -4.8247  -27.7555  -50.3497 H         1 UNK         0.0600 
    225 H225       -2.0842  -25.2878  -50.8398 H         1 UNK         0.3000 
    226 H226       -0.7035  -27.5377  -52.1258 H         1 UNK         0.0600 
    227 H227       -0.1540  -26.8756  -49.7888 H         1 UNK         0.0600 
    228 H228        1.2424  -26.7511  -50.8466 H         1 UNK         0.0600 
    229 H229        0.3904  -25.2971  -50.3571 H         1 UNK         0.0600 
    230 H230       -1.1335  -24.0637  -52.6919 H         1 UNK         0.3000 
    231 H231        0.0824  -24.2851  -55.3130 H         1 UNK         0.0600 
    232 H232        1.2171  -22.3377  -53.2234 H         1 UNK         0.0600 
    233 H233        1.6129  -22.3263  -54.9371 H         1 UNK         0.0600 
    234 H234        2.0943  -23.6901  -53.9369 H         1 UNK         0.0600 
    235 H235       -0.8237  -22.8037  -56.6910 H         1 UNK         0.3000 
    236 H236       -3.2750  -21.4810  -55.8796 H         1 UNK         0.0600 
    237 H237       -3.4180  -20.9772  -58.3195 H         1 UNK         0.0600 
    238 H238       -1.7796  -21.5710  -58.5582 H         1 UNK         0.0600 
    239 H239       -3.0609  -22.6755  -58.0580 H         1 UNK         0.0600 
    240 H240       -3.7389  -19.2083  -56.4197 H         1 UNK         0.3000 
    241 H241       -1.6453  -17.3559  -56.9232 H         1 UNK         0.0600 
    242 H242       -2.5950  -14.9822  -56.9589 H         1 UNK         0.3800 
    243 H243       -4.2222  -14.9093  -57.5691 H         1 UNK         0.3800 
    244 H244       -1.1681  -17.5117  -54.5444 H         1 UNK         0.0800 
    245 H245       -1.8694  -15.9647  -54.8709 H         1 UNK         0.0800 
    246 H246       -3.2944  -18.8861  -51.7526 H         1 UNK         0.0800 
    247 H247       -2.3697  -19.4466  -53.1243 H         1 UNK         0.0800 
@<TRIPOS>BOND
     1    1    2 1    
     2    1  127 1    
     3    1  128 1    
     4    1  129 1    
     5    2    3 2    
     6    2    4 am   BACKBONE|DICT|INTERRES
     7    4    5 1    
     8    4  130 1    
     9    5    6 1    
    10    5   65 1    
    11    5  131 1    
    12    6    7 1    
    13    6  132 1    
    14    6  133 1    
    15    7    8 1    
    16    8    9 1    
    17    8  134 1    
    18    8  135 1    
    19    9   10 ar   
    20    9   14 ar   
    21   10   11 ar   
    22   10  136 1    
    23   11   12 ar   
    24   11  126 1    
    25   12   13 ar   
    26   12  137 1    
    27   13   14 ar   
    28   13   15 1    
    29   14  138 1    
    30   15   16 1    
    31   15  139 1    
    32   15  140 1    
    33   16   17 1    
    34   17   18 1    
    35   17  141 1    
    36   17  142 1    
    37   18   19 1    
    38   18   67 1    
    39   18  143 1    
    40   19   20 am   BACKBONE|DICT|INTERRES
    41   19  144 1    
    42   20   21 2    
    43   20   22 1    
    44   22   23 1    
    45   22   24 1    
    46   22  145 1    
    47   23  146 1    
    48   23  147 1    
    49   23  148 1    
    50   24   25 am   BACKBONE|DICT|INTERRES
    51   24  149 1    
    52   25   26 2    
    53   25   27 1    
    54   27   28 1    
    55   27   29 1    
    56   27  150 1    
    57   28  151 1    
    58   28  152 1    
    59   28  153 1    
    60   29   30 am   BACKBONE|DICT|INTERRES
    61   29  154 1    
    62   30   31 2    
    63   30   32 1    
    64   32   33 1    
    65   32   34 1    
    66   32  155 1    
    67   33  156 1    
    68   33  157 1    
    69   33  158 1    
    70   34   35 am   BACKBONE|DICT|INTERRES
    71   34  159 1    
    72   35   36 2    
    73   35   37 1    
    74   37   38 1    
    75   37   39 1    
    76   37  160 1    
    77   38  161 1    
    78   38  162 1    
    79   38  163 1    
    80   39   40 am   BACKBONE|DICT|INTERRES
    81   39  164 1    
    82   40   41 2    
    83   40   42 1    
    84   42   43 1    
    85   42   44 1    
    86   42  165 1    
    87   43  166 1    
    88   43  167 1    
    89   43  168 1    
    90   44   45 am   BACKBONE|DICT|INTERRES
    91   44  169 1    
    92   45   46 2    
    93   45   47 1    
    94   47   48 1    
    95   47   49 1    
    96   47  170 1    
    97   48  171 1    
    98   48  172 1    
    99   48  173 1    
   100   49   50 am   BACKBONE|DICT|INTERRES
   101   49  174 1    
   102   50   51 2    
   103   50   52 1    
   104   52   53 1    
   105   52   54 1    
   106   52  175 1    
   107   53  176 1    
   108   53  177 1    
   109   53  178 1    
   110   54   55 am   BACKBONE|DICT|INTERRES
   111   54  179 1    
   112   55   56 2    
   113   55   57 1    
   114   57   58 1    
   115   57   59 1    
   116   57  180 1    
   117   58  181 1    
   118   58  182 1    
   119   58  183 1    
   120   59   60 am   BACKBONE|DICT|INTERRES
   121   59  184 1    
   122   60   61 2    
   123   60   62 1    
   124   62   63 1    
   125   62   64 1    
   126   62  185 1    
   127   63  186 1    
   128   63  187 1    
   129   63  188 1    
   130   64   65 am   BACKBONE|DICT|INTERRES
   131   64  189 1    
   132   65   66 2    
   133   67   68 2    
   134   67   69 am   BACKBONE|DICT|INTERRES
   135   69   70 1    
   136   69  190 1    
   137   70   71 1    
   138   70   72 1    
   139   70  191 1    
   140   71  192 1    
   141   71  193 1    
   142   71  194 1    
   143   72   73 2    
   144   72   74 am   BACKBONE|DICT|INTERRES
   145   74   75 1    
   146   74  195 1    
   147   75   76 1    
   148   75   77 1    
   149   75  196 1    
   150   76  197 1    
   151   76  198 1    
   152   76  199 1    
   153   77   78 2    
   154   77   79 am   BACKBONE|DICT|INTERRES
   155   79   80 1    
   156   79  200 1    
   157   80   81 1    
   158   80   82 1    
   159   80  201 1    
   160   81  202 1    
   161   81  203 1    
   162   81  204 1    
   163   82   83 2    
   164   82   84 am   BACKBONE|DICT|INTERRES
   165   84   85 1    
   166   84  205 1    
   167   85   86 1    
   168   85   87 1    
   169   85  206 1    
   170   86  207 1    
   171   86  208 1    
   172   86  209 1    
   173   87   88 2    
   174   87   89 am   BACKBONE|DICT|INTERRES
   175   89   90 1    
   176   89  210 1    
   177   90   91 1    
   178   90   92 1    
   179   90  211 1    
   180   91  212 1    
   181   91  213 1    
   182   91  214 1    
   183   92   93 2    
   184   92   94 am   BACKBONE|DICT|INTERRES
   185   94   95 1    
   186   94  215 1    
   187   95   96 1    
   188   95   97 1    
   189   95  216 1    
   190   96  217 1    
   191   96  218 1    
   192   96  219 1    
   193   97   98 2    
   194   97   99 am   BACKBONE|DICT|INTERRES
   195   99  100 1    
   196   99  220 1    
   197  100  101 1    
   198  100  102 1    
   199  100  221 1    
   200  101  222 1    
   201  101  223 1    
   202  101  224 1    
   203  102  103 2    
   204  102  104 am   BACKBONE|DICT|INTERRES
   205  104  105 1    
   206  104  225 1    
   207  105  106 1    
   208  105  107 1    
   209  105  226 1    
   210  106  227 1    
   211  106  228 1    
   212  106  229 1    
   213  107  108 2    
   214  107  109 am   BACKBONE|DICT|INTERRES
   215  109  110 1    
   216  109  230 1    
   217  110  111 1    
   218  110  112 1    
   219  110  231 1    
   220  111  232 1    
   221  111  233 1    
   222  111  234 1    
   223  112  113 2    
   224  112  114 am   BACKBONE|DICT|INTERRES
   225  114  115 1    
   226  114  235 1    
   227  115  116 1    
   228  115  117 1    
   229  115  236 1    
   230  116  237 1    
   231  116  238 1    
   232  116  239 1    
   233  117  118 2    
   234  117  119 am   BACKBONE|DICT|INTERRES
   235  119  120 1    
   236  119  240 1    
   237  120  121 1    
   238  120  124 1    
   239  120  241 1    
   240  121  122 am   BACKBONE|DICT|INTERRES
   241  121  123 2    
   242  122  242 1    
   243  122  243 1    
   244  124  125 1    
   245  124  244 1    
   246  124  245 1    
   247  125  126 1    
   248  126  246 1    
   249  126  247 1    
@<TRIPOS>SUBSTRUCTURE
     1 UNK         1 GROUP             0       ****    0 ROOT    
