@<TRIPOS>MOLECULE
3R540
247   249    1
SMALL
USER_CHARGES


@<TRIPOS>ATOM
      1 CA          4.0673  -19.8452  -49.4089 C.3       0 UNK        -0.1800 
      2 C           3.9801  -18.6263  -48.5032 C.2       0 UNK         0.5000 
      3 O           4.4023  -18.6853  -47.3493 O.2       0 UNK        -0.5000 
      4 N           3.4496  -17.5131  -49.0273 N.am      1 UNK        -0.5000 
      5 CA          3.1617  -16.2578  -48.3097 C.3       1 UNK         0.1400 
      6 C6          2.2379  -15.3275  -49.1354 C.3       23 UNK        -0.0398 
      7 S7          0.6445  -16.1218  -49.5437 S.3       23 UNK        -0.2404 
      8 C8         -0.5328  -14.7803  -49.1853 C.3       23 UNK        -0.0205 
      9 C9         -1.9615  -15.1838  -49.5157 C.ar      23 UNK        -0.0193 
     10 C10        -2.3196  -15.4268  -50.8436 C.ar      23 UNK        -0.1150 
     11 C11        -3.6285  -15.7741  -51.1857 C.ar      23 UNK        -0.0193 
     12 C12        -4.5911  -15.8582  -50.1709 C.ar      23 UNK        -0.1150 
     13 C13        -4.2518  -15.6107  -48.8374 C.ar      23 UNK        -0.0193 
     14 C14        -2.9307  -15.2850  -48.5124 C.ar      23 UNK        -0.1150 
     15 C15        -5.3327  -15.6461  -47.7648 C.3       23 UNK        -0.0205 
     16 S16        -5.8097  -17.3423  -47.3003 S.3       23 UNK        -0.2404 
     17 C17        -4.4360  -17.8282  -46.2060 C.3       23 UNK        -0.0398 
     18 CA         -3.7316  -19.1175  -46.6890 C.3       11 UNK         0.1400 
     19 N          -2.3057  -19.1096  -46.3577 N.am      11 UNK        -0.5000 
     20 C          -1.4238  -20.0346  -46.7541 C.2       10 UNK         0.5000 
     21 O          -1.7269  -21.0116  -47.4373 O.2       10 UNK        -0.5000 
     22 CA          0.0271  -19.8677  -46.2955 C.3       10 UNK         0.1400 
     23 CB          0.7166  -18.7278  -47.0510 C.3       10 UNK        -0.1800 
     24 N           0.1111  -19.6217  -44.8562 N.am      10 UNK        -0.5000 
     25 C           0.9130  -20.3023  -44.0258 C.2       9 UNK         0.5000 
     26 O           1.6420  -21.2271  -44.3862 O.2       9 UNK        -0.5000 
     27 CA          0.9296  -19.8931  -42.5420 C.3       9 UNK         0.1400 
     28 CB          2.1916  -19.0730  -42.2303 C.3       9 UNK        -0.1800 
     29 N          -0.2459  -19.1352  -42.1131 N.am      9 UNK        -0.5000 
     30 C          -1.4433  -19.6748  -41.8456 C.2       8 UNK         0.5000 
     31 O          -1.7056  -20.8644  -42.0197 O.2       8 UNK        -0.5000 
     32 CA         -2.5221  -18.7413  -41.2701 C.3       8 UNK         0.1400 
     33 CB         -2.3516  -18.5990  -39.7493 C.3       8 UNK        -0.1800 
     34 N          -2.4636  -17.4142  -41.8816 N.am      8 UNK        -0.5000 
     35 C          -3.4679  -16.8334  -42.5517 C.2       7 UNK         0.5000 
     36 O          -4.5967  -17.3155  -42.6435 O.2       7 UNK        -0.5000 
     37 CA         -3.1775  -15.4846  -43.2475 C.3       7 UNK         0.1400 
     38 CB         -3.7610  -14.3235  -42.4284 C.3       7 UNK        -0.1800 
     39 N          -1.7567  -15.2215  -43.4863 N.am      7 UNK        -0.5000 
     40 C          -0.9423  -15.9640  -44.2478 C.2       6 UNK         0.5000 
     41 O          -1.3175  -16.9389  -44.8977 O.2       6 UNK        -0.5000 
     42 CA          0.5559  -15.6081  -44.2195 C.3       6 UNK         0.1400 
     43 CB          0.9343  -14.7646  -45.4423 C.3       6 UNK        -0.1800 
     44 N           1.0013  -14.9244  -42.9979 N.am      6 UNK        -0.5000 
     45 C           0.9217  -15.4404  -41.7644 C.2       5 UNK         0.5000 
     46 O           0.3264  -16.4869  -41.4995 O.2       5 UNK        -0.5000 
     47 CA          1.6280  -14.6791  -40.6330 C.3       5 UNK         0.1400 
     48 CB          0.6095  -14.2217  -39.5776 C.3       5 UNK        -0.1800 
     49 N           2.5996  -15.5738  -40.0029 N.am      5 UNK        -0.5000 
     50 C           3.8220  -15.9021  -40.4473 C.2       4 UNK         0.5000 
     51 O           4.4768  -16.7942  -39.9059 O.2       4 UNK        -0.5000 
     52 CA          4.4640  -15.1141  -41.6098 C.3       4 UNK         0.1400 
     53 CB          5.2976  -13.9462  -41.0594 C.3       4 UNK        -0.1800 
     54 N           5.3393  -15.9876  -42.3878 N.am      4 UNK        -0.5000 
     55 C           5.0029  -16.5499  -43.5529 C.2       3 UNK         0.5000 
     56 O           3.9172  -16.3803  -44.1114 O.2       3 UNK        -0.5000 
     57 CA          6.0552  -17.4599  -44.2078 C.3       3 UNK         0.1400 
     58 CB          5.6178  -18.9315  -44.1429 C.3       3 UNK        -0.1800 
     59 N           6.2427  -17.0700  -45.6029 N.am      3 UNK        -0.5000 
     60 C           6.9556  -16.0039  -45.9992 C.2       2 UNK         0.5000 
     61 O           7.6475  -15.3277  -45.2366 O.2       2 UNK        -0.5000 
     62 CA          6.8764  -15.6097  -47.4901 C.3       2 UNK         0.1400 
     63 CB          8.0417  -16.2298  -48.2758 C.3       2 UNK        -0.1800 
     64 N           5.6154  -16.0133  -48.1110 N.am      2 UNK        -0.5000 
     65 C           4.4148  -15.5013  -47.8064 C.2       1 UNK         0.5000 
     66 O           4.2728  -14.4822  -47.1300 O.2       1 UNK        -0.5000 
     67 C          -4.4105  -20.4006  -46.1642 C.2       11 UNK         0.5000 
     68 O          -4.4925  -20.5904  -44.9494 O.2       11 UNK        -0.5000 
     69 N          -4.8102  -21.2780  -47.0971 N.am      12 UNK        -0.5000 
     70 CA         -5.3160  -22.6361  -46.8783 C.3       12 UNK         0.1400 
     71 CB         -6.6704  -22.6051  -46.1393 C.3       12 UNK        -0.1800 
     72 C          -4.2933  -23.5961  -46.2230 C.2       12 UNK         0.5000 
     73 O          -4.7056  -24.5853  -45.6145 O.2       12 UNK        -0.5000 
     74 N          -2.9894  -23.3111  -46.3636 N.am      13 UNK        -0.5000 
     75 CA         -1.8982  -24.0875  -45.7725 C.3       13 UNK         0.1400 
     76 CB         -1.3650  -23.3458  -44.5380 C.3       13 UNK        -0.1800 
     77 C          -0.7551  -24.4093  -46.7550 C.2       13 UNK         0.5000 
     78 O          -0.1698  -25.4863  -46.6295 O.2       13 UNK        -0.5000 
     79 N          -0.4386  -23.5167  -47.7057 N.am      14 UNK        -0.5000 
     80 CA          0.6567  -23.6962  -48.6620 C.3       14 UNK         0.1400 
     81 CB          1.9959  -23.3278  -47.9938 C.3       14 UNK        -0.1800 
     82 C           0.4457  -22.8570  -49.9320 C.2       14 UNK         0.5000 
     83 O          -0.2664  -21.8533  -49.8987 O.2       14 UNK        -0.5000 
     84 N           1.1164  -23.2707  -51.0183 N.am      15 UNK        -0.5000 
     85 CA          1.1625  -22.6255  -52.3378 C.3       15 UNK         0.1400 
     86 CB          1.9104  -21.2769  -52.2427 C.3       15 UNK        -0.1800 
     87 C          -0.2243  -22.5073  -53.0085 C.2       15 UNK         0.5000 
     88 O          -1.1383  -23.2608  -52.6666 O.2       15 UNK        -0.5000 
     89 N          -0.3757  -21.5645  -53.9514 N.am      16 UNK        -0.5000 
     90 CA         -1.6279  -21.2681  -54.6622 C.3       16 UNK         0.1400 
     91 CB         -1.3613  -20.2112  -55.7429 C.3       16 UNK        -0.1800 
     92 C          -2.7700  -20.8073  -53.7354 C.2       16 UNK         0.5000 
     93 O          -3.9410  -21.0111  -54.0579 O.2       16 UNK        -0.5000 
     94 N          -2.4048  -20.2597  -52.5695 N.am      17 UNK        -0.5000 
     95 CA         -3.3003  -19.9004  -51.4723 C.3       17 UNK         0.1400 
     96 CB         -2.5112  -19.0489  -50.4677 C.3       17 UNK        -0.1800 
     97 C          -3.9600  -21.1162  -50.7838 C.2       17 UNK         0.5000 
     98 O          -4.8802  -20.9200  -49.9893 O.2       17 UNK        -0.5000 
     99 N          -3.5055  -22.3365  -51.1026 N.am      18 UNK        -0.5000 
    100 CA        -4.1007  -23.6017  -50.6837 C.3       18 UNK         0.1400 
    101 CB        -3.1135  -24.3483  -49.7805 C.3       18 UNK        -0.1800 
    102 C         -4.4729  -24.4655  -51.8966 C.2       18 UNK         0.5000 
    103 O         -5.5947  -24.9669  -51.9528 O.2       18 UNK        -0.5000 
    104 N         -3.5429  -24.6152  -52.8512 N.am      19 UNK        -0.5000 
    105 CA        -3.6673  -25.4970  -54.0158 C.3       19 UNK         0.1400 
    106 CB        -2.3081  -25.5966  -54.7251 C.3       19 UNK        -0.1800 
    107 C         -4.7638  -25.0655  -55.0048 C.2       19 UNK         0.5000 
    108 O         -5.4575  -25.9237  -55.5513 O.2       19 UNK        -0.5000 
    109 N         -4.9140  -23.7487  -55.1915 N.am      20 UNK        -0.5000 
    110 CA        -5.9917  -23.1316  -55.9679 C.3       20 UNK         0.1400 
    111 CB        -5.3708  -22.1732  -56.9992 C.3       20 UNK        -0.1800 
    112 C         -6.9823  -22.3877  -55.0515 C.2       20 UNK         0.5000 
    113 O         -7.9154  -21.7614  -55.5552 O.2       20 UNK        -0.5000 
    114 N         -6.7409  -22.4281  -53.7305 N.am      21 UNK        -0.5000 
    115 CA        -7.4628  -21.7365  -52.6559 C.3       21 UNK         0.1400 
    116 CB        -8.8479  -22.3811  -52.4490 C.3       21 UNK        -0.1800 
    117 C         -7.5398  -20.2052  -52.8518 C.2       21 UNK         0.5000 
    118 O         -8.5050  -19.5790  -52.4113 O.2       21 UNK        -0.5000 
    119 N         -6.5348  -19.6356  -53.5342 N.am      22 UNK        -0.5000 
    120 CA        -6.4989  -18.2410  -54.0047 C.3       22 UNK         0.1400 
    121 C         -7.5308  -17.9096  -55.1335 C.2       22 UNK         0.5000 
    122 N         -8.1382  -18.8874  -55.7961 N.am      22 UNK        -0.7600 
    123 O         -7.7736  -16.7472  -55.4442 O.2       22 UNK        -0.5000 
    124 C124       -6.5145  -17.2280  -52.8235 C.3       23 UNK        -0.0398 
    125 S125       -5.6337  -15.6702  -53.1891 S.3       23 UNK        -0.2404 
    126 C126       -3.9383  -16.0717  -52.6529 C.3       23 UNK        -0.0205 
    127 H127        5.0420  -20.3227  -49.3086 H         1 UNK         0.0600 
    128 H128        3.9281  -19.5759  -50.4560 H         1 UNK         0.0600 
    129 H129        3.3000  -20.5697  -49.1353 H         1 UNK         0.0600 
    130 H130        3.1272  -17.5335  -49.9844 H         1 UNK         0.3000 
    131 H131        2.6202  -16.5304  -47.4027 H         1 UNK         0.0600 
    132 H132        2.0369  -14.4055  -48.5867 H         1 UNK         0.0800 
    133 H133        2.7250  -15.0287  -50.0650 H         1 UNK         0.0800 
    134 H134       -0.4523  -14.4851  -48.1397 H         1 UNK         0.0800 
    135 H135       -0.2673  -13.9022  -49.7758 H         1 UNK         0.0800 
    136 H136       -1.5648  -15.3542  -51.6142 H         1 UNK         0.1150 
    137 H137       -5.6147  -16.1075  -50.4038 H         1 UNK         0.1150 
    138 H138       -2.6624  -15.0881  -47.4839 H         1 UNK         0.1150 
    139 H139       -5.0200  -15.0933  -46.8775 H         1 UNK         0.0800 
    140 H140       -6.2178  -15.1299  -48.1394 H         1 UNK         0.0800 
    141 H141       -4.8117  -17.9286  -45.1875 H         1 UNK         0.0800 
    142 H142       -3.7219  -17.0056  -46.1744 H         1 UNK         0.0800 
    143 H143       -3.7794  -19.1379  -47.7771 H         1 UNK         0.0600 
    144 H144       -1.9763  -18.3204  -45.8059 H         1 UNK         0.3000 
    145 H145        0.5423  -20.7946  -46.5525 H         1 UNK         0.0600 
    146 H146        0.7691  -18.9448  -48.1187 H         1 UNK         0.0600 
    147 H147        1.7334  -18.5938  -46.6866 H         1 UNK         0.0600 
    148 H148        0.1939  -17.7789  -46.9326 H         1 UNK         0.0600 
    149 H149       -0.4747  -18.8848  -44.4851 H         1 UNK         0.3000 
    150 H150        0.9756  -20.8120  -41.9534 H         1 UNK         0.0600 
    151 H151        3.0930  -19.6408  -42.4621 H         1 UNK         0.0600 
    152 H152        2.2407  -18.8036  -41.1751 H         1 UNK         0.0600 
    153 H153        2.2269  -18.1525  -42.8127 H         1 UNK         0.0600 
    154 H154       -0.0819  -18.1549  -41.8943 H         1 UNK         0.3000 
    155 H155       -3.4879  -19.2132  -41.4625 H         1 UNK         0.0600 
    156 H156       -2.3784  -19.5732  -39.2593 H         1 UNK         0.0600 
    157 H157       -3.1521  -17.9964  -39.3199 H         1 UNK         0.0600 
    158 H158       -1.4026  -18.1259  -39.4930 H         1 UNK         0.0600 
    159 H159       -1.5692  -16.9382  -41.8373 H         1 UNK         0.3000 
    160 H160       -3.6787  -15.5039  -44.2169 H         1 UNK         0.0600 
    161 H161       -3.2793  -14.2383  -41.4534 H         1 UNK         0.0600 
    162 H162       -4.8290  -14.4637  -42.2558 H         1 UNK         0.0600 
    163 H163       -3.6403  -13.3729  -42.9484 H         1 UNK         0.0600 
    164 H164       -1.3527  -14.4471  -42.9807 H         1 UNK         0.3000 
    165 H165        1.1061  -16.5490  -44.2830 H         1 UNK         0.0600 
    166 H166        2.0034  -14.5517  -45.4589 H         1 UNK         0.0600 
    167 H167        0.7015  -15.3034  -46.3597 H         1 UNK         0.0600 
    168 H168        0.3979  -13.8154  -45.4646 H         1 UNK         0.0600 
    169 H169        1.4842  -14.0487  -43.1371 H         1 UNK         0.3000 
    170 H170        2.1213  -13.7874  -41.0222 H         1 UNK         0.0600 
    171 H171        0.0726  -15.0635  -39.1375 H         1 UNK         0.0600 
    172 H172        1.0987  -13.6787  -38.7687 H         1 UNK         0.0600 
    173 H173       -0.1327  -13.5527  -40.0152 H         1 UNK         0.0600 
    174 H174        2.2288  -16.1146  -39.2361 H         1 UNK         0.3000 
    175 H175        3.7042  -14.7002  -42.2700 H         1 UNK         0.0600 
    176 H176        6.0903  -14.2927  -40.3950 H         1 UNK         0.0600 
    177 H177        5.7617  -13.3792  -41.8667 H         1 UNK         0.0600 
    178 H178        4.6742  -13.2534  -40.4928 H         1 UNK         0.0600 
    179 H179        6.2232  -16.2229  -41.9593 H         1 UNK         0.3000 
    180 H180        7.0060  -17.3617  -43.6795 H         1 UNK         0.0600 
    181 H181        6.3433  -19.5815  -44.6320 H         1 UNK         0.0600 
    182 H182        4.6511  -19.0876  -44.6243 H         1 UNK         0.0600 
    183 H183        5.5265  -19.2638  -43.1083 H         1 UNK         0.0600 
    184 H184        5.6560  -17.5516  -46.2777 H         1 UNK         0.3000 
    185 H185        6.9582  -14.5225  -47.5527 H         1 UNK         0.0600 
    186 H186        9.0011  -15.9285  -47.8530 H         1 UNK         0.0600 
    187 H187        8.0033  -17.3198  -48.2593 H         1 UNK         0.0600 
    188 H188        8.0311  -15.9081  -49.3173 H         1 UNK         0.0600 
    189 H189        5.6359  -16.8528  -48.6710 H         1 UNK         0.3000 
    190 H190       -4.7040  -21.0259  -48.0771 H         1 UNK         0.3000 
    191 H191       -5.5044  -23.0426  -47.8713 H         1 UNK         0.0600 
    192 H192       -6.5599  -22.2868  -45.1024 H         1 UNK         0.0600 
    193 H193       -7.1343  -23.5920  -46.1290 H         1 UNK         0.0600 
    194 H194       -7.3699  -21.9259  -46.6266 H         1 UNK         0.0600 
    195 H195       -2.7200  -22.4690  -46.8663 H         1 UNK         0.3000 
    196 H196       -2.2757  -25.0548  -45.4349 H         1 UNK         0.0600 
    197 H197       -2.1356  -23.2496  -43.7728 H         1 UNK         0.0600 
    198 H198       -1.0280  -22.3431  -44.7937 H         1 UNK         0.0600 
    199 H199       -0.5224  -23.8734  -44.0894 H         1 UNK         0.0600 
    200 H200       -0.9455  -22.6370  -47.7938 H         1 UNK         0.3000 
    201 H201        0.6861  -24.7441  -48.9685 H         1 UNK         0.0600 
    202 H202        2.1945  -23.9544  -47.1243 H         1 UNK         0.0600 
    203 H203        2.0070  -22.2888  -47.6641 H         1 UNK         0.0600 
    204 H204        2.8313  -23.4604  -48.6822 H         1 UNK         0.0600 
    205 H205        1.6503  -24.1249  -50.9465 H         1 UNK         0.3000 
    206 H206        1.7485  -23.2866  -52.9774 H         1 UNK         0.0600 
    207 H207        2.8691  -21.4035  -51.7407 H         1 UNK         0.0600 
    208 H208        2.1263  -20.8638  -53.2283 H         1 UNK         0.0600 
    209 H209        1.3399  -20.5322  -51.6860 H         1 UNK         0.0600 
    210 H210        0.4190  -20.9881  -54.1878 H         1 UNK         0.3000 
    211 H211       -1.9591  -22.1838  -55.1549 H         1 UNK         0.0600 
    212 H212       -0.6159  -20.5580  -56.4587 H         1 UNK         0.0600 
    213 H213       -1.0047  -19.2749  -55.3117 H         1 UNK         0.0600 
    214 H214       -2.2699  -19.9892  -56.3048 H         1 UNK         0.0600 
    215 H215       -1.4177  -20.1657  -52.3804 H         1 UNK         0.3000 
    216 H216       -4.1026  -19.2877  -51.8855 H         1 UNK         0.0600 
    217 H217       -1.9107  -18.2903  -50.9691 H         1 UNK         0.0600 
    218 H218       -1.8379  -19.6544  -49.8608 H         1 UNK         0.0600 
    219 H219       -3.1866  -18.5205  -49.7975 H         1 UNK         0.0600 
    220 H220       -2.6994  -22.4051  -51.7135 H         1 UNK         0.3000 
    221 H221       -5.0181  -23.4217  -50.1214 H         1 UNK         0.0600 
    222 H222       -2.2061  -24.6358  -50.3130 H         1 UNK         0.0600 
    223 H223       -2.8173  -23.7128  -48.9521 H         1 UNK         0.0600 
    224 H224       -3.5597  -25.2526  -49.3654 H         1 UNK         0.0600 
    225 H225       -2.6339  -24.1706  -52.7293 H         1 UNK         0.3000 
    226 H226       -3.9296  -26.4917  -53.6492 H         1 UNK         0.0600 
    227 H227       -1.5382  -25.9707  -54.0501 H         1 UNK         0.0600 
    228 H228       -2.3584  -26.2816  -55.5725 H         1 UNK         0.0600 
    229 H229       -1.9779  -24.6293  -55.1039 H         1 UNK         0.0600 
    230 H230       -4.3016  -23.1073  -54.7044 H         1 UNK         0.3000 
    231 H231       -6.5645  -23.8875  -56.5085 H         1 UNK         0.0600 
    232 H232       -6.1379  -21.7361  -57.6395 H         1 UNK         0.0600 
    233 H233       -4.6682  -22.6960  -57.6482 H         1 UNK         0.0600 
    234 H234       -4.8372  -21.3510  -56.5223 H         1 UNK         0.0600 
    235 H235       -5.9638  -22.9969  -53.4301 H         1 UNK         0.3000 
    236 H236       -6.8849  -21.8968  -51.7450 H         1 UNK         0.0600 
    237 H237       -9.5024  -22.2139  -53.3050 H         1 UNK         0.0600 
    238 H238       -8.7614  -23.4572  -52.2975 H         1 UNK         0.0600 
    239 H239       -9.3455  -21.9708  -51.5696 H         1 UNK         0.0600 
    240 H240       -5.7691  -20.2245  -53.8478 H         1 UNK         0.3000 
    241 H241       -5.5274  -18.1585  -54.4930 H         1 UNK         0.0600 
    242 H242       -7.9761  -19.8668  -55.5788 H         1 UNK         0.3800 
    243 H243       -8.7915  -18.6490  -56.5249 H         1 UNK         0.3800 
    244 H244       -6.0554  -17.6803  -51.9445 H         1 UNK         0.0800 
    245 H245       -7.5385  -16.9922  -52.5295 H         1 UNK         0.0800 
    246 H246       -3.2622  -15.4940  -53.2851 H         1 UNK         0.0800 
    247 H247       -3.7207  -17.1191  -52.8617 H         1 UNK         0.0800 
@<TRIPOS>BOND
     1    1    2 1    
     2    1  127 1    
     3    1  128 1    
     4    1  129 1    
     5    2    3 2    
     6    2    4 am   BACKBONE|DICT|INTERRES
     7    4    5 1    
     8    4  130 1    
     9    5    6 1    
    10    5   65 1    
    11    5  131 1    
    12    6    7 1    
    13    6  132 1    
    14    6  133 1    
    15    7    8 1    
    16    8    9 1    
    17    8  134 1    
    18    8  135 1    
    19    9   10 ar   
    20    9   14 ar   
    21   10   11 ar   
    22   10  136 1    
    23   11   12 ar   
    24   11  126 1    
    25   12   13 ar   
    26   12  137 1    
    27   13   14 ar   
    28   13   15 1    
    29   14  138 1    
    30   15   16 1    
    31   15  139 1    
    32   15  140 1    
    33   16   17 1    
    34   17   18 1    
    35   17  141 1    
    36   17  142 1    
    37   18   19 1    
    38   18   67 1    
    39   18  143 1    
    40   19   20 am   BACKBONE|DICT|INTERRES
    41   19  144 1    
    42   20   21 2    
    43   20   22 1    
    44   22   23 1    
    45   22   24 1    
    46   22  145 1    
    47   23  146 1    
    48   23  147 1    
    49   23  148 1    
    50   24   25 am   BACKBONE|DICT|INTERRES
    51   24  149 1    
    52   25   26 2    
    53   25   27 1    
    54   27   28 1    
    55   27   29 1    
    56   27  150 1    
    57   28  151 1    
    58   28  152 1    
    59   28  153 1    
    60   29   30 am   BACKBONE|DICT|INTERRES
    61   29  154 1    
    62   30   31 2    
    63   30   32 1    
    64   32   33 1    
    65   32   34 1    
    66   32  155 1    
    67   33  156 1    
    68   33  157 1    
    69   33  158 1    
    70   34   35 am   BACKBONE|DICT|INTERRES
    71   34  159 1    
    72   35   36 2    
    73   35   37 1    
    74   37   38 1    
    75   37   39 1    
    76   37  160 1    
    77   38  161 1    
    78   38  162 1    
    79   38  163 1    
    80   39   40 am   BACKBONE|DICT|INTERRES
    81   39  164 1    
    82   40   41 2    
    83   40   42 1    
    84   42   43 1    
    85   42   44 1    
    86   42  165 1    
    87   43  166 1    
    88   43  167 1    
    89   43  168 1    
    90   44   45 am   BACKBONE|DICT|INTERRES
    91   44  169 1    
    92   45   46 2    
    93   45   47 1    
    94   47   48 1    
    95   47   49 1    
    96   47  170 1    
    97   48  171 1    
    98   48  172 1    
    99   48  173 1    
   100   49   50 am   BACKBONE|DICT|INTERRES
   101   49  174 1    
   102   50   51 2    
   103   50   52 1    
   104   52   53 1    
   105   52   54 1    
   106   52  175 1    
   107   53  176 1    
   108   53  177 1    
   109   53  178 1    
   110   54   55 am   BACKBONE|DICT|INTERRES
   111   54  179 1    
   112   55   56 2    
   113   55   57 1    
   114   57   58 1    
   115   57   59 1    
   116   57  180 1    
   117   58  181 1    
   118   58  182 1    
   119   58  183 1    
   120   59   60 am   BACKBONE|DICT|INTERRES
   121   59  184 1    
   122   60   61 2    
   123   60   62 1    
   124   62   63 1    
   125   62   64 1    
   126   62  185 1    
   127   63  186 1    
   128   63  187 1    
   129   63  188 1    
   130   64   65 am   BACKBONE|DICT|INTERRES
   131   64  189 1    
   132   65   66 2    
   133   67   68 2    
   134   67   69 am   BACKBONE|DICT|INTERRES
   135   69   70 1    
   136   69  190 1    
   137   70   71 1    
   138   70   72 1    
   139   70  191 1    
   140   71  192 1    
   141   71  193 1    
   142   71  194 1    
   143   72   73 2    
   144   72   74 am   BACKBONE|DICT|INTERRES
   145   74   75 1    
   146   74  195 1    
   147   75   76 1    
   148   75   77 1    
   149   75  196 1    
   150   76  197 1    
   151   76  198 1    
   152   76  199 1    
   153   77   78 2    
   154   77   79 am   BACKBONE|DICT|INTERRES
   155   79   80 1    
   156   79  200 1    
   157   80   81 1    
   158   80   82 1    
   159   80  201 1    
   160   81  202 1    
   161   81  203 1    
   162   81  204 1    
   163   82   83 2    
   164   82   84 am   BACKBONE|DICT|INTERRES
   165   84   85 1    
   166   84  205 1    
   167   85   86 1    
   168   85   87 1    
   169   85  206 1    
   170   86  207 1    
   171   86  208 1    
   172   86  209 1    
   173   87   88 2    
   174   87   89 am   BACKBONE|DICT|INTERRES
   175   89   90 1    
   176   89  210 1    
   177   90   91 1    
   178   90   92 1    
   179   90  211 1    
   180   91  212 1    
   181   91  213 1    
   182   91  214 1    
   183   92   93 2    
   184   92   94 am   BACKBONE|DICT|INTERRES
   185   94   95 1    
   186   94  215 1    
   187   95   96 1    
   188   95   97 1    
   189   95  216 1    
   190   96  217 1    
   191   96  218 1    
   192   96  219 1    
   193   97   98 2    
   194   97   99 am   BACKBONE|DICT|INTERRES
   195   99  100 1    
   196   99  220 1    
   197  100  101 1    
   198  100  102 1    
   199  100  221 1    
   200  101  222 1    
   201  101  223 1    
   202  101  224 1    
   203  102  103 2    
   204  102  104 am   BACKBONE|DICT|INTERRES
   205  104  105 1    
   206  104  225 1    
   207  105  106 1    
   208  105  107 1    
   209  105  226 1    
   210  106  227 1    
   211  106  228 1    
   212  106  229 1    
   213  107  108 2    
   214  107  109 am   BACKBONE|DICT|INTERRES
   215  109  110 1    
   216  109  230 1    
   217  110  111 1    
   218  110  112 1    
   219  110  231 1    
   220  111  232 1    
   221  111  233 1    
   222  111  234 1    
   223  112  113 2    
   224  112  114 am   BACKBONE|DICT|INTERRES
   225  114  115 1    
   226  114  235 1    
   227  115  116 1    
   228  115  117 1    
   229  115  236 1    
   230  116  237 1    
   231  116  238 1    
   232  116  239 1    
   233  117  118 2    
   234  117  119 am   BACKBONE|DICT|INTERRES
   235  119  120 1    
   236  119  240 1    
   237  120  121 1    
   238  120  124 1    
   239  120  241 1    
   240  121  122 am   BACKBONE|DICT|INTERRES
   241  121  123 2    
   242  122  242 1    
   243  122  243 1    
   244  124  125 1    
   245  124  244 1    
   246  124  245 1    
   247  125  126 1    
   248  126  246 1    
   249  126  247 1    
@<TRIPOS>SUBSTRUCTURE
     1 UNK         1 GROUP             0       ****    0 ROOT    
