@<TRIPOS>MOLECULE
3R540
247   249    1
SMALL
USER_CHARGES


@<TRIPOS>ATOM
      1 CA         -2.2241  -13.5828  -50.0089 C.3       0 UNK        -0.1800 
      2 C          -1.0833  -13.0152  -49.1792 C.2       0 UNK         0.5000 
      3 O          -0.8507  -11.8063  -49.1988 O.2       0 UNK        -0.5000 
      4 N          -0.3717  -13.8854  -48.4509 N.am      1 UNK        -0.5000 
      5 CA          0.7632  -13.5228  -47.5907 C.3       1 UNK         0.1400 
      6 C6          1.5798  -14.7525  -47.1233 C.3       23 UNK        -0.0398 
      7 S7          2.2150  -15.7743  -48.4927 S.3       23 UNK        -0.2404 
      8 C8          1.3088  -17.3291  -48.2250 C.3       23 UNK        -0.0205 
      9 C9         -0.1508  -17.2144  -48.6283 C.ar      23 UNK        -0.0193 
     10 C10        -0.4999  -17.2419  -49.9804 C.ar      23 UNK        -0.1150 
     11 C11        -1.8377  -17.1535  -50.3715 C.ar      23 UNK        -0.0193 
     12 C12        -2.8289  -17.0314  -49.3934 C.ar      23 UNK        -0.1150 
     13 C13        -2.4933  -16.9933  -48.0373 C.ar      23 UNK        -0.0193 
     14 C14        -1.1505  -17.0861  -47.6589 C.ar      23 UNK        -0.1150 
     15 C15        -3.5861  -16.8321  -46.9907 C.3       23 UNK        -0.0205 
     16 S16        -4.3082  -18.4326  -46.5060 S.3       23 UNK        -0.2404 
     17 C17        -3.0076  -19.1040  -45.4177 C.3       23 UNK        -0.0398 
     18 CA         -2.1106  -20.1390  -46.1384 C.3       11 UNK         0.1400 
     19 N          -0.7546  -20.1595  -45.5849 N.am      11 UNK        -0.5000 
     20 C           0.2805  -20.8175  -46.1243 C.2       10 UNK         0.5000 
     21 O           0.2235  -21.4176  -47.1960 O.2       10 UNK        -0.5000 
     22 CA          1.5736  -20.8725  -45.2913 C.3       10 UNK         0.1400 
     23 CB          2.4612  -19.6449  -45.5426 C.3       10 UNK        -0.1800 
     24 N           1.2852  -21.0043  -43.8619 N.am      10 UNK        -0.5000 
     25 C           0.8169  -22.1284  -43.3004 C.2       9 UNK         0.5000 
     26 O           0.6577  -23.1807  -43.9185 O.2       9 UNK        -0.5000 
     27 CA          0.4027  -22.0516  -41.8200 C.3       9 UNK         0.1400 
     28 CB          1.5868  -22.3677  -40.8968 C.3       9 UNK        -0.1800 
     29 N          -0.1708  -20.7501  -41.4706 N.am      9 UNK        -0.5000 
     30 C          -1.3893  -20.3518  -41.8654 C.2       8 UNK         0.5000 
     31 O          -2.1414  -21.0484  -42.5442 O.2       8 UNK        -0.5000 
     32 CA         -1.8359  -18.9280  -41.4869 C.3       8 UNK         0.1400 
     33 CB         -2.5651  -18.9348  -40.1358 C.3       8 UNK        -0.1800 
     34 N          -0.7416  -17.9601  -41.4389 N.am      8 UNK        -0.5000 
     35 C           0.0519  -17.6364  -42.4681 C.2       7 UNK         0.5000 
     36 O          -0.0542  -18.1347  -43.5909 O.2       7 UNK        -0.5000 
     37 CA          1.1764  -16.6190  -42.1955 C.3       7 UNK         0.1400 
     38 CB          1.0866  -15.9243  -40.8177 C.3       7 UNK        -0.1800 
     39 N           2.5047  -17.2083  -42.3705 N.am      7 UNK        -0.5000 
     40 C           3.0126  -18.2865  -41.7510 C.2       6 UNK         0.5000 
     41 O           2.3652  -18.9863  -40.9706 O.2       6 UNK        -0.5000 
     42 CA          4.4826  -18.6551  -42.0533 C.3       6 UNK         0.1400 
     43 CB          4.6692  -20.1674  -42.2659 C.3       6 UNK        -0.1800 
     44 N           5.0018  -17.9347  -43.2193 N.am      6 UNK        -0.5000 
     45 C           5.6878  -16.7869  -43.1598 C.2       5 UNK         0.5000 
     46 O           6.0607  -16.2700  -42.1047 O.2       5 UNK        -0.5000 
     47 CA          5.9849  -16.0630  -44.4912 C.3       5 UNK         0.1400 
     48 CB          5.3941  -16.7530  -45.7450 C.3       5 UNK        -0.1800 
     49 N           5.5594  -14.6606  -44.4203 N.am      5 UNK        -0.5000 
     50 C           4.3130  -14.2161  -44.2042 C.2       4 UNK         0.5000 
     51 O           3.3275  -14.9539  -44.1231 O.2       4 UNK        -0.5000 
     52 CA          4.1546  -12.6885  -44.0823 C.3       4 UNK         0.1400 
     53 CB          4.3477  -12.0056  -45.4467 C.3       4 UNK        -0.1800 
     54 N           2.8507  -12.3098  -43.5307 N.am      4 UNK        -0.5000 
     55 C           2.5285  -12.4013  -42.2316 C.2       3 UNK         0.5000 
     56 O           3.3178  -12.7872  -41.3679 O.2       3 UNK        -0.5000 
     57 CA          1.1135  -11.9657  -41.7967 C.3       3 UNK         0.1400 
     58 CB          1.1788  -10.6412  -41.0189 C.3       3 UNK        -0.1800 
     59 N           0.1874  -11.7969  -42.9162 N.am      3 UNK        -0.5000 
     60 C          -0.6054  -12.7571  -43.4069 C.2       2 UNK         0.5000 
     61 O          -0.6662  -13.8977  -42.9491 O.2       2 UNK        -0.5000 
     62 CA         -1.4697  -12.4000  -44.6337 C.3       2 UNK         0.1400 
     63 CB         -1.7544  -10.8890  -44.7888 C.3       2 UNK        -0.1800 
     64 N          -0.8906  -12.9530  -45.8603 N.am      2 UNK        -0.5000 
     65 C           0.3318  -12.7046  -46.3562 C.2       1 UNK         0.5000 
     66 O           1.1152  -11.8878  -45.8708 O.2       1 UNK        -0.5000 
     67 C          -2.7486  -21.5458  -46.1525 C.2       11 UNK         0.5000 
     68 O          -3.3516  -21.9307  -47.1540 O.2       11 UNK        -0.5000 
     69 N          -2.5646  -22.3098  -45.0656 N.am      12 UNK        -0.5000 
     70 CA         -2.9923  -23.7043  -44.9451 C.3       12 UNK         0.1400 
     71 CB         -2.8186  -24.1824  -43.4964 C.3       12 UNK        -0.1800 
     72 C          -2.2562  -24.6373  -45.9231 C.2       12 UNK         0.5000 
     73 O          -2.8970  -25.4941  -46.5310 O.2       12 UNK        -0.5000 
     74 N          -0.9445  -24.4248  -46.1084 N.am      13 UNK        -0.5000 
     75 CA         -0.1252  -25.1240  -47.1050 C.3       13 UNK         0.1400 
     76 CB          1.3566  -24.7821  -46.8905 C.3       13 UNK        -0.1800 
     77 C          -0.5570  -24.8225  -48.5553 C.2       13 UNK         0.5000 
     78 O          -0.4928  -25.7097  -49.4061 O.2       13 UNK        -0.5000 
     79 N          -1.0441  -23.5974  -48.7943 N.am      14 UNK        -0.5000 
     80 CA         -1.6746  -23.1574  -50.0404 C.3       14 UNK         0.1400 
     81 CB         -1.5432  -21.6297  -50.1522 C.3       14 UNK        -0.1800 
     82 C          -3.1517  -23.5930  -50.1717 C.2       14 UNK         0.5000 
     83 O          -3.8088  -23.1954  -51.1354 O.2       14 UNK        -0.5000 
     84 N          -3.6629  -24.3778  -49.2104 N.am      15 UNK        -0.5000 
     85 CA         -5.0255  -24.9113  -49.1260 C.3       15 UNK         0.1400 
     86 CB         -5.2724  -25.9378  -50.2518 C.3       15 UNK        -0.1800 
     87 C          -6.0976  -23.8043  -49.0667 C.2       15 UNK         0.5000 
     88 O          -7.1409  -23.9232  -49.7082 O.2       15 UNK        -0.5000 
     89 N          -5.8003  -22.7274  -48.3240 N.am      16 UNK        -0.5000 
     90 CA         -6.5833  -21.4921  -48.2126 C.3       16 UNK         0.1400 
     91 CB         -7.9403  -21.7477  -47.5239 C.3       16 UNK        -0.1800 
     92 C          -6.7047  -20.7697  -49.5705 C.2       16 UNK         0.5000 
     93 O          -7.7885  -20.3196  -49.9451 O.2       16 UNK        -0.5000 
     94 N          -5.5696  -20.7037  -50.2821 N.am      17 UNK        -0.5000 
     95 CA         -5.3586  -20.1156  -51.6093 C.3       17 UNK         0.1400 
     96 CB         -5.8082  -18.6389  -51.6464 C.3       17 UNK        -0.1800 
     97 C          -5.9584  -20.9304  -52.7746 C.2       17 UNK         0.5000 
     98 O          -5.9945  -20.4286  -53.8988 O.2       17 UNK        -0.5000 
     99 N          -6.4114  -22.1643  -52.5165 N.am      18 UNK        -0.5000 
    100 CA        -6.9891  -23.0420  -53.5330 C.3       18 UNK         0.1400 
    101 CB        -7.9106  -24.0717  -52.8646 C.3       18 UNK        -0.1800 
    102 C         -5.9273  -23.7531  -54.3897 C.2       18 UNK         0.5000 
    103 O         -6.2016  -24.0312  -55.5583 O.2       18 UNK        -0.5000 
    104 N         -4.7503  -24.0468  -53.8132 N.am      19 UNK        -0.5000 
    105 CA        -3.6714  -24.8062  -54.4525 C.3       19 UNK         0.1400 
    106 CB        -2.5700  -25.1100  -53.4250 C.3       19 UNK        -0.1800 
    107 C         -3.1037  -24.0631  -55.6737 C.2       19 UNK         0.5000 
    108 O         -2.3949  -23.0694  -55.5064 O.2       19 UNK        -0.5000 
    109 N         -3.4883  -24.5212  -56.8746 N.am      20 UNK        -0.5000 
    110 CA        -3.1863  -23.9354  -58.1889 C.3       20 UNK         0.1400 
    111 CB        -1.6869  -24.0967  -58.5154 C.3       20 UNK        -0.1800 
    112 C         -3.6722  -22.4745  -58.3430 C.2       20 UNK         0.5000 
    113 O         -3.1005  -21.7209  -59.1316 O.2       20 UNK        -0.5000 
    114 N         -4.7035  -22.1014  -57.5672 N.am      21 UNK        -0.5000 
    115 CA        -5.2284  -20.7433  -57.3747 C.3       21 UNK         0.1400 
    116 CB        -5.8487  -20.1955  -58.6773 C.3       21 UNK        -0.1800 
    117 C         -4.2113  -19.7680  -56.7325 C.2       21 UNK         0.5000 
    118 O         -4.3420  -18.5532  -56.8965 O.2       21 UNK        -0.5000 
    119 N         -3.2391  -20.3135  -55.9882 N.am      22 UNK        -0.5000 
    120 CA        -2.1685  -19.6054  -55.2737 C.3       22 UNK         0.1400 
    121 C         -1.0948  -18.9543  -56.1980 C.2       22 UNK         0.5000 
    122 N         -0.1516  -18.2103  -55.6352 N.am      22 UNK        -0.7600 
    123 O         -1.0754  -19.1378  -57.4130 O.2       22 UNK        -0.5000 
    124 C124       -2.7236  -18.6367  -54.1877 C.3       23 UNK        -0.0398 
    125 S125       -1.8114  -18.7657  -52.6164 S.3       23 UNK        -0.2404 
    126 C126       -2.2061  -17.1666  -51.8479 C.3       23 UNK        -0.0205 
    127 H127       -2.7983  -12.7830  -50.4770 H         1 UNK         0.0600 
    128 H128       -2.9024  -14.1618  -49.3827 H         1 UNK         0.0600 
    129 H129       -1.8359  -14.2276  -50.7967 H         1 UNK         0.0600 
    130 H130       -0.5800  -14.8734  -48.5127 H         1 UNK         0.3000 
    131 H131        1.4285  -12.8866  -48.1786 H         1 UNK         0.0600 
    132 H132        0.9967  -15.3696  -46.4376 H         1 UNK         0.0800 
    133 H133        2.4495  -14.4247  -46.5551 H         1 UNK         0.0800 
    134 H134        1.3913  -17.6181  -47.1785 H         1 UNK         0.0800 
    135 H135        1.7830  -18.1236  -48.8031 H         1 UNK         0.0800 
    136 H136        0.2720  -17.3354  -50.7315 H         1 UNK         0.1150 
    137 H137       -3.8652  -16.9487  -49.6835 H         1 UNK         0.1150 
    138 H138       -0.8847  -17.0649  -46.6110 H         1 UNK         0.1150 
    139 H139       -3.2049  -16.3102  -46.1117 H         1 UNK         0.0800 
    140 H140       -4.3808  -16.2006  -47.3908 H         1 UNK         0.0800 
    141 H141       -3.4758  -19.5304  -44.5287 H         1 UNK         0.0800 
    142 H142       -2.4071  -18.2709  -45.0513 H         1 UNK         0.0800 
    143 H143       -2.0018  -19.8313  -47.1807 H         1 UNK         0.0600 
    144 H144       -0.5982  -19.6342  -44.7303 H         1 UNK         0.3000 
    145 H145        2.1325  -21.7541  -45.6122 H         1 UNK         0.0600 
    146 H146        3.4336  -19.7586  -45.0685 H         1 UNK         0.0600 
    147 H147        2.6488  -19.5175  -46.6091 H         1 UNK         0.0600 
    148 H148        2.0081  -18.7270  -45.1680 H         1 UNK         0.0600 
    149 H149        1.3231  -20.1634  -43.3037 H         1 UNK         0.3000 
    150 H150       -0.3586  -22.8161  -41.6514 H         1 UNK         0.0600 
    151 H151        2.0063  -23.3489  -41.1227 H         1 UNK         0.0600 
    152 H152        1.2793  -22.3778  -39.8511 H         1 UNK         0.0600 
    153 H153        2.3868  -21.6377  -41.0027 H         1 UNK         0.0600 
    154 H154        0.4251  -20.1054  -40.9644 H         1 UNK         0.3000 
    155 H155       -2.5385  -18.5913  -42.2517 H         1 UNK         0.0600 
    156 H156       -1.9025  -19.2325  -39.3221 H         1 UNK         0.0600 
    157 H157       -3.4040  -19.6322  -40.1482 H         1 UNK         0.0600 
    158 H158       -2.9674  -17.9496  -39.8990 H         1 UNK         0.0600 
    159 H159       -0.5653  -17.5225  -40.5465 H         1 UNK         0.3000 
    160 H160        1.0798  -15.8519  -42.9636 H         1 UNK         0.0600 
    161 H161        1.2052  -16.6251  -39.9907 H         1 UNK         0.0600 
    162 H162        0.1307  -15.4139  -40.6942 H         1 UNK         0.0600 
    163 H163        1.8651  -15.1682  -40.7179 H         1 UNK         0.0600 
    164 H164        3.0969  -16.6954  -43.0141 H         1 UNK         0.3000 
    165 H165        5.0594  -18.3826  -41.1674 H         1 UNK         0.0600 
    166 H166        4.4976  -20.7096  -41.3360 H         1 UNK         0.0600 
    167 H167        3.9833  -20.5695  -43.0095 H         1 UNK         0.0600 
    168 H168        5.6854  -20.4001  -42.5847 H         1 UNK         0.0600 
    169 H169        4.7287  -18.2847  -44.1256 H         1 UNK         0.3000 
    170 H170        7.0704  -16.0545  -44.5986 H         1 UNK         0.0600 
    171 H171        5.8042  -17.7552  -45.8749 H         1 UNK         0.0600 
    172 H172        4.3076  -16.8397  -45.7035 H         1 UNK         0.0600 
    173 H173        5.6395  -16.1920  -46.6468 H         1 UNK         0.0600 
    174 H174        6.3086  -13.9836  -44.4535 H         1 UNK         0.3000 
    175 H175        4.9310  -12.3216  -43.4076 H         1 UNK         0.0600 
    176 H176        3.6707  -12.4031  -46.2018 H         1 UNK         0.0600 
    177 H177        4.1787  -10.9308  -45.3786 H         1 UNK         0.0600 
    178 H178        5.3632  -12.1490  -45.8171 H         1 UNK         0.0600 
    179 H179        2.1395  -12.0428  -44.2043 H         1 UNK         0.3000 
    180 H180        0.7313  -12.7332  -41.1204 H         1 UNK         0.0600 
    181 H181        1.5633   -9.8295  -41.6376 H         1 UNK         0.0600 
    182 H182        1.8313  -10.7286  -40.1491 H         1 UNK         0.0600 
    183 H183        0.1936  -10.3489  -40.6550 H         1 UNK         0.0600 
    184 H184        0.1989  -10.9010  -43.3821 H         1 UNK         0.3000 
    185 H185       -2.4289  -12.8995  -44.4887 H         1 UNK         0.0600 
    186 H186       -0.8557  -10.3102  -45.0024 H         1 UNK         0.0600 
    187 H187       -2.4567  -10.7110  -45.6033 H         1 UNK         0.0600 
    188 H188       -2.2040  -10.4809  -43.8827 H         1 UNK         0.0600 
    189 H189       -1.4519  -13.6463  -46.3328 H         1 UNK         0.3000 
    190 H190       -2.1343  -21.8974  -44.2426 H         1 UNK         0.3000 
    191 H191       -4.0564  -23.7452  -45.1874 H         1 UNK         0.0600 
    192 H192       -1.7748  -24.1577  -43.1850 H         1 UNK         0.0600 
    193 H193       -3.1710  -25.2079  -43.3797 H         1 UNK         0.0600 
    194 H194       -3.3896  -23.5622  -42.8051 H         1 UNK         0.0600 
    195 H195       -0.4706  -23.7440  -45.5243 H         1 UNK         0.3000 
    196 H196       -0.2502  -26.1964  -46.9413 H         1 UNK         0.0600 
    197 H197        1.9885  -25.3409  -47.5818 H         1 UNK         0.0600 
    198 H198        1.6779  -25.0339  -45.8797 H         1 UNK         0.0600 
    199 H199        1.5546  -23.7229  -47.0511 H         1 UNK         0.0600 
    200 H200       -0.9964  -22.9088  -48.0514 H         1 UNK         0.3000 
    201 H201       -1.1342  -23.6015  -50.8780 H         1 UNK         0.0600 
    202 H202       -0.5014  -21.3147  -50.0918 H         1 UNK         0.0600 
    203 H203       -2.0930  -21.1134  -49.3658 H         1 UNK         0.0600 
    204 H204       -1.9318  -21.2778  -51.1075 H         1 UNK         0.0600 
    205 H205       -3.0627  -24.6297  -48.4344 H         1 UNK         0.3000 
    206 H206       -5.0910  -25.4437  -48.1766 H         1 UNK         0.0600 
    207 H207       -6.2437  -26.4202  -50.1373 H         1 UNK         0.0600 
    208 H208       -4.5174  -26.7238  -50.2380 H         1 UNK         0.0600 
    209 H209       -5.2518  -25.4740  -51.2376 H         1 UNK         0.0600 
    210 H210       -4.8865  -22.6886  -47.8762 H         1 UNK         0.3000 
    211 H211       -6.0103  -20.8272  -47.5651 H         1 UNK         0.0600 
    212 H212       -7.8071  -22.2546  -46.5683 H         1 UNK         0.0600 
    213 H213       -8.6028  -22.3574  -48.1386 H         1 UNK         0.0600 
    214 H214       -8.4561  -20.8080  -47.3234 H         1 UNK         0.0600 
    215 H215       -4.7581  -21.1630  -49.8924 H         1 UNK         0.3000 
    216 H216       -4.2796  -20.1370  -51.7596 H         1 UNK         0.0600 
    217 H217       -5.4410  -18.1343  -52.5394 H         1 UNK         0.0600 
    218 H218       -5.4357  -18.0896  -50.7845 H         1 UNK         0.0600 
    219 H219       -6.8943  -18.5465  -51.6546 H         1 UNK         0.0600 
    220 H220       -6.3383  -22.5285  -51.5759 H         1 UNK         0.3000 
    221 H221       -7.6050  -22.4393  -54.2042 H         1 UNK         0.0600 
    222 H222       -7.3533  -24.7625  -52.2324 H         1 UNK         0.0600 
    223 H223       -8.6662  -23.5858  -52.2469 H         1 UNK         0.0600 
    224 H224       -8.4349  -24.6674  -53.6129 H         1 UNK         0.0600 
    225 H225       -4.5709  -23.7227  -52.8667 H         1 UNK         0.3000 
    226 H226       -4.0867  -25.7607  -54.7824 H         1 UNK         0.0600 
    227 H227       -2.9649  -25.6583  -52.5696 H         1 UNK         0.0600 
    228 H228       -1.7827  -25.7208  -53.8679 H         1 UNK         0.0600 
    229 H229       -2.1042  -24.1963  -53.0556 H         1 UNK         0.0600 
    230 H230       -4.1217  -25.3089  -56.8946 H         1 UNK         0.3000 
    231 H231       -3.7487  -24.5177  -58.9200 H         1 UNK         0.0600 
    232 H232       -1.3680  -25.1330  -58.4038 H         1 UNK         0.0600 
    233 H233       -1.0634  -23.4817  -57.8655 H         1 UNK         0.0600 
    234 H234       -1.4749  -23.8035  -59.5442 H         1 UNK         0.0600 
    235 H235       -5.1129  -22.8094  -56.9672 H         1 UNK         0.3000 
    236 H236       -6.0372  -20.8429  -56.6497 H         1 UNK         0.0600 
    237 H237       -6.3913  -19.2682  -58.4907 H         1 UNK         0.0600 
    238 H238       -5.0900  -19.9815  -59.4303 H         1 UNK         0.0600 
    239 H239       -6.5581  -20.9037  -59.1053 H         1 UNK         0.0600 
    240 H240       -3.1723  -21.3252  -55.9413 H         1 UNK         0.3000 
    241 H241       -1.6381  -20.4169  -54.7740 H         1 UNK         0.0600 
    242 H242        0.5590  -17.7933  -56.2163 H         1 UNK         0.3800 
    243 H243       -0.1284  -18.0670  -54.6370 H         1 UNK         0.3800 
    244 H244       -2.7338  -17.6035  -54.5397 H         1 UNK         0.0800 
    245 H245       -3.7619  -18.8749  -53.9628 H         1 UNK         0.0800 
    246 H246       -3.2681  -16.9543  -51.9773 H         1 UNK         0.0800 
    247 H247       -1.6649  -16.3730  -52.3648 H         1 UNK         0.0800 
@<TRIPOS>BOND
     1    1    2 1    
     2    1  127 1    
     3    1  128 1    
     4    1  129 1    
     5    2    3 2    
     6    2    4 am   BACKBONE|DICT|INTERRES
     7    4    5 1    
     8    4  130 1    
     9    5    6 1    
    10    5   65 1    
    11    5  131 1    
    12    6    7 1    
    13    6  132 1    
    14    6  133 1    
    15    7    8 1    
    16    8    9 1    
    17    8  134 1    
    18    8  135 1    
    19    9   10 ar   
    20    9   14 ar   
    21   10   11 ar   
    22   10  136 1    
    23   11   12 ar   
    24   11  126 1    
    25   12   13 ar   
    26   12  137 1    
    27   13   14 ar   
    28   13   15 1    
    29   14  138 1    
    30   15   16 1    
    31   15  139 1    
    32   15  140 1    
    33   16   17 1    
    34   17   18 1    
    35   17  141 1    
    36   17  142 1    
    37   18   19 1    
    38   18   67 1    
    39   18  143 1    
    40   19   20 am   BACKBONE|DICT|INTERRES
    41   19  144 1    
    42   20   21 2    
    43   20   22 1    
    44   22   23 1    
    45   22   24 1    
    46   22  145 1    
    47   23  146 1    
    48   23  147 1    
    49   23  148 1    
    50   24   25 am   BACKBONE|DICT|INTERRES
    51   24  149 1    
    52   25   26 2    
    53   25   27 1    
    54   27   28 1    
    55   27   29 1    
    56   27  150 1    
    57   28  151 1    
    58   28  152 1    
    59   28  153 1    
    60   29   30 am   BACKBONE|DICT|INTERRES
    61   29  154 1    
    62   30   31 2    
    63   30   32 1    
    64   32   33 1    
    65   32   34 1    
    66   32  155 1    
    67   33  156 1    
    68   33  157 1    
    69   33  158 1    
    70   34   35 am   BACKBONE|DICT|INTERRES
    71   34  159 1    
    72   35   36 2    
    73   35   37 1    
    74   37   38 1    
    75   37   39 1    
    76   37  160 1    
    77   38  161 1    
    78   38  162 1    
    79   38  163 1    
    80   39   40 am   BACKBONE|DICT|INTERRES
    81   39  164 1    
    82   40   41 2    
    83   40   42 1    
    84   42   43 1    
    85   42   44 1    
    86   42  165 1    
    87   43  166 1    
    88   43  167 1    
    89   43  168 1    
    90   44   45 am   BACKBONE|DICT|INTERRES
    91   44  169 1    
    92   45   46 2    
    93   45   47 1    
    94   47   48 1    
    95   47   49 1    
    96   47  170 1    
    97   48  171 1    
    98   48  172 1    
    99   48  173 1    
   100   49   50 am   BACKBONE|DICT|INTERRES
   101   49  174 1    
   102   50   51 2    
   103   50   52 1    
   104   52   53 1    
   105   52   54 1    
   106   52  175 1    
   107   53  176 1    
   108   53  177 1    
   109   53  178 1    
   110   54   55 am   BACKBONE|DICT|INTERRES
   111   54  179 1    
   112   55   56 2    
   113   55   57 1    
   114   57   58 1    
   115   57   59 1    
   116   57  180 1    
   117   58  181 1    
   118   58  182 1    
   119   58  183 1    
   120   59   60 am   BACKBONE|DICT|INTERRES
   121   59  184 1    
   122   60   61 2    
   123   60   62 1    
   124   62   63 1    
   125   62   64 1    
   126   62  185 1    
   127   63  186 1    
   128   63  187 1    
   129   63  188 1    
   130   64   65 am   BACKBONE|DICT|INTERRES
   131   64  189 1    
   132   65   66 2    
   133   67   68 2    
   134   67   69 am   BACKBONE|DICT|INTERRES
   135   69   70 1    
   136   69  190 1    
   137   70   71 1    
   138   70   72 1    
   139   70  191 1    
   140   71  192 1    
   141   71  193 1    
   142   71  194 1    
   143   72   73 2    
   144   72   74 am   BACKBONE|DICT|INTERRES
   145   74   75 1    
   146   74  195 1    
   147   75   76 1    
   148   75   77 1    
   149   75  196 1    
   150   76  197 1    
   151   76  198 1    
   152   76  199 1    
   153   77   78 2    
   154   77   79 am   BACKBONE|DICT|INTERRES
   155   79   80 1    
   156   79  200 1    
   157   80   81 1    
   158   80   82 1    
   159   80  201 1    
   160   81  202 1    
   161   81  203 1    
   162   81  204 1    
   163   82   83 2    
   164   82   84 am   BACKBONE|DICT|INTERRES
   165   84   85 1    
   166   84  205 1    
   167   85   86 1    
   168   85   87 1    
   169   85  206 1    
   170   86  207 1    
   171   86  208 1    
   172   86  209 1    
   173   87   88 2    
   174   87   89 am   BACKBONE|DICT|INTERRES
   175   89   90 1    
   176   89  210 1    
   177   90   91 1    
   178   90   92 1    
   179   90  211 1    
   180   91  212 1    
   181   91  213 1    
   182   91  214 1    
   183   92   93 2    
   184   92   94 am   BACKBONE|DICT|INTERRES
   185   94   95 1    
   186   94  215 1    
   187   95   96 1    
   188   95   97 1    
   189   95  216 1    
   190   96  217 1    
   191   96  218 1    
   192   96  219 1    
   193   97   98 2    
   194   97   99 am   BACKBONE|DICT|INTERRES
   195   99  100 1    
   196   99  220 1    
   197  100  101 1    
   198  100  102 1    
   199  100  221 1    
   200  101  222 1    
   201  101  223 1    
   202  101  224 1    
   203  102  103 2    
   204  102  104 am   BACKBONE|DICT|INTERRES
   205  104  105 1    
   206  104  225 1    
   207  105  106 1    
   208  105  107 1    
   209  105  226 1    
   210  106  227 1    
   211  106  228 1    
   212  106  229 1    
   213  107  108 2    
   214  107  109 am   BACKBONE|DICT|INTERRES
   215  109  110 1    
   216  109  230 1    
   217  110  111 1    
   218  110  112 1    
   219  110  231 1    
   220  111  232 1    
   221  111  233 1    
   222  111  234 1    
   223  112  113 2    
   224  112  114 am   BACKBONE|DICT|INTERRES
   225  114  115 1    
   226  114  235 1    
   227  115  116 1    
   228  115  117 1    
   229  115  236 1    
   230  116  237 1    
   231  116  238 1    
   232  116  239 1    
   233  117  118 2    
   234  117  119 am   BACKBONE|DICT|INTERRES
   235  119  120 1    
   236  119  240 1    
   237  120  121 1    
   238  120  124 1    
   239  120  241 1    
   240  121  122 am   BACKBONE|DICT|INTERRES
   241  121  123 2    
   242  122  242 1    
   243  122  243 1    
   244  124  125 1    
   245  124  244 1    
   246  124  245 1    
   247  125  126 1    
   248  126  246 1    
   249  126  247 1    
@<TRIPOS>SUBSTRUCTURE
     1 UNK         1 GROUP             0       ****    0 ROOT    
