@<TRIPOS>MOLECULE
3R540
247   249    1
SMALL
USER_CHARGES


@<TRIPOS>ATOM
      1 CA         -0.8451  -12.2911  -43.3831 C.3       0 UNK        -0.1800 
      2 C          -0.8841  -12.2793  -44.9052 C.2       0 UNK         0.5000 
      3 O          -0.4332  -11.3133  -45.5193 O.2       0 UNK        -0.5000 
      4 N          -1.4191  -13.3519  -45.5060 N.am      1 UNK        -0.5000 
      5 CA         -1.5305  -13.5842  -46.9524 C.3       1 UNK         0.1400 
      6 C6         -2.1502  -14.9660  -47.2780 C.3       23 UNK        -0.0398 
      7 S7         -3.7680  -15.3122  -46.5074 S.3       23 UNK        -0.2404 
      8 C8         -3.7644  -17.1425  -46.4675 C.3       23 UNK        -0.0205 
      9 C9         -3.4074  -17.7417  -47.8215 C.ar      23 UNK        -0.0193 
     10 C10        -4.3674  -17.8193  -48.8322 C.ar      23 UNK        -0.1150 
     11 C11        -4.0184  -18.2629  -50.1111 C.ar      23 UNK        -0.0193 
     12 C12        -2.6987  -18.6518  -50.3665 C.ar      23 UNK        -0.1150 
     13 C13        -1.7329  -18.6067  -49.3550 C.ar      23 UNK        -0.0193 
     14 C14        -2.0996  -18.1614  -48.0826 C.ar      23 UNK        -0.1150 
     15 C15        -0.2822  -18.9633  -49.6579 C.3       23 UNK        -0.0205 
     16 S16         0.1206  -20.6993  -49.2825 S.3       23 UNK        -0.2404 
     17 C17         0.5599  -20.6151  -47.5096 C.3       23 UNK        -0.0398 
     18 CA          0.4056  -21.9630  -46.7639 C.3       11 UNK         0.1400 
     19 N           0.9148  -21.8854  -45.3926 N.am      11 UNK        -0.5000 
     20 C           1.0266  -22.9279  -44.5559 C.2       10 UNK         0.5000 
     21 O           0.7698  -24.0900  -44.8680 O.2       10 UNK        -0.5000 
     22 CA          1.4392  -22.6134  -43.1076 C.3       10 UNK         0.1400 
     23 CB          2.9547  -22.3866  -43.0057 C.3       10 UNK        -0.1800 
     24 N           0.7225  -21.4619  -42.5572 N.am      10 UNK        -0.5000 
     25 C          -0.6085  -21.4037  -42.3999 C.2       9 UNK         0.5000 
     26 O          -1.3705  -22.3316  -42.6654 O.2       9 UNK        -0.5000 
     27 CA         -1.1979  -20.0731  -41.9066 C.3       9 UNK         0.1400 
     28 CB         -1.0516  -19.9449  -40.3832 C.3       9 UNK        -0.1800 
     29 N          -0.5989  -18.9123  -42.5628 N.am      9 UNK        -0.5000 
     30 C          -0.6666  -18.6558  -43.8769 C.2       8 UNK         0.5000 
     31 O          -1.2625  -19.3624  -44.6896 O.2       8 UNK        -0.5000 
     32 CA          0.1049  -17.4221  -44.3743 C.3       8 UNK         0.1400 
     33 CB         -0.6138  -16.1305  -43.9691 C.3       8 UNK        -0.1800 
     34 N           1.4748  -17.3812  -43.8706 N.am      8 UNK        -0.5000 
     35 C           2.4079  -18.3119  -44.1135 C.2       7 UNK         0.5000 
     36 O           2.2355  -19.2850  -44.8486 O.2       7 UNK        -0.5000 
     37 CA          3.7395  -18.1465  -43.3624 C.3       7 UNK         0.1400 
     38 CB          4.6520  -17.1383  -44.0771 C.3       7 UNK        -0.1800 
     39 N           3.5354  -17.7245  -41.9754 N.am      7 UNK        -0.5000 
     40 C           2.9724  -18.4867  -41.0265 C.2       6 UNK         0.5000 
     41 O           2.5918  -19.6420  -41.2115 O.2       6 UNK        -0.5000 
     42 CA          2.7590  -17.8272  -39.6524 C.3       6 UNK         0.1400 
     43 CB          4.0617  -17.8301  -38.8386 C.3       6 UNK        -0.1800 
     44 N           2.2564  -16.4570  -39.7636 N.am      6 UNK        -0.5000 
     45 C           1.0488  -16.1311  -40.2465 C.2       5 UNK         0.5000 
     46 O           0.2178  -16.9574  -40.6181 O.2       5 UNK        -0.5000 
     47 CA          0.7335  -14.6303  -40.3805 C.3       5 UNK         0.1400 
     48 CB          0.1085  -14.0896  -39.0865 C.3       5 UNK        -0.1800 
     49 N           1.9095  -13.8292  -40.7263 N.am      5 UNK        -0.5000 
     50 C           2.5767  -13.9285  -41.8820 C.2       4 UNK         0.5000 
     51 O           2.2710  -14.7086  -42.7896 O.2       4 UNK        -0.5000 
     52 CA          3.8269  -13.0496  -42.0218 C.3       4 UNK         0.1400 
     53 CB          5.0725  -13.8291  -41.5722 C.3       4 UNK        -0.1800 
     54 N           3.9947  -12.6530  -43.4150 N.am      4 UNK        -0.5000 
     55 C           3.4760  -11.5475  -43.9639 C.2       3 UNK         0.5000 
     56 O           2.8685  -10.6802  -43.3361 O.2       3 UNK        -0.5000 
     57 CA          3.6288  -11.4332  -45.4840 C.3       3 UNK         0.1400 
     58 CB          5.1154  -11.2578  -45.8648 C.3       3 UNK        -0.1800 
     59 N           3.0334  -12.6318  -46.0720 N.am      3 UNK        -0.5000 
     60 C           2.9745  -12.9672  -47.3654 C.2       2 UNK         0.5000 
     61 O           3.4658  -12.3116  -48.2843 O.2       2 UNK        -0.5000 
     62 CA          2.1901  -14.2520  -47.6760 C.3       2 UNK         0.1400 
     63 CB          2.8957  -15.4967  -47.1100 C.3       2 UNK        -0.1800 
     64 N           0.8357  -14.1836  -47.1324 N.am      2 UNK        -0.5000 
     65 C          -0.1718  -13.4878  -47.6802 C.2       1 UNK         0.5000 
     66 O          -0.0734  -12.8225  -48.7118 O.2       1 UNK        -0.5000 
     67 C          -1.0466  -22.4805  -46.7916 C.2       11 UNK         0.5000 
     68 O          -1.3263  -23.4578  -47.4901 O.2       11 UNK        -0.5000 
     69 N          -1.9288  -21.8405  -46.0106 N.am      12 UNK        -0.5000 
     70 CA         -3.3498  -22.1718  -45.9010 C.3       12 UNK         0.1400 
     71 CB         -4.0472  -21.1426  -44.9999 C.3       12 UNK        -0.1800 
     72 C          -3.6120  -23.6065  -45.4080 C.2       12 UNK         0.5000 
     73 O          -4.4992  -24.2748  -45.9393 O.2       12 UNK        -0.5000 
     74 N          -2.8204  -24.0617  -44.4276 N.am      13 UNK        -0.5000 
     75 CA         -2.8556  -25.4246  -43.8999 C.3       13 UNK         0.1400 
     76 CB         -2.0381  -25.4928  -42.6009 C.3       13 UNK        -0.1800 
     77 C          -2.3495  -26.4713  -44.9086 C.2       13 UNK         0.5000 
     78 O          -2.9012  -27.5715  -44.9585 O.2       13 UNK        -0.5000 
     79 N          -1.3130  -26.1208  -45.6836 N.am      14 UNK        -0.5000 
     80 CA         -0.7112  -26.9887  -46.6937 C.3       14 UNK         0.1400 
     81 CB          0.6495  -26.4236  -47.1319 C.3       14 UNK        -0.1800 
     82 C          -1.6293  -27.2146  -47.9063 C.2       14 UNK         0.5000 
     83 O          -1.8685  -28.3674  -48.2701 O.2       14 UNK        -0.5000 
     84 N          -2.1208  -26.1228  -48.5088 N.am      15 UNK        -0.5000 
     85 CA         -2.9424  -26.1647  -49.7252 C.3       15 UNK         0.1400 
     86 CB         -2.0784  -26.5887  -50.9343 C.3       15 UNK        -0.1800 
     87 C          -3.6525  -24.8412  -50.0588 C.2       15 UNK         0.5000 
     88 O          -4.5506  -24.8576  -50.9012 O.2       15 UNK        -0.5000 
     89 N          -3.2150  -23.7199  -49.4637 N.am      16 UNK        -0.5000 
     90 CA         -3.5426  -22.3403  -49.8485 C.3       16 UNK         0.1400 
     91 CB         -5.0402  -22.0321  -49.6384 C.3       16 UNK        -0.1800 
     92 C          -3.0426  -22.0214  -51.2737 C.2       16 UNK         0.5000 
     93 O          -3.7323  -21.3478  -52.0395 O.2       16 UNK        -0.5000 
     94 N          -1.8608  -22.5632  -51.6115 N.am      17 UNK        -0.5000 
     95 CA         -1.1228  -22.5017  -52.8822 C.3       17 UNK         0.1400 
     96 CB         -0.6706  -21.0631  -53.1884 C.3       17 UNK        -0.1800 
     97 C          -1.8170  -23.1622  -54.0959 C.2       17 UNK         0.5000 
     98 O          -1.1208  -23.7305  -54.9386 O.2       17 UNK        -0.5000 
     99 N          -3.1545  -23.1200  -54.1369 N.am      18 UNK        -0.5000 
    100 CA        -4.0626  -23.7053  -55.1253 C.3       18 UNK         0.1400 
    101 CB        -3.9194  -25.2435  -55.1456 C.3       18 UNK        -0.1800 
    102 C         -3.9453  -23.0705  -56.5284 C.2       18 UNK         0.5000 
    103 O         -3.2707  -22.0529  -56.7074 O.2       18 UNK        -0.5000 
    104 N         -4.6526  -23.6669  -57.4991 N.am      19 UNK        -0.5000 
    105 CA        -4.7914  -23.2189  -58.8872 C.3       19 UNK         0.1400 
    106 CB        -3.4555  -23.3775  -59.6497 C.3       19 UNK        -0.1800 
    107 C         -5.4056  -21.8044  -58.9570 C.2       19 UNK         0.5000 
    108 O         -6.5536  -21.6304  -58.5443 O.2       19 UNK        -0.5000 
    109 N         -4.6454  -20.8279  -59.4658 N.am      20 UNK        -0.5000 
    110 CA        -5.0600  -19.4319  -59.6002 C.3       20 UNK         0.1400 
    111 CB        -4.2049  -18.7725  -60.6942 C.3       20 UNK        -0.1800 
    112 C         -4.9700  -18.6231  -58.2901 C.2       20 UNK         0.5000 
    113 O         -5.5420  -17.5318  -58.2303 O.2       20 UNK        -0.5000 
    114 N         -4.2470  -19.1310  -57.2781 N.am      21 UNK        -0.5000 
    115 CA        -4.0176  -18.4416  -56.0063 C.3       21 UNK         0.1400 
    116 CB        -3.0296  -19.2341  -55.1427 C.3       21 UNK        -0.1800 
    117 C         -5.3273  -18.1946  -55.2394 C.2       21 UNK         0.5000 
    118 O         -6.0869  -19.1367  -55.0038 O.2       21 UNK        -0.5000 
    119 N         -5.5615  -16.9242  -54.8916 N.am      22 UNK        -0.5000 
    120 CA        -6.7800  -16.4133  -54.2403 C.3       22 UNK         0.1400 
    121 C         -8.0682  -16.4934  -55.1201 C.2       22 UNK         0.5000 
    122 N         -7.9727  -16.7165  -56.4267 N.am      22 UNK        -0.7600 
    123 O         -9.1759  -16.3138  -54.6208 O.2       22 UNK        -0.5000 
    124 C124       -6.9919  -16.9779  -52.8063 C.3       23 UNK        -0.0398 
    125 S125       -5.5850  -16.6231  -51.6953 S.3       23 UNK        -0.2404 
    126 C126       -5.0703  -18.3011  -51.2114 C.3       23 UNK        -0.0205 
    127 H127       -1.3811  -11.4289  -42.9867 H         1 UNK         0.0600 
    128 H128        0.1867  -12.2408  -43.0355 H         1 UNK         0.0600 
    129 H129       -1.2993  -13.1923  -42.9711 H         1 UNK         0.0600 
    130 H130       -1.8270  -14.0736  -44.9307 H         1 UNK         0.3000 
    131 H131       -2.1830  -12.8077  -47.3563 H         1 UNK         0.0600 
    132 H132       -2.2739  -15.0790  -48.3573 H         1 UNK         0.0800 
    133 H133       -1.4621  -15.7516  -46.9658 H         1 UNK         0.0800 
    134 H134       -3.0680  -17.4908  -45.7044 H         1 UNK         0.0800 
    135 H135       -4.7500  -17.4940  -46.1592 H         1 UNK         0.0800 
    136 H136       -5.3789  -17.4918  -48.6366 H         1 UNK         0.1150 
    137 H137       -2.4207  -18.9795  -51.3581 H         1 UNK         0.1150 
    138 H138       -1.3564  -18.0926  -47.3034 H         1 UNK         0.1150 
    139 H139       -0.0784  -18.7858  -50.7148 H         1 UNK         0.0800 
    140 H140        0.3915  -18.3015  -49.1111 H         1 UNK         0.0800 
    141 H141       -0.0321  -19.8460  -47.0180 H         1 UNK         0.0800 
    142 H142        1.5954  -20.2782  -47.4450 H         1 UNK         0.0800 
    143 H143        1.0196  -22.7006  -47.2852 H         1 UNK         0.0600 
    144 H144        1.1781  -20.9631  -45.0586 H         1 UNK         0.3000 
    145 H145        1.1858  -23.4823  -42.4966 H         1 UNK         0.0600 
    146 H146        3.2642  -22.2579  -41.9685 H         1 UNK         0.0600 
    147 H147        3.5050  -23.2392  -43.4055 H         1 UNK         0.0600 
    148 H148        3.2691  -21.5027  -43.5606 H         1 UNK         0.0600 
    149 H149        1.2885  -20.6700  -42.2669 H         1 UNK         0.3000 
    150 H150       -2.2633  -20.0740  -42.1452 H         1 UNK         0.0600 
    151 H151       -1.4944  -20.8017  -39.8739 H         1 UNK         0.0600 
    152 H152       -1.5553  -19.0515  -40.0138 H         1 UNK         0.0600 
    153 H153       -0.0051  -19.8869  -40.0824 H         1 UNK         0.0600 
    154 H154       -0.1211  -18.2513  -41.9558 H         1 UNK         0.3000 
    155 H155        0.1542  -17.4656  -45.4639 H         1 UNK         0.0600 
    156 H156       -0.7741  -16.0730  -42.8936 H         1 UNK         0.0600 
    157 H157       -1.5921  -16.0628  -44.4420 H         1 UNK         0.0600 
    158 H158       -0.0300  -15.2589  -44.2585 H         1 UNK         0.0600 
    159 H159        1.7203  -16.5914  -43.2826 H         1 UNK         0.3000 
    160 H160        4.2412  -19.1163  -43.3553 H         1 UNK         0.0600 
    161 H161        4.2270  -16.1347  -44.0751 H         1 UNK         0.0600 
    162 H162        4.8121  -17.4254  -45.1173 H         1 UNK         0.0600 
    163 H163        5.6308  -17.0875  -43.6002 H         1 UNK         0.0600 
    164 H164        3.7820  -16.7737  -41.7480 H         1 UNK         0.3000 
    165 H165        2.0171  -18.4183  -39.1110 H         1 UNK         0.0600 
    166 H166        3.8996  -17.4375  -37.8346 H         1 UNK         0.0600 
    167 H167        4.4517  -18.8431  -38.7311 H         1 UNK         0.0600 
    168 H168        4.8376  -17.2281  -39.3134 H         1 UNK         0.0600 
    169 H169        2.8763  -15.7155  -39.4738 H         1 UNK         0.3000 
    170 H170        0.0023  -14.5169  -41.1830 H         1 UNK         0.0600 
    171 H171       -0.7831  -14.6576  -38.8173 H         1 UNK         0.0600 
    172 H172        0.8022  -14.1495  -38.2470 H         1 UNK         0.0600 
    173 H173       -0.1936  -13.0483  -39.2001 H         1 UNK         0.0600 
    174 H174        2.2257  -13.1699  -40.0295 H         1 UNK         0.3000 
    175 H175        3.7202  -12.1641  -41.3914 H         1 UNK         0.0600 
    176 H176        5.2258  -14.7298  -42.1674 H         1 UNK         0.0600 
    177 H177        5.9700  -13.2164  -41.6592 H         1 UNK         0.0600 
    178 H178        4.9899  -14.1343  -40.5283 H         1 UNK         0.0600 
    179 H179        4.4481  -13.3248  -44.0164 H         1 UNK         0.3000 
    180 H180        3.0637  -10.5627  -45.8227 H         1 UNK         0.0600 
    181 H181        5.6902  -12.1682  -45.6923 H         1 UNK         0.0600 
    182 H182        5.5769  -10.4617  -45.2789 H         1 UNK         0.0600 
    183 H183        5.2324  -10.9828  -46.9124 H         1 UNK         0.0600 
    184 H184        2.5571  -13.2268  -45.4084 H         1 UNK         0.3000 
    185 H185        2.1323  -14.3601  -48.7614 H         1 UNK         0.0600 
    186 H186        3.9246  -15.5600  -47.4663 H         1 UNK         0.0600 
    187 H187        2.9240  -15.4880  -46.0203 H         1 UNK         0.0600 
    188 H188        2.3884  -16.4108  -47.4196 H         1 UNK         0.0600 
    189 H189        0.6670  -14.6798  -46.2718 H         1 UNK         0.3000 
    190 H190       -1.6145  -21.0389  -45.4683 H         1 UNK         0.3000 
    191 H191       -3.7807  -22.0858  -46.8982 H         1 UNK         0.0600 
    192 H192       -3.9430  -20.1346  -45.4018 H         1 UNK         0.0600 
    193 H193       -5.1144  -21.3523  -44.9186 H         1 UNK         0.0600 
    194 H194       -3.6320  -21.1456  -43.9918 H         1 UNK         0.0600 
    195 H195       -2.1541  -23.4255  -43.9964 H         1 UNK         0.3000 
    196 H196       -3.8928  -25.6678  -43.6603 H         1 UNK         0.0600 
    197 H197       -2.0532  -26.4990  -42.1802 H         1 UNK         0.0600 
    198 H198       -2.4424  -24.8187  -41.8456 H         1 UNK         0.0600 
    199 H199       -0.9951  -25.2206  -42.7683 H         1 UNK         0.0600 
    200 H200       -0.8843  -25.2110  -45.5531 H         1 UNK         0.3000 
    201 H201       -0.5290  -27.9620  -46.2331 H         1 UNK         0.0600 
    202 H202        1.3454  -26.3841  -46.2939 H         1 UNK         0.0600 
    203 H203        0.5607  -25.4163  -47.5390 H         1 UNK         0.0600 
    204 H204        1.1041  -27.0499  -47.9005 H         1 UNK         0.0600 
    205 H205       -1.8913  -25.2149  -48.1182 H         1 UNK         0.3000 
    206 H206       -3.7297  -26.9071  -49.5789 H         1 UNK         0.0600 
    207 H207       -1.6861  -27.5987  -50.8199 H         1 UNK         0.0600 
    208 H208       -2.6576  -26.5807  -51.8588 H         1 UNK         0.0600 
    209 H209       -1.2320  -25.9154  -51.0742 H         1 UNK         0.0600 
    210 H210       -2.4839  -23.7820  -48.7594 H         1 UNK         0.3000 
    211 H211       -2.9774  -21.6898  -49.1798 H         1 UNK         0.0600 
    212 H212       -5.6673  -22.5272  -50.3801 H         1 UNK         0.0600 
    213 H213       -5.2278  -20.9618  -49.7185 H         1 UNK         0.0600 
    214 H214       -5.3786  -22.3479  -48.6521 H         1 UNK         0.0600 
    215 H215       -1.4068  -23.1148  -50.8982 H         1 UNK         0.3000 
    216 H216       -0.2175  -23.0870  -52.7137 H         1 UNK         0.0600 
    217 H217       -0.1888  -20.9977  -54.1647 H         1 UNK         0.0600 
    218 H218        0.0490  -20.7161  -52.4475 H         1 UNK         0.0600 
    219 H219       -1.5058  -20.3673  -53.1850 H         1 UNK         0.0600 
    220 H220       -3.5990  -22.5530  -53.4190 H         1 UNK         0.3000 
    221 H221       -5.0666  -23.4701  -54.7696 H         1 UNK         0.0600 
    222 H222       -2.9858  -25.5579  -55.6131 H         1 UNK         0.0600 
    223 H223       -3.9406  -25.6522  -54.1348 H         1 UNK         0.0600 
    224 H224       -4.7353  -25.7147  -55.6940 H         1 UNK         0.0600 
    225 H225       -5.2082  -24.4735  -57.2522 H         1 UNK         0.3000 
    226 H226       -5.5156  -23.8859  -59.3572 H         1 UNK         0.0600 
    227 H227       -3.1148  -24.4125  -59.6200 H         1 UNK         0.0600 
    228 H228       -3.5685  -23.1100  -60.7011 H         1 UNK         0.0600 
    229 H229       -2.6596  -22.7605  -59.2316 H         1 UNK         0.0600 
    230 H230       -3.7047  -21.0518  -59.7567 H         1 UNK         0.3000 
    231 H231       -6.1021  -19.4056  -59.9258 H         1 UNK         0.0600 
    232 H232       -3.1465  -18.7693  -60.4303 H         1 UNK         0.0600 
    233 H233       -4.5058  -17.7365  -60.8560 H         1 UNK         0.0600 
    234 H234       -4.3128  -19.2920  -61.6465 H         1 UNK         0.0600 
    235 H235       -3.8583  -20.0631  -57.3634 H         1 UNK         0.3000 
    236 H236       -3.5549  -17.4807  -56.2412 H         1 UNK         0.0600 
    237 H237       -2.7692  -18.6696  -54.2466 H         1 UNK         0.0600 
    238 H238       -3.4535  -20.1842  -54.8154 H         1 UNK         0.0600 
    239 H239       -2.1049  -19.4439  -55.6803 H         1 UNK         0.0600 
    240 H240       -4.8829  -16.2199  -55.1427 H         1 UNK         0.3000 
    241 H241       -6.6093  -15.3419  -54.1308 H         1 UNK         0.0600 
    242 H242       -8.8125  -16.7510  -56.9827 H         1 UNK         0.3800 
    243 H243       -7.0752  -16.8752  -56.8688 H         1 UNK         0.3800 
    244 H244       -7.8751  -16.5303  -52.3480 H         1 UNK         0.0800 
    245 H245       -7.1858  -18.0506  -52.8399 H         1 UNK         0.0800 
    246 H246       -4.6965  -18.8280  -52.0908 H         1 UNK         0.0800 
    247 H247       -5.9364  -18.8610  -50.8567 H         1 UNK         0.0800 
@<TRIPOS>BOND
     1    1    2 1    
     2    1  127 1    
     3    1  128 1    
     4    1  129 1    
     5    2    3 2    
     6    2    4 am   BACKBONE|DICT|INTERRES
     7    4    5 1    
     8    4  130 1    
     9    5    6 1    
    10    5   65 1    
    11    5  131 1    
    12    6    7 1    
    13    6  132 1    
    14    6  133 1    
    15    7    8 1    
    16    8    9 1    
    17    8  134 1    
    18    8  135 1    
    19    9   10 ar   
    20    9   14 ar   
    21   10   11 ar   
    22   10  136 1    
    23   11   12 ar   
    24   11  126 1    
    25   12   13 ar   
    26   12  137 1    
    27   13   14 ar   
    28   13   15 1    
    29   14  138 1    
    30   15   16 1    
    31   15  139 1    
    32   15  140 1    
    33   16   17 1    
    34   17   18 1    
    35   17  141 1    
    36   17  142 1    
    37   18   19 1    
    38   18   67 1    
    39   18  143 1    
    40   19   20 am   BACKBONE|DICT|INTERRES
    41   19  144 1    
    42   20   21 2    
    43   20   22 1    
    44   22   23 1    
    45   22   24 1    
    46   22  145 1    
    47   23  146 1    
    48   23  147 1    
    49   23  148 1    
    50   24   25 am   BACKBONE|DICT|INTERRES
    51   24  149 1    
    52   25   26 2    
    53   25   27 1    
    54   27   28 1    
    55   27   29 1    
    56   27  150 1    
    57   28  151 1    
    58   28  152 1    
    59   28  153 1    
    60   29   30 am   BACKBONE|DICT|INTERRES
    61   29  154 1    
    62   30   31 2    
    63   30   32 1    
    64   32   33 1    
    65   32   34 1    
    66   32  155 1    
    67   33  156 1    
    68   33  157 1    
    69   33  158 1    
    70   34   35 am   BACKBONE|DICT|INTERRES
    71   34  159 1    
    72   35   36 2    
    73   35   37 1    
    74   37   38 1    
    75   37   39 1    
    76   37  160 1    
    77   38  161 1    
    78   38  162 1    
    79   38  163 1    
    80   39   40 am   BACKBONE|DICT|INTERRES
    81   39  164 1    
    82   40   41 2    
    83   40   42 1    
    84   42   43 1    
    85   42   44 1    
    86   42  165 1    
    87   43  166 1    
    88   43  167 1    
    89   43  168 1    
    90   44   45 am   BACKBONE|DICT|INTERRES
    91   44  169 1    
    92   45   46 2    
    93   45   47 1    
    94   47   48 1    
    95   47   49 1    
    96   47  170 1    
    97   48  171 1    
    98   48  172 1    
    99   48  173 1    
   100   49   50 am   BACKBONE|DICT|INTERRES
   101   49  174 1    
   102   50   51 2    
   103   50   52 1    
   104   52   53 1    
   105   52   54 1    
   106   52  175 1    
   107   53  176 1    
   108   53  177 1    
   109   53  178 1    
   110   54   55 am   BACKBONE|DICT|INTERRES
   111   54  179 1    
   112   55   56 2    
   113   55   57 1    
   114   57   58 1    
   115   57   59 1    
   116   57  180 1    
   117   58  181 1    
   118   58  182 1    
   119   58  183 1    
   120   59   60 am   BACKBONE|DICT|INTERRES
   121   59  184 1    
   122   60   61 2    
   123   60   62 1    
   124   62   63 1    
   125   62   64 1    
   126   62  185 1    
   127   63  186 1    
   128   63  187 1    
   129   63  188 1    
   130   64   65 am   BACKBONE|DICT|INTERRES
   131   64  189 1    
   132   65   66 2    
   133   67   68 2    
   134   67   69 am   BACKBONE|DICT|INTERRES
   135   69   70 1    
   136   69  190 1    
   137   70   71 1    
   138   70   72 1    
   139   70  191 1    
   140   71  192 1    
   141   71  193 1    
   142   71  194 1    
   143   72   73 2    
   144   72   74 am   BACKBONE|DICT|INTERRES
   145   74   75 1    
   146   74  195 1    
   147   75   76 1    
   148   75   77 1    
   149   75  196 1    
   150   76  197 1    
   151   76  198 1    
   152   76  199 1    
   153   77   78 2    
   154   77   79 am   BACKBONE|DICT|INTERRES
   155   79   80 1    
   156   79  200 1    
   157   80   81 1    
   158   80   82 1    
   159   80  201 1    
   160   81  202 1    
   161   81  203 1    
   162   81  204 1    
   163   82   83 2    
   164   82   84 am   BACKBONE|DICT|INTERRES
   165   84   85 1    
   166   84  205 1    
   167   85   86 1    
   168   85   87 1    
   169   85  206 1    
   170   86  207 1    
   171   86  208 1    
   172   86  209 1    
   173   87   88 2    
   174   87   89 am   BACKBONE|DICT|INTERRES
   175   89   90 1    
   176   89  210 1    
   177   90   91 1    
   178   90   92 1    
   179   90  211 1    
   180   91  212 1    
   181   91  213 1    
   182   91  214 1    
   183   92   93 2    
   184   92   94 am   BACKBONE|DICT|INTERRES
   185   94   95 1    
   186   94  215 1    
   187   95   96 1    
   188   95   97 1    
   189   95  216 1    
   190   96  217 1    
   191   96  218 1    
   192   96  219 1    
   193   97   98 2    
   194   97   99 am   BACKBONE|DICT|INTERRES
   195   99  100 1    
   196   99  220 1    
   197  100  101 1    
   198  100  102 1    
   199  100  221 1    
   200  101  222 1    
   201  101  223 1    
   202  101  224 1    
   203  102  103 2    
   204  102  104 am   BACKBONE|DICT|INTERRES
   205  104  105 1    
   206  104  225 1    
   207  105  106 1    
   208  105  107 1    
   209  105  226 1    
   210  106  227 1    
   211  106  228 1    
   212  106  229 1    
   213  107  108 2    
   214  107  109 am   BACKBONE|DICT|INTERRES
   215  109  110 1    
   216  109  230 1    
   217  110  111 1    
   218  110  112 1    
   219  110  231 1    
   220  111  232 1    
   221  111  233 1    
   222  111  234 1    
   223  112  113 2    
   224  112  114 am   BACKBONE|DICT|INTERRES
   225  114  115 1    
   226  114  235 1    
   227  115  116 1    
   228  115  117 1    
   229  115  236 1    
   230  116  237 1    
   231  116  238 1    
   232  116  239 1    
   233  117  118 2    
   234  117  119 am   BACKBONE|DICT|INTERRES
   235  119  120 1    
   236  119  240 1    
   237  120  121 1    
   238  120  124 1    
   239  120  241 1    
   240  121  122 am   BACKBONE|DICT|INTERRES
   241  121  123 2    
   242  122  242 1    
   243  122  243 1    
   244  124  125 1    
   245  124  244 1    
   246  124  245 1    
   247  125  126 1    
   248  126  246 1    
   249  126  247 1    
@<TRIPOS>SUBSTRUCTURE
     1 UNK         1 GROUP             0       ****    0 ROOT    
