@<TRIPOS>MOLECULE
3R540
247   249    1
SMALL
USER_CHARGES


@<TRIPOS>ATOM
      1 CA         -0.9814  -11.5778  -50.2521 C.3       0 UNK        -0.1800 
      2 C          -1.8358  -11.5043  -48.9948 C.2       0 UNK         0.5000 
      3 O          -2.0701  -10.4120  -48.4792 O.2       0 UNK        -0.5000 
      4 N          -2.2736  -12.6630  -48.4851 N.am      1 UNK        -0.5000 
      5 CA         -3.1355  -12.8779  -47.3071 C.3       1 UNK         0.1400 
      6 C6         -4.5142  -12.1606  -47.3659 C.3       23 UNK        -0.0398 
      7 S7         -5.4414  -12.4034  -48.9206 S.3       23 UNK        -0.2404 
      8 C8         -6.4329  -13.8952  -48.5583 C.3       23 UNK        -0.0205 
      9 C9         -5.6247  -15.1905  -48.5610 C.ar      23 UNK        -0.0193 
     10 C10        -4.6186  -15.4074  -49.5090 C.ar      23 UNK        -0.1150 
     11 C11        -3.8644  -16.5847  -49.5039 C.ar      23 UNK        -0.0193 
     12 C12        -4.1666  -17.5749  -48.5681 C.ar      23 UNK        -0.1150 
     13 C13        -5.1919  -17.3944  -47.6372 C.ar      23 UNK        -0.0193 
     14 C14        -5.9096  -16.1943  -47.6292 C.ar      23 UNK        -0.1150 
     15 C15        -5.5165  -18.5090  -46.6552 C.3       23 UNK        -0.0205 
     16 S16        -4.1246  -18.7912  -45.5259 S.3       23 UNK        -0.2404 
     17 C17        -4.6259  -20.3135  -44.6668 C.3       23 UNK        -0.0398 
     18 CA         -4.1201  -21.6039  -45.3596 C.3       11 UNK         0.1400 
     19 N          -2.6605  -21.6263  -45.5447 N.am      11 UNK        -0.5000 
     20 C          -2.0126  -22.4722  -46.3593 C.2       10 UNK         0.5000 
     21 O          -2.6009  -23.2321  -47.1297 O.2       10 UNK        -0.5000 
     22 CA         -0.4664  -22.5012  -46.3198 C.3       10 UNK         0.1400 
     23 CB          0.1366  -22.5487  -47.7343 C.3       10 UNK        -0.1800 
     24 N           0.1547  -21.3942  -45.5936 N.am      10 UNK        -0.5000 
     25 C           0.2096  -21.2352  -44.2644 C.2       9 UNK         0.5000 
     26 O          -0.2959  -22.0204  -43.4624 O.2       9 UNK        -0.5000 
     27 CA          0.8954  -19.9489  -43.7615 C.3       9 UNK         0.1400 
     28 CB          2.4007  -20.1671  -43.5471 C.3       9 UNK        -0.1800 
     29 N           0.6833  -18.8468  -44.7036 N.am      9 UNK        -0.5000 
     30 C          -0.4668  -18.1641  -44.7918 C.2       8 UNK         0.5000 
     31 O          -1.3576  -18.2537  -43.9483 O.2       8 UNK        -0.5000 
     32 CA         -0.6770  -17.2570  -46.0208 C.3       8 UNK         0.1400 
     33 CB         -0.5176  -15.7840  -45.6399 C.3       8 UNK        -0.1800 
     34 N           0.2454  -17.5668  -47.1127 N.am      8 UNK        -0.5000 
     35 C           0.0173  -18.4877  -48.0597 C.2       7 UNK         0.5000 
     36 O          -1.0145  -19.1515  -48.1306 O.2       7 UNK        -0.5000 
     37 CA          1.1467  -18.7443  -49.0786 C.3       7 UNK         0.1400 
     38 CB          0.9509  -17.8992  -50.3427 C.3       7 UNK        -0.1800 
     39 N           2.4789  -18.4701  -48.5432 N.am      7 UNK        -0.5000 
     40 C           3.0606  -19.1528  -47.5492 C.2       6 UNK         0.5000 
     41 O           2.5430  -20.1238  -46.9993 O.2       6 UNK        -0.5000 
     42 CA          4.4091  -18.6059  -47.0413 C.3       6 UNK         0.1400 
     43 CB          5.5739  -19.2444  -47.8115 C.3       6 UNK        -0.1800 
     44 N           4.5029  -17.1432  -47.1368 N.am      6 UNK        -0.5000 
     45 C           3.7151  -16.2931  -46.4642 C.2       5 UNK         0.5000 
     46 O           2.8338  -16.6600  -45.6850 O.2       5 UNK        -0.5000 
     47 CA          3.8799  -14.7967  -46.7760 C.3       5 UNK         0.1400 
     48 CB          2.7977  -14.3421  -47.7693 C.3       5 UNK        -0.1800 
     49 N           3.7753  -13.9978  -45.5575 N.am      5 UNK        -0.5000 
     50 C           4.7633  -13.8578  -44.6615 C.2       4 UNK         0.5000 
     51 O           5.8916  -14.3280  -44.8168 O.2       4 UNK        -0.5000 
     52 CA          4.4551  -13.0582  -43.3777 C.3       4 UNK         0.1400 
     53 CB          4.9071  -11.5980  -43.5327 C.3       4 UNK        -0.1800 
     54 N           3.0395  -13.0774  -43.0113 N.am      4 UNK        -0.5000 
     55 C           2.3714  -14.1598  -42.5927 C.2       3 UNK         0.5000 
     56 O           2.9158  -15.2341  -42.3362 O.2       3 UNK        -0.5000 
     57 CA          0.8410  -14.0352  -42.4316 C.3       3 UNK         0.1400 
     58 CB          0.4547  -14.0771  -40.9445 C.3       3 UNK        -0.1800 
     59 N           0.2130  -12.8539  -43.0413 N.am      3 UNK        -0.5000 
     60 C           0.2467  -12.5041  -44.3344 C.2       2 UNK         0.5000 
     61 O           0.9675  -13.0389  -45.1784 O.2       2 UNK        -0.5000 
     62 CA         -0.6593  -11.3337  -44.7511 C.3       2 UNK         0.1400 
     63 CB          0.1809  -10.0885  -45.0723 C.3       2 UNK        -0.1800 
     64 N          -1.4650  -11.6811  -45.9200 N.am      2 UNK        -0.5000 
     65 C          -2.4479  -12.5905  -45.9504 C.2       1 UNK         0.5000 
     66 O          -2.8284  -13.2002  -44.9503 O.2       1 UNK        -0.5000 
     67 C          -4.6269  -22.8378  -44.5779 C.2       11 UNK         0.5000 
     68 O          -5.8120  -23.1622  -44.6680 O.2       11 UNK        -0.5000 
     69 N          -3.7354  -23.4878  -43.8133 N.am      12 UNK        -0.5000 
     70 CA         -3.9918  -24.7241  -43.0747 C.3       12 UNK         0.1400 
     71 CB         -2.7559  -25.0503  -42.2219 C.3       12 UNK        -0.1800 
     72 C          -4.3194  -25.9032  -44.0101 C.2       12 UNK         0.5000 
     73 O          -3.8115  -25.9546  -45.1309 O.2       12 UNK        -0.5000 
     74 N          -5.1221  -26.8530  -43.5104 N.am      13 UNK        -0.5000 
     75 CA         -5.6575  -28.0087  -44.2448 C.3       13 UNK         0.1400 
     76 CB         -6.6400  -28.7573  -43.3299 C.3       13 UNK        -0.1800 
     77 C          -4.6074  -28.9844  -44.8197 C.2       13 UNK         0.5000 
     78 O          -4.9468  -29.7983  -45.6797 O.2       13 UNK        -0.5000 
     79 N          -3.3561  -28.8844  -44.3529 N.am      14 UNK        -0.5000 
     80 CA         -2.1958  -29.5935  -44.8933 C.3       14 UNK         0.1400 
     81 CB         -1.0398  -29.4753  -43.8873 C.3       14 UNK        -0.1800 
     82 C          -1.7533  -29.0865  -46.2844 C.2       14 UNK         0.5000 
     83 O          -1.0031  -29.7891  -46.9637 O.2       14 UNK        -0.5000 
     84 N          -2.2050  -27.8903  -46.6816 N.am      15 UNK        -0.5000 
     85 CA         -1.9164  -27.2490  -47.9604 C.3       15 UNK         0.1400 
     86 CB         -0.7681  -26.2432  -47.7599 C.3       15 UNK        -0.1800 
     87 C          -3.1986  -26.6078  -48.5288 C.2       15 UNK         0.5000 
     88 O          -4.3019  -26.9325  -48.0816 O.2       15 UNK        -0.5000 
     89 N          -3.0415  -25.7425  -49.5377 N.am      16 UNK        -0.5000 
     90 CA         -4.1361  -25.0680  -50.2332 C.3       16 UNK         0.1400 
     91 CB         -4.7048  -25.9876  -51.3329 C.3       16 UNK        -0.1800 
     92 C          -3.6585  -23.7109  -50.7733 C.2       16 UNK         0.5000 
     93 O          -3.6604  -23.4908  -51.9863 O.2       16 UNK        -0.5000 
     94 N          -3.2082  -22.8323  -49.8650 N.am      17 UNK        -0.5000 
     95 CA         -2.7904  -21.4431  -50.1164 C.3       17 UNK         0.1400 
     96 CB         -4.0061  -20.5938  -50.5437 C.3       17 UNK        -0.1800 
     97 C          -1.6047  -21.3159  -51.0996 C.2       17 UNK         0.5000 
     98 O          -1.5161  -20.3364  -51.8436 O.2       17 UNK        -0.5000 
     99 N          -0.7483  -22.3497  -51.1218 N.am      18 UNK        -0.5000 
    100 CA         0.3509  -22.5727  -52.0686 C.3       18 UNK         0.1400 
    101 CB         1.4913  -21.5632  -51.8250 C.3       18 UNK        -0.1800 
    102 C         -0.1294  -22.6249  -53.5382 C.2       18 UNK         0.5000 
    103 O          0.5479  -22.1126  -54.4288 O.2       18 UNK        -0.5000 
    104 N         -1.3076  -23.2343  -53.7490 N.am      19 UNK        -0.5000 
    105 CA        -2.0746  -23.2940  -54.9985 C.3       19 UNK         0.1400 
    106 CB        -1.2919  -24.0101  -56.1201 C.3       19 UNK        -0.1800 
    107 C         -2.6158  -21.9074  -55.4050 C.2       19 UNK         0.5000 
    108 O         -2.5799  -21.5459  -56.5825 O.2       19 UNK        -0.5000 
    109 N         -3.1076  -21.1643  -54.4010 N.am      20 UNK        -0.5000 
    110 CA        -3.6448  -19.8007  -54.4709 C.3       20 UNK         0.1400 
    111 CB        -4.9815  -19.7814  -55.2400 C.3       20 UNK        -0.1800 
    112 C         -2.6181  -18.7822  -55.0094 C.2       20 UNK         0.5000 
    113 O         -2.9435  -17.9606  -55.8702 O.2       20 UNK        -0.5000 
    114 N         -1.3874  -18.8497  -54.4808 N.am      21 UNK        -0.5000 
    115 CA        -0.2387  -18.0455  -54.9174 C.3       21 UNK         0.1400 
    116 CB         1.0316  -18.5591  -54.2283 C.3       21 UNK        -0.1800 
    117 C         -0.3940  -16.5281  -54.6917 C.2       21 UNK         0.5000 
    118 O          0.3025  -15.7467  -55.3411 O.2       21 UNK        -0.5000 
    119 N         -1.3097  -16.1399  -53.7963 N.am      22 UNK        -0.5000 
    120 CA        -1.7089  -14.7465  -53.5433 C.3       22 UNK         0.1400 
    121 C         -2.4930  -14.0825  -54.7158 C.2       22 UNK         0.5000 
    122 N         -3.0060  -14.8303  -55.6880 N.am      22 UNK        -0.7600 
    123 O         -2.6377  -12.8636  -54.7423 O.2       22 UNK        -0.5000 
    124 C124       -2.5085  -14.6011  -52.2230 C.3       23 UNK        -0.0398 
    125 S125       -1.6802  -15.3623  -50.7819 S.3       23 UNK        -0.2404 
    126 C126       -2.7383  -16.8232  -50.5043 C.3       23 UNK        -0.0205 
    127 H127       -0.1291  -10.9035  -50.1686 H         1 UNK         0.0600 
    128 H128       -1.5678  -11.2821  -51.1219 H         1 UNK         0.0600 
    129 H129       -0.5961  -12.5829  -50.4212 H         1 UNK         0.0600 
    130 H130       -2.0160  -13.5154  -48.9645 H         1 UNK         0.3000 
    131 H131       -3.3323  -13.9509  -47.3050 H         1 UNK         0.0600 
    132 H132       -5.1433  -12.4838  -46.5346 H         1 UNK         0.0800 
    133 H133       -4.3833  -11.0852  -47.2350 H         1 UNK         0.0800 
    134 H134       -6.9453  -13.7599  -47.6047 H         1 UNK         0.0800 
    135 H135       -7.2126  -13.9820  -49.3158 H         1 UNK         0.0800 
    136 H136       -4.4130  -14.6420  -50.2406 H         1 UNK         0.1150 
    137 H137       -3.5984  -18.4945  -48.5536 H         1 UNK         0.1150 
    138 H138       -6.6983  -16.0468  -46.9048 H         1 UNK         0.1150 
    139 H139       -6.4114  -18.2745  -46.0769 H         1 UNK         0.0800 
    140 H140       -5.7284  -19.4234  -47.2112 H         1 UNK         0.0800 
    141 H141       -5.7141  -20.3204  -44.5791 H         1 UNK         0.0800 
    142 H142       -4.2402  -20.2549  -43.6473 H         1 UNK         0.0800 
    143 H143       -4.5784  -21.6485  -46.3501 H         1 UNK         0.0600 
    144 H144       -2.1223  -21.0003  -44.9638 H         1 UNK         0.3000 
    145 H145       -0.1913  -23.4272  -45.8113 H         1 UNK         0.0600 
    146 H146        1.2219  -22.6457  -47.6973 H         1 UNK         0.0600 
    147 H147       -0.2413  -23.3970  -48.3029 H         1 UNK         0.0600 
    148 H148       -0.0968  -21.6475  -48.2981 H         1 UNK         0.0600 
    149 H149        0.6417  -20.7147  -46.1647 H         1 UNK         0.3000 
    150 H150        0.4558  -19.6853  -42.7972 H         1 UNK         0.0600 
    151 H151        2.8891  -19.2492  -43.2189 H         1 UNK         0.0600 
    152 H152        2.5754  -20.9219  -42.7795 H         1 UNK         0.0600 
    153 H153        2.8996  -20.5063  -44.4542 H         1 UNK         0.0600 
    154 H154        1.4015  -18.6867  -45.3961 H         1 UNK         0.3000 
    155 H155       -1.7014  -17.3976  -46.3698 H         1 UNK         0.0600 
    156 H156        0.4810  -15.5841  -45.2545 H         1 UNK         0.0600 
    157 H157       -1.2321  -15.5007  -44.8664 H         1 UNK         0.0600 
    158 H158       -0.6859  -15.1311  -46.4963 H         1 UNK         0.0600 
    159 H159        1.1415  -17.1000  -47.0815 H         1 UNK         0.3000 
    160 H160        1.1076  -19.7977  -49.3606 H         1 UNK         0.0600 
    161 H161        0.8942  -16.8349  -50.1119 H         1 UNK         0.0600 
    162 H162        0.0341  -18.1791  -50.8612 H         1 UNK         0.0600 
    163 H163        1.7749  -18.0442  -51.0407 H         1 UNK         0.0600 
    164 H164        2.9743  -17.6848  -48.9382 H         1 UNK         0.3000 
    165 H165        4.5009  -18.8819  -45.9886 H         1 UNK         0.0600 
    166 H166        6.5353  -18.9248  -47.4089 H         1 UNK         0.0600 
    167 H167        5.5388  -20.3324  -47.7397 H         1 UNK         0.0600 
    168 H168        5.5490  -18.9843  -48.8705 H         1 UNK         0.0600 
    169 H169        5.2040  -16.7757  -47.7643 H         1 UNK         0.3000 
    170 H170        4.8587  -14.6275  -47.2298 H         1 UNK         0.0600 
    171 H171        2.8711  -14.8904  -48.7092 H         1 UNK         0.0600 
    172 H172        1.7935  -14.5016  -47.3742 H         1 UNK         0.0600 
    173 H173        2.8974  -13.2819  -48.0025 H         1 UNK         0.0600 
    174 H174        2.8534  -13.6293  -45.3414 H         1 UNK         0.3000 
    175 H175        5.0248  -13.5092  -42.5625 H         1 UNK         0.0600 
    176 H176        4.3565  -11.0888  -44.3249 H         1 UNK         0.0600 
    177 H177        4.7613  -11.0390  -42.6082 H         1 UNK         0.0600 
    178 H178        5.9678  -11.5418  -43.7814 H         1 UNK         0.0600 
    179 H179        2.5089  -12.2410  -43.2035 H         1 UNK         0.3000 
    180 H180        0.4075  -14.9131  -42.9133 H         1 UNK         0.0600 
    181 H181        0.8294  -13.2042  -40.4087 H         1 UNK         0.0600 
    182 H182        0.8636  -14.9627  -40.4559 H         1 UNK         0.0600 
    183 H183       -0.6275  -14.1122  -40.8177 H         1 UNK         0.0600 
    184 H184       -0.3890  -12.3251  -42.4268 H         1 UNK         0.3000 
    185 H185       -1.3379  -11.0919  -43.9306 H         1 UNK         0.0600 
    186 H186        0.7807   -9.7885  -44.2121 H         1 UNK         0.0600 
    187 H187        0.8643  -10.2675  -45.9036 H         1 UNK         0.0600 
    188 H188       -0.4535   -9.2424  -45.3372 H         1 UNK         0.0600 
    189 H189       -1.2502  -11.1989  -46.7843 H         1 UNK         0.3000 
    190 H190       -2.7816  -23.1559  -43.8114 H         1 UNK         0.3000 
    191 H191       -4.8437  -24.5520  -42.4138 H         1 UNK         0.0600 
    192 H192       -2.5292  -24.2396  -41.5290 H         1 UNK         0.0600 
    193 H193       -2.9145  -25.9501  -41.6263 H         1 UNK         0.0600 
    194 H194       -1.8732  -25.2170  -42.8413 H         1 UNK         0.0600 
    195 H195       -5.4617  -26.7437  -42.5655 H         1 UNK         0.3000 
    196 H196       -6.2171  -27.6171  -45.0967 H         1 UNK         0.0600 
    197 H197       -7.0935  -29.6034  -43.8482 H         1 UNK         0.0600 
    198 H198       -7.4523  -28.1069  -43.0049 H         1 UNK         0.0600 
    199 H199       -6.1425  -29.1461  -42.4405 H         1 UNK         0.0600 
    200 H200       -3.1714  -28.1879  -43.6468 H         1 UNK         0.3000 
    201 H201       -2.4550  -30.6493  -44.9960 H         1 UNK         0.0600 
    202 H202       -1.3154  -29.8908  -42.9178 H         1 UNK         0.0600 
    203 H203       -0.7432  -28.4364  -43.7367 H         1 UNK         0.0600 
    204 H204       -0.1611  -30.0204  -44.2346 H         1 UNK         0.0600 
    205 H205       -2.8622  -27.3815  -46.0949 H         1 UNK         0.3000 
    206 H206       -1.6013  -27.9990  -48.6885 H         1 UNK         0.0600 
    207 H207        0.1123  -26.7326  -47.3429 H         1 UNK         0.0600 
    208 H208       -0.4600  -25.7871  -48.7003 H         1 UNK         0.0600 
    209 H209       -1.0583  -25.4479  -47.0741 H         1 UNK         0.0600 
    210 H210       -2.1098  -25.5244  -49.8577 H         1 UNK         0.3000 
    211 H211       -4.9363  -24.8483  -49.5230 H         1 UNK         0.0600 
    212 H212       -3.9415  -26.2601  -52.0626 H         1 UNK         0.0600 
    213 H213       -5.5171  -25.4980  -51.8717 H         1 UNK         0.0600 
    214 H214       -5.1075  -26.9081  -50.9104 H         1 UNK         0.0600 
    215 H215       -3.1699  -23.1209  -48.8878 H         1 UNK         0.3000 
    216 H216       -2.4368  -21.0530  -49.1628 H         1 UNK         0.0600 
    217 H217       -4.4493  -20.9521  -51.4726 H         1 UNK         0.0600 
    218 H218       -4.7809  -20.6074  -49.7772 H         1 UNK         0.0600 
    219 H219       -3.7282  -19.5529  -50.7014 H         1 UNK         0.0600 
    220 H220       -0.9246  -23.1027  -50.4747 H         1 UNK         0.3000 
    221 H221        0.7467  -23.5661  -51.8528 H         1 UNK         0.0600 
    222 H222        1.1670  -20.5379  -51.9943 H         1 UNK         0.0600 
    223 H223        1.8617  -21.6322  -50.8024 H         1 UNK         0.0600 
    224 H224        2.3368  -21.7540  -52.4866 H         1 UNK         0.0600 
    225 H225       -1.8165  -23.5692  -52.9391 H         1 UNK         0.3000 
    226 H226       -2.9525  -23.9039  -54.7801 H         1 UNK         0.0600 
    227 H227       -0.9186  -24.9776  -55.7849 H         1 UNK         0.0600 
    228 H228       -1.9326  -24.1914  -56.9838 H         1 UNK         0.0600 
    229 H229       -0.4417  -23.4226  -56.4669 H         1 UNK         0.0600 
    230 H230       -3.0677  -21.5649  -53.4735 H         1 UNK         0.3000 
    231 H231       -3.8544  -19.5002  -53.4437 H         1 UNK         0.0600 
    232 H232       -4.8481  -20.0338  -56.2923 H         1 UNK         0.0600 
    233 H233       -5.4427  -18.7940  -55.1966 H         1 UNK         0.0600 
    234 H234       -5.6917  -20.4892  -54.8125 H         1 UNK         0.0600 
    235 H235       -1.2215  -19.5202  -53.7368 H         1 UNK         0.3000 
    236 H236       -0.1234  -18.1963  -55.9926 H         1 UNK         0.0600 
    237 H237        1.2379  -19.5935  -54.4983 H         1 UNK         0.0600 
    238 H238        1.9044  -17.9717  -54.5163 H         1 UNK         0.0600 
    239 H239        0.9396  -18.5034  -53.1461 H         1 UNK         0.0600 
    240 H240       -1.8185  -16.8524  -53.2977 H         1 UNK         0.3000 
    241 H241       -0.7891  -14.1695  -53.4299 H         1 UNK         0.0600 
    242 H242       -3.5077  -14.3850  -56.4400 H         1 UNK         0.3800 
    243 H243       -2.8990  -15.8379  -55.6880 H         1 UNK         0.3800 
    244 H244       -2.6640  -13.5459  -51.9925 H         1 UNK         0.0800 
    245 H245       -3.5054  -15.0284  -52.3420 H         1 UNK         0.0800 
    246 H246       -3.1598  -17.1766  -51.4455 H         1 UNK         0.0800 
    247 H247       -2.0992  -17.6286  -50.1436 H         1 UNK         0.0800 
@<TRIPOS>BOND
     1    1    2 1    
     2    1  127 1    
     3    1  128 1    
     4    1  129 1    
     5    2    3 2    
     6    2    4 am   BACKBONE|DICT|INTERRES
     7    4    5 1    
     8    4  130 1    
     9    5    6 1    
    10    5   65 1    
    11    5  131 1    
    12    6    7 1    
    13    6  132 1    
    14    6  133 1    
    15    7    8 1    
    16    8    9 1    
    17    8  134 1    
    18    8  135 1    
    19    9   10 ar   
    20    9   14 ar   
    21   10   11 ar   
    22   10  136 1    
    23   11   12 ar   
    24   11  126 1    
    25   12   13 ar   
    26   12  137 1    
    27   13   14 ar   
    28   13   15 1    
    29   14  138 1    
    30   15   16 1    
    31   15  139 1    
    32   15  140 1    
    33   16   17 1    
    34   17   18 1    
    35   17  141 1    
    36   17  142 1    
    37   18   19 1    
    38   18   67 1    
    39   18  143 1    
    40   19   20 am   BACKBONE|DICT|INTERRES
    41   19  144 1    
    42   20   21 2    
    43   20   22 1    
    44   22   23 1    
    45   22   24 1    
    46   22  145 1    
    47   23  146 1    
    48   23  147 1    
    49   23  148 1    
    50   24   25 am   BACKBONE|DICT|INTERRES
    51   24  149 1    
    52   25   26 2    
    53   25   27 1    
    54   27   28 1    
    55   27   29 1    
    56   27  150 1    
    57   28  151 1    
    58   28  152 1    
    59   28  153 1    
    60   29   30 am   BACKBONE|DICT|INTERRES
    61   29  154 1    
    62   30   31 2    
    63   30   32 1    
    64   32   33 1    
    65   32   34 1    
    66   32  155 1    
    67   33  156 1    
    68   33  157 1    
    69   33  158 1    
    70   34   35 am   BACKBONE|DICT|INTERRES
    71   34  159 1    
    72   35   36 2    
    73   35   37 1    
    74   37   38 1    
    75   37   39 1    
    76   37  160 1    
    77   38  161 1    
    78   38  162 1    
    79   38  163 1    
    80   39   40 am   BACKBONE|DICT|INTERRES
    81   39  164 1    
    82   40   41 2    
    83   40   42 1    
    84   42   43 1    
    85   42   44 1    
    86   42  165 1    
    87   43  166 1    
    88   43  167 1    
    89   43  168 1    
    90   44   45 am   BACKBONE|DICT|INTERRES
    91   44  169 1    
    92   45   46 2    
    93   45   47 1    
    94   47   48 1    
    95   47   49 1    
    96   47  170 1    
    97   48  171 1    
    98   48  172 1    
    99   48  173 1    
   100   49   50 am   BACKBONE|DICT|INTERRES
   101   49  174 1    
   102   50   51 2    
   103   50   52 1    
   104   52   53 1    
   105   52   54 1    
   106   52  175 1    
   107   53  176 1    
   108   53  177 1    
   109   53  178 1    
   110   54   55 am   BACKBONE|DICT|INTERRES
   111   54  179 1    
   112   55   56 2    
   113   55   57 1    
   114   57   58 1    
   115   57   59 1    
   116   57  180 1    
   117   58  181 1    
   118   58  182 1    
   119   58  183 1    
   120   59   60 am   BACKBONE|DICT|INTERRES
   121   59  184 1    
   122   60   61 2    
   123   60   62 1    
   124   62   63 1    
   125   62   64 1    
   126   62  185 1    
   127   63  186 1    
   128   63  187 1    
   129   63  188 1    
   130   64   65 am   BACKBONE|DICT|INTERRES
   131   64  189 1    
   132   65   66 2    
   133   67   68 2    
   134   67   69 am   BACKBONE|DICT|INTERRES
   135   69   70 1    
   136   69  190 1    
   137   70   71 1    
   138   70   72 1    
   139   70  191 1    
   140   71  192 1    
   141   71  193 1    
   142   71  194 1    
   143   72   73 2    
   144   72   74 am   BACKBONE|DICT|INTERRES
   145   74   75 1    
   146   74  195 1    
   147   75   76 1    
   148   75   77 1    
   149   75  196 1    
   150   76  197 1    
   151   76  198 1    
   152   76  199 1    
   153   77   78 2    
   154   77   79 am   BACKBONE|DICT|INTERRES
   155   79   80 1    
   156   79  200 1    
   157   80   81 1    
   158   80   82 1    
   159   80  201 1    
   160   81  202 1    
   161   81  203 1    
   162   81  204 1    
   163   82   83 2    
   164   82   84 am   BACKBONE|DICT|INTERRES
   165   84   85 1    
   166   84  205 1    
   167   85   86 1    
   168   85   87 1    
   169   85  206 1    
   170   86  207 1    
   171   86  208 1    
   172   86  209 1    
   173   87   88 2    
   174   87   89 am   BACKBONE|DICT|INTERRES
   175   89   90 1    
   176   89  210 1    
   177   90   91 1    
   178   90   92 1    
   179   90  211 1    
   180   91  212 1    
   181   91  213 1    
   182   91  214 1    
   183   92   93 2    
   184   92   94 am   BACKBONE|DICT|INTERRES
   185   94   95 1    
   186   94  215 1    
   187   95   96 1    
   188   95   97 1    
   189   95  216 1    
   190   96  217 1    
   191   96  218 1    
   192   96  219 1    
   193   97   98 2    
   194   97   99 am   BACKBONE|DICT|INTERRES
   195   99  100 1    
   196   99  220 1    
   197  100  101 1    
   198  100  102 1    
   199  100  221 1    
   200  101  222 1    
   201  101  223 1    
   202  101  224 1    
   203  102  103 2    
   204  102  104 am   BACKBONE|DICT|INTERRES
   205  104  105 1    
   206  104  225 1    
   207  105  106 1    
   208  105  107 1    
   209  105  226 1    
   210  106  227 1    
   211  106  228 1    
   212  106  229 1    
   213  107  108 2    
   214  107  109 am   BACKBONE|DICT|INTERRES
   215  109  110 1    
   216  109  230 1    
   217  110  111 1    
   218  110  112 1    
   219  110  231 1    
   220  111  232 1    
   221  111  233 1    
   222  111  234 1    
   223  112  113 2    
   224  112  114 am   BACKBONE|DICT|INTERRES
   225  114  115 1    
   226  114  235 1    
   227  115  116 1    
   228  115  117 1    
   229  115  236 1    
   230  116  237 1    
   231  116  238 1    
   232  116  239 1    
   233  117  118 2    
   234  117  119 am   BACKBONE|DICT|INTERRES
   235  119  120 1    
   236  119  240 1    
   237  120  121 1    
   238  120  124 1    
   239  120  241 1    
   240  121  122 am   BACKBONE|DICT|INTERRES
   241  121  123 2    
   242  122  242 1    
   243  122  243 1    
   244  124  125 1    
   245  124  244 1    
   246  124  245 1    
   247  125  126 1    
   248  126  246 1    
   249  126  247 1    
@<TRIPOS>SUBSTRUCTURE
     1 UNK         1 GROUP             0       ****    0 ROOT    
