@<TRIPOS>MOLECULE
3R540
247   249    1
SMALL
USER_CHARGES


@<TRIPOS>ATOM
      1 CA          3.9407  -10.9077  -48.7867 C.3       0 UNK        -0.1800 
      2 C           3.3042  -12.2719  -48.5641 C.2       0 UNK         0.5000 
      3 O           3.0178  -12.6371  -47.4239 O.2       0 UNK        -0.5000 
      4 N           3.0691  -13.0230  -49.6467 N.am      1 UNK        -0.5000 
      5 CA          2.4807  -14.3694  -49.6538 C.3       1 UNK         0.1400 
      6 C6          2.9167  -15.1708  -50.9080 C.3       23 UNK        -0.0398 
      7 S7          4.7021  -15.5629  -50.8637 S.3       23 UNK        -0.2404 
      8 C8          4.8652  -16.8671  -52.1355 C.3       23 UNK        -0.0205 
      9 C9          3.8869  -18.0269  -51.9709 C.ar      23 UNK        -0.0193 
     10 C10         3.1942  -18.5110  -53.0838 C.ar      23 UNK        -0.1150 
     11 C11         2.2423  -19.5258  -52.9480 C.ar      23 UNK        -0.0193 
     12 C12         1.9898  -20.0669  -51.6827 C.ar      23 UNK        -0.1150 
     13 C13         2.6882  -19.6032  -50.5638 C.ar      23 UNK        -0.0193 
     14 C14         3.6478  -18.5995  -50.7175 C.ar      23 UNK        -0.1150 
     15 C15         2.3782  -20.1403  -49.1776 C.3       23 UNK        -0.0205 
     16 S16         3.3559  -21.6197  -48.7827 S.3       23 UNK        -0.2404 
     17 C17         3.0213  -21.7557  -46.9930 C.3       23 UNK        -0.0398 
     18 CA          2.1885  -22.9872  -46.5632 C.3       11 UNK         0.1400 
     19 N           2.1279  -23.0456  -45.1047 N.am      11 UNK        -0.5000 
     20 C           2.0070  -24.1529  -44.3637 C.2       10 UNK         0.5000 
     21 O           1.9446  -25.2888  -44.8379 O.2       10 UNK        -0.5000 
     22 CA          1.9729  -23.9347  -42.8332 C.3       10 UNK         0.1400 
     23 CB          2.2589  -25.2166  -42.0240 C.3       10 UNK        -0.1800 
     24 N           2.8459  -22.8309  -42.4126 N.am      10 UNK        -0.5000 
     25 C           4.1780  -22.7403  -42.5527 C.2       9 UNK         0.5000 
     26 O           4.8969  -23.6710  -42.9179 O.2       9 UNK        -0.5000 
     27 CA          4.8183  -21.3634  -42.2847 C.3       9 UNK         0.1400 
     28 CB          5.2718  -20.7249  -43.6082 C.3       9 UNK        -0.1800 
     29 N           3.9042  -20.4329  -41.6207 N.am      9 UNK        -0.5000 
     30 C           3.8109  -20.2580  -40.2962 C.2       8 UNK         0.5000 
     31 O           4.5115  -20.8513  -39.4755 O.2       8 UNK        -0.5000 
     32 CA          2.7462  -19.2577  -39.8040 C.3       8 UNK         0.1400 
     33 CB          3.3597  -17.8618  -39.6184 C.3       8 UNK        -0.1800 
     34 N           1.5988  -19.1661  -40.7101 N.am      8 UNK        -0.5000 
     35 C           0.6627  -20.1186  -40.8305 C.2       7 UNK         0.5000 
     36 O           0.6515  -21.1495  -40.1580 O.2       7 UNK        -0.5000 
     37 CA         -0.4207  -19.9163  -41.9055 C.3       7 UNK         0.1400 
     38 CB         -1.6678  -19.2555  -41.3005 C.3       7 UNK        -0.1800 
     39 N           0.0242  -19.1356  -43.0611 N.am      7 UNK        -0.5000 
     40 C           1.0072  -19.4876  -43.9013 C.2       6 UNK         0.5000 
     41 O           1.6657  -20.5213  -43.7928 O.2       6 UNK        -0.5000 
     42 CA          1.3393  -18.5057  -45.0357 C.3       6 UNK         0.1400 
     43 CB          0.4778  -18.8091  -46.2672 C.3       6 UNK        -0.1800 
     44 N           1.1571  -17.1032  -44.6682 N.am      6 UNK        -0.5000 
     45 C           1.7811  -16.4655  -43.6682 C.2       5 UNK         0.5000 
     46 O           2.6138  -16.9924  -42.9301 O.2       5 UNK        -0.5000 
     47 CA          1.3537  -15.0091  -43.4255 C.3       5 UNK         0.1400 
     48 CB          2.0272  -14.0617  -44.4299 C.3       5 UNK        -0.1800 
     49 N          -0.1001  -14.8679  -43.5152 N.am      5 UNK        -0.5000 
     50 C          -0.9537  -15.2481  -42.5541 C.2       4 UNK         0.5000 
     51 O          -0.5981  -15.6878  -41.4608 O.2       4 UNK        -0.5000 
     52 CA         -2.4573  -15.1332  -42.8705 C.3       4 UNK         0.1400 
     53 CB         -2.9890  -13.7518  -42.4599 C.3       4 UNK        -0.1800 
     54 N          -2.7667  -15.3653  -44.2826 N.am      4 UNK        -0.5000 
     55 C          -2.6802  -16.5555  -44.8936 C.2       3 UNK         0.5000 
     56 O          -2.3447  -17.5929  -44.3230 O.2       3 UNK        -0.5000 
     57 CA         -2.9733  -16.5740  -46.4079 C.3       3 UNK         0.1400 
     58 CB         -4.4789  -16.7367  -46.6656 C.3       3 UNK        -0.1800 
     59 N          -2.4862  -15.3824  -47.1136 N.am      3 UNK        -0.5000 
     60 C          -1.2030  -15.0015  -47.1644 C.2       2 UNK         0.5000 
     61 O          -0.2938  -15.6011  -46.5869 O.2       2 UNK        -0.5000 
     62 CA         -0.8927  -13.6995  -47.9220 C.3       2 UNK         0.1400 
     63 CB         -1.0997  -12.4894  -46.9977 C.3       2 UNK        -0.1800 
     64 N           0.4931  -13.6975  -48.3833 N.am      2 UNK        -0.5000 
     65 C           0.9440  -14.3227  -49.4762 C.2       1 UNK         0.5000 
     66 O           0.2018  -14.8359  -50.3149 O.2       1 UNK        -0.5000 
     67 C           0.7559  -23.0133  -47.1447 C.2       11 UNK         0.5000 
     68 O          -0.1829  -22.5429  -46.4965 O.2       11 UNK        -0.5000 
     69 N           0.6216  -23.5736  -48.3562 N.am      12 UNK        -0.5000 
     70 CA         -0.6305  -23.9512  -49.0252 C.3       12 UNK         0.1400 
     71 CB         -0.3023  -24.4854  -50.4269 C.3       12 UNK        -0.1800 
     72 C          -1.7130  -22.8604  -49.1183 C.2       12 UNK         0.5000 
     73 O          -2.8984  -23.1854  -49.0348 O.2       12 UNK        -0.5000 
     74 N          -1.2986  -21.5919  -49.2391 N.am      13 UNK        -0.5000 
     75 CA         -2.1843  -20.4244  -49.3005 C.3       13 UNK         0.1400 
     76 CB         -1.3565  -19.1587  -49.5606 C.3       13 UNK        -0.1800 
     77 C          -3.0693  -20.2466  -48.0520 C.2       13 UNK         0.5000 
     78 O          -4.1472  -19.6664  -48.1594 O.2       13 UNK        -0.5000 
     79 N          -2.6350  -20.7811  -46.9012 N.am      14 UNK        -0.5000 
     80 CA         -3.4138  -20.8049  -45.6629 C.3       14 UNK         0.1400 
     81 CB         -2.5163  -21.2997  -44.5241 C.3       14 UNK        -0.1800 
     82 C          -4.6722  -21.6876  -45.7611 C.2       14 UNK         0.5000 
     83 O          -5.6914  -21.3599  -45.1530 O.2       14 UNK        -0.5000 
     84 N          -4.5762  -22.7849  -46.5234 N.am      15 UNK        -0.5000 
     85 CA         -5.6725  -23.7169  -46.7758 C.3       15 UNK         0.1400 
     86 CB         -5.1018  -25.1355  -46.9293 C.3       15 UNK        -0.1800 
     87 C          -6.4689  -23.3151  -48.0272 C.2       15 UNK         0.5000 
     88 O          -7.6963  -23.4141  -48.0239 O.2       15 UNK        -0.5000 
     89 N          -5.7577  -22.8731  -49.0735 N.am      16 UNK        -0.5000 
     90 CA         -6.3260  -22.4853  -50.3652 C.3       16 UNK         0.1400 
     91 CB         -5.1988  -22.4748  -51.4063 C.3       16 UNK        -0.1800 
     92 C          -7.0764  -21.1367  -50.3308 C.2       16 UNK         0.5000 
     93 O          -7.9499  -20.9099  -51.1702 O.2       16 UNK        -0.5000 
     94 N          -6.7460  -20.2826  -49.3506 N.am      17 UNK        -0.5000 
     95 CA         -7.3198  -18.9637  -49.0856 C.3       17 UNK         0.1400 
     96 CB         -8.7981  -19.0819  -48.6502 C.3       17 UNK        -0.1800 
     97 C          -7.0713  -18.0036  -50.2640 C.2       17 UNK         0.5000 
     98 O          -5.9148  -17.6921  -50.5430 O.2       17 UNK        -0.5000 
     99 N          -8.1372  -17.5480  -50.9308 N.am      18 UNK        -0.5000 
    100 CA        -8.0732  -16.6385  -52.0765 C.3       18 UNK         0.1400 
    101 CB        -9.3147  -15.7315  -52.0381 C.3       18 UNK        -0.1800 
    102 C         -7.9806  -17.3678  -53.4333 C.2       18 UNK         0.5000 
    103 O         -7.8255  -16.6991  -54.4567 O.2       18 UNK        -0.5000 
    104 N         -8.1137  -18.6998  -53.4375 N.am      19 UNK        -0.5000 
    105 CA        -8.1641  -19.5367  -54.6352 C.3       19 UNK         0.1400 
    106 CB        -9.4352  -20.4008  -54.5484 C.3       19 UNK        -0.1800 
    107 C         -6.9128  -20.4242  -54.7479 C.2       19 UNK         0.5000 
    108 O         -6.0798  -20.4396  -53.8404 O.2       19 UNK        -0.5000 
    109 N         -6.8321  -21.1682  -55.8614 N.am      20 UNK        -0.5000 
    110 CA        -5.8912  -22.2554  -56.1527 C.3       20 UNK         0.1400 
    111 CB        -6.3574  -23.5432  -55.4374 C.3       20 UNK        -0.1800 
    112 C         -4.4139  -21.8897  -55.8900 C.2       20 UNK         0.5000 
    113 O         -3.8678  -21.0437  -56.6013 O.2       20 UNK        -0.5000 
    114 N         -3.7951  -22.5292  -54.8885 N.am      21 UNK        -0.5000 
    115 CA        -2.4023  -22.3611  -54.4746 C.3       21 UNK         0.1400 
    116 CB        -1.9802  -23.5998  -53.6641 C.3       21 UNK        -0.1800 
    117 C         -2.1576  -21.0430  -53.7094 C.2       21 UNK         0.5000 
    118 O         -1.7241  -21.0687  -52.5576 O.2       21 UNK        -0.5000 
    119 N         -2.4142  -19.9186  -54.3857 N.am      22 UNK        -0.5000 
    120 CA        -2.1634  -18.5394  -53.9326 C.3       22 UNK         0.1400 
    121 C         -3.1029  -18.0355  -52.7961 C.2       22 UNK         0.5000 
    122 N         -4.2242  -18.6822  -52.5148 N.am      22 UNK        -0.7600 
    123 O         -2.8300  -17.0116  -52.1763 O.2       22 UNK        -0.5000 
    124 C124       -0.6677  -18.2562  -53.6094 C.3       23 UNK        -0.0398 
    125 S125        0.4841  -18.7075  -54.9543 S.3       23 UNK        -0.2404 
    126 C126        1.4755  -20.0227  -54.1673 C.3       23 UNK        -0.0205 
    127 H127        4.1380  -10.7193  -49.8423 H         1 UNK         0.0600 
    128 H128        4.8856  -10.8429  -48.2472 H         1 UNK         0.0600 
    129 H129        3.2814  -10.1219  -48.4178 H         1 UNK         0.0600 
    130 H130        3.3123  -12.6564  -50.5557 H         1 UNK         0.3000 
    131 H131        2.8567  -14.9097  -48.7817 H         1 UNK         0.0600 
    132 H132        2.3590  -16.1059  -50.9644 H         1 UNK         0.0800 
    133 H133        2.6884  -14.6235  -51.8238 H         1 UNK         0.0800 
    134 H134        5.8819  -17.2608  -52.1070 H         1 UNK         0.0800 
    135 H135        4.7423  -16.4019  -53.1148 H         1 UNK         0.0800 
    136 H136        3.3747  -18.0814  -54.0594 H         1 UNK         0.1150 
    137 H137        1.2410  -20.8385  -51.5667 H         1 UNK         0.1150 
    138 H138        4.1826  -18.2352  -49.8517 H         1 UNK         0.1150 
    139 H139        2.5803  -19.3626  -48.4395 H         1 UNK         0.0800 
    140 H140        1.3185  -20.3751  -49.0943 H         1 UNK         0.0800 
    141 H141        2.5700  -20.8383  -46.6209 H         1 UNK         0.0800 
    142 H142        3.9963  -21.8060  -46.5059 H         1 UNK         0.0800 
    143 H143        2.7094  -23.8799  -46.9167 H         1 UNK         0.0600 
    144 H144        2.0763  -22.1506  -44.6251 H         1 UNK         0.3000 
    145 H145        0.9555  -23.6187  -42.5981 H         1 UNK         0.0600 
    146 H146        2.2302  -25.0199  -40.9523 H         1 UNK         0.0600 
    147 H147        1.5118  -25.9831  -42.2329 H         1 UNK         0.0600 
    148 H148        3.2346  -25.6405  -42.2622 H         1 UNK         0.0600 
    149 H149        2.3630  -21.9845  -42.1446 H         1 UNK         0.3000 
    150 H150        5.7015  -21.5247  -41.6632 H         1 UNK         0.0600 
    151 H151        5.9735  -21.3713  -44.1370 H         1 UNK         0.0600 
    152 H152        5.7758  -19.7741  -43.4339 H         1 UNK         0.0600 
    153 H153        4.4295  -20.5391  -44.2756 H         1 UNK         0.0600 
    154 H154        3.2754  -19.9168  -42.2215 H         1 UNK         0.3000 
    155 H155        2.3906  -19.6024  -38.8306 H         1 UNK         0.0600 
    156 H156        4.1733  -17.8881  -38.8925 H         1 UNK         0.0600 
    157 H157        2.6198  -17.1499  -39.2522 H         1 UNK         0.0600 
    158 H158        3.7677  -17.4725  -40.5516 H         1 UNK         0.0600 
    159 H159        1.5597  -18.3583  -41.3186 H         1 UNK         0.3000 
    160 H160       -0.6999  -20.9086  -42.2638 H         1 UNK         0.0600 
    161 H161       -1.4526  -18.2507  -40.9362 H         1 UNK         0.0600 
    162 H162       -2.0494  -19.8357  -40.4595 H         1 UNK         0.0600 
    163 H163       -2.4710  -19.1806  -42.0337 H         1 UNK         0.0600 
    164 H164       -0.5047  -18.2980  -43.2709 H         1 UNK         0.3000 
    165 H165        2.3890  -18.6475  -45.2993 H         1 UNK         0.0600 
    166 H166        0.7862  -18.1952  -47.1131 H         1 UNK         0.0600 
    167 H167        0.5500  -19.8532  -46.5670 H         1 UNK         0.0600 
    168 H168       -0.5752  -18.6105  -46.0749 H         1 UNK         0.0600 
    169 H169        0.5222  -16.5685  -45.2573 H         1 UNK         0.3000 
    170 H170        1.6763  -14.7237  -42.4218 H         1 UNK         0.0600 
    171 H171        3.1135  -14.1241  -44.3557 H         1 UNK         0.0600 
    172 H172        1.7584  -14.2995  -45.4593 H         1 UNK         0.0600 
    173 H173        1.7484  -13.0245  -44.2437 H         1 UNK         0.0600 
    174 H174       -0.4726  -14.5687  -44.4040 H         1 UNK         0.3000 
    175 H175       -2.9777  -15.8895  -42.2787 H         1 UNK         0.0600 
    176 H176       -2.7937  -13.5564  -41.4046 H         1 UNK         0.0600 
    177 H177       -2.5201  -12.9518  -43.0343 H         1 UNK         0.0600 
    178 H178       -4.0671  -13.6845  -42.6072 H         1 UNK         0.0600 
    179 H179       -3.0515  -14.5641  -44.8260 H         1 UNK         0.3000 
    180 H180       -2.4640  -17.4404  -46.8330 H         1 UNK         0.0600 
    181 H181       -4.8665  -17.6269  -46.1684 H         1 UNK         0.0600 
    182 H182       -5.0479  -15.8811  -46.3004 H         1 UNK         0.0600 
    183 H183       -4.6850  -16.8501  -47.7305 H         1 UNK         0.0600 
    184 H184       -3.1804  -14.8349  -47.6016 H         1 UNK         0.3000 
    185 H185       -1.5634  -13.6144  -48.7796 H         1 UNK         0.0600 
    186 H186       -2.1296  -12.4355  -46.6427 H         1 UNK         0.0600 
    187 H187       -0.4509  -12.5347  -46.1217 H         1 UNK         0.0600 
    188 H188       -0.8888  -11.5560  -47.5201 H         1 UNK         0.0600 
    189 H189        1.1870  -13.3164  -47.7478 H         1 UNK         0.3000 
    190 H190        1.4629  -23.8841  -48.8210 H         1 UNK         0.3000 
    191 H191       -1.0598  -24.7699  -48.4444 H         1 UNK         0.0600 
    192 H192        0.1599  -23.7182  -51.0496 H         1 UNK         0.0600 
    193 H193       -1.2052  -24.8238  -50.9368 H         1 UNK         0.0600 
    194 H194        0.3776  -25.3361  -50.3791 H         1 UNK         0.0600 
    195 H195       -0.3084  -21.4213  -49.3027 H         1 UNK         0.3000 
    196 H196       -2.8526  -20.5634  -50.1508 H         1 UNK         0.0600 
    197 H197       -2.0042  -18.2894  -49.6835 H         1 UNK         0.0600 
    198 H198       -0.7679  -19.2546  -50.4714 H         1 UNK         0.0600 
    199 H199       -0.6753  -18.9439  -48.7417 H         1 UNK         0.0600 
    200 H200       -1.7508  -21.2797  -46.8882 H         1 UNK         0.3000 
    201 H201       -3.7273  -19.7836  -45.4387 H         1 UNK         0.0600 
    202 H202       -1.5968  -20.7218  -44.4887 H         1 UNK         0.0600 
    203 H203       -2.2425  -22.3483  -44.6475 H         1 UNK         0.0600 
    204 H204       -3.0138  -21.1967  -43.5593 H         1 UNK         0.0600 
    205 H205       -3.7179  -22.9481  -47.0344 H         1 UNK         0.3000 
    206 H206       -6.3576  -23.7210  -45.9252 H         1 UNK         0.0600 
    207 H207       -4.5758  -25.4472  -46.0268 H         1 UNK         0.0600 
    208 H208       -5.8984  -25.8589  -47.1078 H         1 UNK         0.0600 
    209 H209       -4.4030  -25.2038  -47.7641 H         1 UNK         0.0600 
    210 H210       -4.7429  -22.8739  -49.0098 H         1 UNK         0.3000 
    211 H211       -7.0446  -23.2536  -50.6577 H         1 UNK         0.0600 
    212 H212       -5.6117  -22.4377  -52.4107 H         1 UNK         0.0600 
    213 H213       -4.5897  -23.3766  -51.3463 H         1 UNK         0.0600 
    214 H214       -4.5412  -21.6141  -51.2879 H         1 UNK         0.0600 
    215 H215       -5.9419  -20.5097  -48.7770 H         1 UNK         0.3000 
    216 H216       -6.7632  -18.5549  -48.2411 H         1 UNK         0.0600 
    217 H217       -9.2064  -18.1077  -48.3785 H         1 UNK         0.0600 
    218 H218       -8.8910  -19.7225  -47.7730 H         1 UNK         0.0600 
    219 H219       -9.4319  -19.5037  -49.4307 H         1 UNK         0.0600 
    220 H220       -9.0547  -17.8685  -50.6569 H         1 UNK         0.3000 
    221 H221       -7.1900  -16.0018  -51.9911 H         1 UNK         0.0600 
    222 H222      -10.2362  -16.3063  -52.1389 H         1 UNK         0.0600 
    223 H223       -9.3668  -15.1739  -51.1027 H         1 UNK         0.0600 
    224 H224       -9.2934  -15.0008  -52.8477 H         1 UNK         0.0600 
    225 H225       -8.1288  -19.2007  -52.5564 H         1 UNK         0.3000 
    226 H226       -8.2209  -18.9234  -55.5365 H         1 UNK         0.0600 
    227 H227      -10.3257  -19.7800  -54.4478 H         1 UNK         0.0600 
    228 H228       -9.5692  -21.0097  -55.4430 H         1 UNK         0.0600 
    229 H229       -9.4019  -21.0766  -53.6925 H         1 UNK         0.0600 
    230 H230       -7.5430  -21.0300  -56.5655 H         1 UNK         0.3000 
    231 H231       -5.9606  -22.4400  -57.2257 H         1 UNK         0.0600 
    232 H232       -7.3538  -23.8309  -55.7732 H         1 UNK         0.0600 
    233 H233       -6.4039  -23.4213  -54.3558 H         1 UNK         0.0600 
    234 H234       -5.6960  -24.3828  -55.6557 H         1 UNK         0.0600 
    235 H235       -4.3419  -23.1723  -54.3363 H         1 UNK         0.3000 
    236 H236       -1.7799  -22.3280  -55.3712 H         1 UNK         0.0600 
    237 H237       -2.1106  -24.5150  -54.2417 H         1 UNK         0.0600 
    238 H238       -0.9276  -23.5419  -53.3847 H         1 UNK         0.0600 
    239 H239       -2.5597  -23.6957  -52.7455 H         1 UNK         0.0600 
    240 H240       -2.8212  -20.0174  -55.3104 H         1 UNK         0.3000 
    241 H241       -2.4222  -17.9162  -54.7889 H         1 UNK         0.0600 
    242 H242       -4.5483  -19.4771  -53.0546 H         1 UNK         0.3800 
    243 H243       -4.8131  -18.3138  -51.7698 H         1 UNK         0.3800 
    244 H244       -0.5184  -17.1939  -53.4097 H         1 UNK         0.0800 
    245 H245       -0.3832  -18.7679  -52.6916 H         1 UNK         0.0800 
    246 H246        2.1866  -20.4120  -54.8968 H         1 UNK         0.0800 
    247 H247        0.8225  -20.8550  -53.9023 H         1 UNK         0.0800 
@<TRIPOS>BOND
     1    1    2 1    
     2    1  127 1    
     3    1  128 1    
     4    1  129 1    
     5    2    3 2    
     6    2    4 am   BACKBONE|DICT|INTERRES
     7    4    5 1    
     8    4  130 1    
     9    5    6 1    
    10    5   65 1    
    11    5  131 1    
    12    6    7 1    
    13    6  132 1    
    14    6  133 1    
    15    7    8 1    
    16    8    9 1    
    17    8  134 1    
    18    8  135 1    
    19    9   10 ar   
    20    9   14 ar   
    21   10   11 ar   
    22   10  136 1    
    23   11   12 ar   
    24   11  126 1    
    25   12   13 ar   
    26   12  137 1    
    27   13   14 ar   
    28   13   15 1    
    29   14  138 1    
    30   15   16 1    
    31   15  139 1    
    32   15  140 1    
    33   16   17 1    
    34   17   18 1    
    35   17  141 1    
    36   17  142 1    
    37   18   19 1    
    38   18   67 1    
    39   18  143 1    
    40   19   20 am   BACKBONE|DICT|INTERRES
    41   19  144 1    
    42   20   21 2    
    43   20   22 1    
    44   22   23 1    
    45   22   24 1    
    46   22  145 1    
    47   23  146 1    
    48   23  147 1    
    49   23  148 1    
    50   24   25 am   BACKBONE|DICT|INTERRES
    51   24  149 1    
    52   25   26 2    
    53   25   27 1    
    54   27   28 1    
    55   27   29 1    
    56   27  150 1    
    57   28  151 1    
    58   28  152 1    
    59   28  153 1    
    60   29   30 am   BACKBONE|DICT|INTERRES
    61   29  154 1    
    62   30   31 2    
    63   30   32 1    
    64   32   33 1    
    65   32   34 1    
    66   32  155 1    
    67   33  156 1    
    68   33  157 1    
    69   33  158 1    
    70   34   35 am   BACKBONE|DICT|INTERRES
    71   34  159 1    
    72   35   36 2    
    73   35   37 1    
    74   37   38 1    
    75   37   39 1    
    76   37  160 1    
    77   38  161 1    
    78   38  162 1    
    79   38  163 1    
    80   39   40 am   BACKBONE|DICT|INTERRES
    81   39  164 1    
    82   40   41 2    
    83   40   42 1    
    84   42   43 1    
    85   42   44 1    
    86   42  165 1    
    87   43  166 1    
    88   43  167 1    
    89   43  168 1    
    90   44   45 am   BACKBONE|DICT|INTERRES
    91   44  169 1    
    92   45   46 2    
    93   45   47 1    
    94   47   48 1    
    95   47   49 1    
    96   47  170 1    
    97   48  171 1    
    98   48  172 1    
    99   48  173 1    
   100   49   50 am   BACKBONE|DICT|INTERRES
   101   49  174 1    
   102   50   51 2    
   103   50   52 1    
   104   52   53 1    
   105   52   54 1    
   106   52  175 1    
   107   53  176 1    
   108   53  177 1    
   109   53  178 1    
   110   54   55 am   BACKBONE|DICT|INTERRES
   111   54  179 1    
   112   55   56 2    
   113   55   57 1    
   114   57   58 1    
   115   57   59 1    
   116   57  180 1    
   117   58  181 1    
   118   58  182 1    
   119   58  183 1    
   120   59   60 am   BACKBONE|DICT|INTERRES
   121   59  184 1    
   122   60   61 2    
   123   60   62 1    
   124   62   63 1    
   125   62   64 1    
   126   62  185 1    
   127   63  186 1    
   128   63  187 1    
   129   63  188 1    
   130   64   65 am   BACKBONE|DICT|INTERRES
   131   64  189 1    
   132   65   66 2    
   133   67   68 2    
   134   67   69 am   BACKBONE|DICT|INTERRES
   135   69   70 1    
   136   69  190 1    
   137   70   71 1    
   138   70   72 1    
   139   70  191 1    
   140   71  192 1    
   141   71  193 1    
   142   71  194 1    
   143   72   73 2    
   144   72   74 am   BACKBONE|DICT|INTERRES
   145   74   75 1    
   146   74  195 1    
   147   75   76 1    
   148   75   77 1    
   149   75  196 1    
   150   76  197 1    
   151   76  198 1    
   152   76  199 1    
   153   77   78 2    
   154   77   79 am   BACKBONE|DICT|INTERRES
   155   79   80 1    
   156   79  200 1    
   157   80   81 1    
   158   80   82 1    
   159   80  201 1    
   160   81  202 1    
   161   81  203 1    
   162   81  204 1    
   163   82   83 2    
   164   82   84 am   BACKBONE|DICT|INTERRES
   165   84   85 1    
   166   84  205 1    
   167   85   86 1    
   168   85   87 1    
   169   85  206 1    
   170   86  207 1    
   171   86  208 1    
   172   86  209 1    
   173   87   88 2    
   174   87   89 am   BACKBONE|DICT|INTERRES
   175   89   90 1    
   176   89  210 1    
   177   90   91 1    
   178   90   92 1    
   179   90  211 1    
   180   91  212 1    
   181   91  213 1    
   182   91  214 1    
   183   92   93 2    
   184   92   94 am   BACKBONE|DICT|INTERRES
   185   94   95 1    
   186   94  215 1    
   187   95   96 1    
   188   95   97 1    
   189   95  216 1    
   190   96  217 1    
   191   96  218 1    
   192   96  219 1    
   193   97   98 2    
   194   97   99 am   BACKBONE|DICT|INTERRES
   195   99  100 1    
   196   99  220 1    
   197  100  101 1    
   198  100  102 1    
   199  100  221 1    
   200  101  222 1    
   201  101  223 1    
   202  101  224 1    
   203  102  103 2    
   204  102  104 am   BACKBONE|DICT|INTERRES
   205  104  105 1    
   206  104  225 1    
   207  105  106 1    
   208  105  107 1    
   209  105  226 1    
   210  106  227 1    
   211  106  228 1    
   212  106  229 1    
   213  107  108 2    
   214  107  109 am   BACKBONE|DICT|INTERRES
   215  109  110 1    
   216  109  230 1    
   217  110  111 1    
   218  110  112 1    
   219  110  231 1    
   220  111  232 1    
   221  111  233 1    
   222  111  234 1    
   223  112  113 2    
   224  112  114 am   BACKBONE|DICT|INTERRES
   225  114  115 1    
   226  114  235 1    
   227  115  116 1    
   228  115  117 1    
   229  115  236 1    
   230  116  237 1    
   231  116  238 1    
   232  116  239 1    
   233  117  118 2    
   234  117  119 am   BACKBONE|DICT|INTERRES
   235  119  120 1    
   236  119  240 1    
   237  120  121 1    
   238  120  124 1    
   239  120  241 1    
   240  121  122 am   BACKBONE|DICT|INTERRES
   241  121  123 2    
   242  122  242 1    
   243  122  243 1    
   244  124  125 1    
   245  124  244 1    
   246  124  245 1    
   247  125  126 1    
   248  126  246 1    
   249  126  247 1    
@<TRIPOS>SUBSTRUCTURE
     1 UNK         1 GROUP             0       ****    0 ROOT    
