@<TRIPOS>MOLECULE
3R540
247   249    1
SMALL
USER_CHARGES


@<TRIPOS>ATOM
      1 CA         -5.6519  -10.3539  -44.4121 C.3       0 UNK        -0.1800 
      2 C          -4.4399   -9.9713  -45.2499 C.2       0 UNK         0.5000 
      3 O          -4.1643   -8.7836  -45.4191 O.2       0 UNK        -0.5000 
      4 N          -3.7214  -10.9725  -45.7764 N.am      1 UNK        -0.5000 
      5 CA         -2.5027  -10.8065  -46.5790 C.3       1 UNK         0.1400 
      6 C6         -2.1285  -12.1298  -47.2901 C.3       23 UNK        -0.0398 
      7 S7         -0.9814  -11.9052  -48.6919 S.3       23 UNK        -0.2404 
      8 C8          0.1270  -13.3339  -48.4851 C.3       23 UNK        -0.0205 
      9 C9         -0.5141  -14.6317  -48.9569 C.ar      23 UNK        -0.0193 
     10 C10        -0.3152  -15.0790  -50.2660 C.ar      23 UNK        -0.1150 
     11 C11        -0.8692  -16.2884  -50.6966 C.ar      23 UNK        -0.0193 
     12 C12        -1.6309  -17.0509  -49.8067 C.ar      23 UNK        -0.1150 
     13 C13        -1.8648  -16.6007  -48.5029 C.ar      23 UNK        -0.0193 
     14 C14        -1.2870  -15.3997  -48.0816 C.ar      23 UNK        -0.1150 
     15 C15        -2.6970  -17.4108  -47.5170 C.3       23 UNK        -0.0205 
     16 S16        -4.1814  -18.1797  -48.2341 S.3       23 UNK        -0.2404 
     17 C17        -4.7997  -19.0989  -46.7834 C.3       23 UNK        -0.0398 
     18 CA         -4.4326  -20.5985  -46.8513 C.3       11 UNK         0.1400 
     19 N          -2.9855  -20.8413  -46.7777 N.am      11 UNK        -0.5000 
     20 C          -2.3985  -22.0170  -47.0382 C.2       10 UNK         0.5000 
     21 O          -3.0203  -23.0288  -47.3554 O.2       10 UNK        -0.5000 
     22 CA         -0.8741  -22.0893  -46.8749 C.3       10 UNK         0.1400 
     23 CB         -0.1702  -21.4270  -48.0691 C.3       10 UNK        -0.1800 
     24 N          -0.4444  -21.4729  -45.6199 N.am      10 UNK        -0.5000 
     25 C          -0.6603  -22.0192  -44.4120 C.2       9 UNK         0.5000 
     26 O          -1.1790  -23.1237  -44.2522 O.2       9 UNK        -0.5000 
     27 CA         -0.2656  -21.1957  -43.1683 C.3       9 UNK         0.1400 
     28 CB          1.1534  -21.5633  -42.7108 C.3       9 UNK        -0.1800 
     29 N          -0.3395  -19.7484  -43.3644 N.am      9 UNK        -0.5000 
     30 C          -1.4414  -19.0650  -43.7063 C.2       8 UNK         0.5000 
     31 O          -2.5527  -19.5789  -43.8432 O.2       8 UNK        -0.5000 
     32 CA         -1.2602  -17.5649  -44.0135 C.3       8 UNK         0.1400 
     33 CB         -1.5441  -16.7256  -42.7598 C.3       8 UNK        -0.1800 
     34 N           0.0610  -17.2015  -44.5386 N.am      8 UNK        -0.5000 
     35 C           0.7118  -17.7770  -45.5629 C.2       7 UNK         0.5000 
     36 O           0.2452  -18.6890  -46.2435 O.2       7 UNK        -0.5000 
     37 CA          2.1493  -17.2977  -45.8400 C.3       7 UNK         0.1400 
     38 CB          2.1691  -16.3372  -47.0376 C.3       7 UNK        -0.1800 
     39 N           2.8048  -16.6514  -44.6981 N.am      7 UNK        -0.5000 
     40 C           3.0497  -17.2147  -43.5046 C.2       6 UNK         0.5000 
     41 O           2.6958  -18.3559  -43.2003 O.2       6 UNK        -0.5000 
     42 CA          3.7993  -16.3251  -42.4923 C.3       6 UNK         0.1400 
     43 CB          4.3090  -17.0969  -41.2570 C.3       6 UNK        -0.1800 
     44 N           4.8730  -15.5513  -43.1270 N.am      6 UNK        -0.5000 
     45 C           5.9878  -16.0299  -43.7065 C.2       5 UNK         0.5000 
     46 O           6.2814  -17.2254  -43.7405 O.2       5 UNK        -0.5000 
     47 CA          6.9321  -15.0166  -44.3912 C.3       5 UNK         0.1400 
     48 CB          6.9395  -15.2377  -45.9130 C.3       5 UNK        -0.1800 
     49 N           6.5876  -13.6180  -44.1334 N.am      5 UNK        -0.5000 
     50 C           6.7553  -12.9715  -42.9720 C.2       4 UNK         0.5000 
     51 O           7.3143  -13.4628  -41.9913 O.2       4 UNK        -0.5000 
     52 CA          6.1693  -11.5469  -42.8824 C.3       4 UNK         0.1400 
     53 CB          7.2849  -10.4984  -43.0125 C.3       4 UNK        -0.1800 
     54 N           5.1292  -11.2606  -43.8795 N.am      4 UNK        -0.5000 
     55 C           3.9367  -11.8672  -43.9539 C.2       3 UNK         0.5000 
     56 O           3.5865  -12.7895  -43.2126 O.2       3 UNK        -0.5000 
     57 CA          3.0082  -11.4116  -45.0932 C.3       3 UNK         0.1400 
     58 CB          3.0511  -12.4189  -46.2520 C.3       3 UNK        -0.1800 
     59 N           1.6269  -11.2580  -44.6383 N.am      3 UNK        -0.5000 
     60 C           1.2035  -10.2808  -43.8254 C.2       2 UNK         0.5000 
     61 O           1.9420   -9.3919  -43.3956 O.2       2 UNK        -0.5000 
     62 CA         -0.2925  -10.3012  -43.4355 C.3       2 UNK         0.1400 
     63 CB         -0.7815   -8.9470  -42.8801 C.3       2 UNK        -0.1800 
     64 N          -1.1966  -10.7602  -44.4999 N.am      2 UNK        -0.5000 
     65 C          -1.3371  -10.2423  -45.7327 C.2       1 UNK         0.5000 
     66 O          -0.6355   -9.3383  -46.1885 O.2       1 UNK        -0.5000 
     67 C          -5.1990  -21.4117  -45.7895 C.2       11 UNK         0.5000 
     68 O          -6.2582  -21.9586  -46.0985 O.2       11 UNK        -0.5000 
     69 N          -4.6120  -21.5517  -44.5915 N.am      12 UNK        -0.5000 
     70 CA         -5.0950  -22.4244  -43.5166 C.3       12 UNK         0.1400 
     71 CB         -4.2504  -22.1804  -42.2574 C.3       12 UNK        -0.1800 
     72 C          -5.0916  -23.9240  -43.8876 C.2       12 UNK         0.5000 
     73 O          -5.8843  -24.6857  -43.3338 O.2       12 UNK        -0.5000 
     74 N          -4.2313  -24.3108  -44.8385 N.am      13 UNK        -0.5000 
     75 CA         -4.1302  -25.6485  -45.4204 C.3       13 UNK         0.1400 
     76 CB         -2.6402  -26.0030  -45.5773 C.3       13 UNK        -0.1800 
     77 C          -4.8911  -25.7535  -46.7606 C.2       13 UNK         0.5000 
     78 O          -4.5469  -26.6016  -47.5847 O.2       13 UNK        -0.5000 
     79 N          -5.8982  -24.8903  -46.9706 N.am      14 UNK        -0.5000 
     80 CA         -6.7644  -24.8075  -48.1531 C.3       14 UNK         0.1400 
     81 CB         -7.6408  -26.0715  -48.2815 C.3       14 UNK        -0.1800 
     82 C          -5.9722  -24.4892  -49.4364 C.2       14 UNK         0.5000 
     83 O          -6.0849  -25.2026  -50.4347 O.2       14 UNK        -0.5000 
     84 N          -5.1456  -23.4372  -49.3568 N.am      15 UNK        -0.5000 
     85 CA         -4.1947  -22.9786  -50.3767 C.3       15 UNK         0.1400 
     86 CB         -4.9325  -22.4477  -51.6232 C.3       15 UNK        -0.1800 
     87 C          -3.1406  -24.0578  -50.6953 C.2       15 UNK         0.5000 
     88 O          -2.8522  -24.3206  -51.8627 O.2       15 UNK        -0.5000 
     89 N          -2.6173  -24.6864  -49.6324 N.am      16 UNK        -0.5000 
     90 CA         -1.6912  -25.8225  -49.6345 C.3       16 UNK         0.1400 
     91 CB         -0.2981  -25.3714  -50.1210 C.3       16 UNK        -0.1800 
     92 C          -2.2540  -27.0227  -50.4254 C.2       16 UNK         0.5000 
     93 O          -1.5808  -27.5520  -51.3088 O.2       16 UNK        -0.5000 
     94 N          -3.5089  -27.3881  -50.1243 N.am      17 UNK        -0.5000 
     95 CA         -4.3408  -28.3655  -50.8361 C.3       17 UNK         0.1400 
     96 CB         -3.8046  -29.7966  -50.6256 C.3       17 UNK        -0.1800 
     97 C          -4.5321  -27.9963  -52.3248 C.2       17 UNK         0.5000 
     98 O          -4.3758  -28.8440  -53.2057 O.2       17 UNK        -0.5000 
     99 N          -4.8463  -26.7151  -52.5628 N.am      18 UNK        -0.5000 
    100 CA        -5.0404  -26.0514  -53.8562 C.3       18 UNK         0.1400 
    101 CB        -6.2800  -26.6208  -54.5770 C.3       18 UNK        -0.1800 
    102 C         -3.7893  -26.0121  -54.7642 C.2       18 UNK         0.5000 
    103 O         -3.9275  -25.8101  -55.9724 O.2       18 UNK        -0.5000 
    104 N         -2.5925  -26.1893  -54.1881 N.am      19 UNK        -0.5000 
    105 CA        -1.3181  -26.1116  -54.9023 C.3       19 UNK         0.1400 
    106 CB        -0.2684  -26.9670  -54.1786 C.3       19 UNK        -0.1800 
    107 C         -0.8108  -24.6664  -55.0536 C.2       19 UNK         0.5000 
    108 O         -0.1089  -24.3797  -56.0250 O.2       19 UNK        -0.5000 
    109 N         -1.1479  -23.7853  -54.1008 N.am      20 UNK        -0.5000 
    110 CA        -0.7636  -22.3751  -54.1215 C.3       20 UNK         0.1400 
    111 CB        -0.8784  -21.7850  -52.7065 C.3       20 UNK        -0.1800 
    112 C         -1.6339  -21.5837  -55.1117 C.2       20 UNK         0.5000 
    113 O         -2.8420  -21.8209  -55.1974 O.2       20 UNK        -0.5000 
    114 N         -1.0113  -20.6217  -55.8061 N.am      21 UNK        -0.5000 
    115 CA        -1.6368  -19.7688  -56.8244 C.3       21 UNK         0.1400 
    116 CB        -0.5517  -18.9019  -57.4818 C.3       21 UNK        -0.1800 
    117 C         -2.7840  -18.8837  -56.2964 C.2       21 UNK         0.5000 
    118 O         -3.6603  -18.5008  -57.0726 O.2       21 UNK        -0.5000 
    119 N         -2.7652  -18.5940  -54.9901 N.am      22 UNK        -0.5000 
    120 CA        -3.8314  -17.8840  -54.2675 C.3       22 UNK         0.1400 
    121 C         -5.0977  -18.7490  -53.9871 C.2       22 UNK         0.5000 
    122 N         -5.0993  -20.0515  -54.2506 N.am      22 UNK        -0.7600 
    123 O         -6.1082  -18.2222  -53.5300 O.2       22 UNK        -0.5000 
    124 C124       -3.3073  -17.2296  -52.9631 C.3       23 UNK        -0.0398 
    125 S125       -1.8967  -16.1042  -53.2580 S.3       23 UNK        -0.2404 
    126 C126       -0.6381  -16.7674  -52.1218 C.3       23 UNK        -0.0205 
    127 H127       -6.5568   -9.9269  -44.8444 H         1 UNK         0.0600 
    128 H128       -5.5428   -9.9691  -43.3981 H         1 UNK         0.0600 
    129 H129       -5.7806  -11.4349  -44.3535 H         1 UNK         0.0600 
    130 H130       -4.0153  -11.9242  -45.6084 H         1 UNK         0.3000 
    131 H131       -2.7320  -10.0666  -47.3493 H         1 UNK         0.0600 
    132 H132       -3.0249  -12.5998  -47.6977 H         1 UNK         0.0800 
    133 H133       -1.7194  -12.8404  -46.5716 H         1 UNK         0.0800 
    134 H134        0.4285  -13.4177  -47.4410 H         1 UNK         0.0800 
    135 H135        1.0427  -13.1500  -49.0490 H         1 UNK         0.0800 
    136 H136        0.2760  -14.4871  -50.9507 H         1 UNK         0.1150 
    137 H137       -2.0484  -17.9932  -50.1300 H         1 UNK         0.1150 
    138 H138       -1.4346  -15.0668  -47.0649 H         1 UNK         0.1150 
    139 H139       -2.0674  -18.1882  -47.0919 H         1 UNK         0.0800 
    140 H140       -3.0234  -16.7690  -46.6985 H         1 UNK         0.0800 
    141 H141       -5.8841  -18.9737  -46.7671 H         1 UNK         0.0800 
    142 H142       -4.4301  -18.6478  -45.8607 H         1 UNK         0.0800 
    143 H143       -4.7691  -20.9674  -47.8222 H         1 UNK         0.0600 
    144 H144       -2.4083  -20.0708  -46.4769 H         1 UNK         0.3000 
    145 H145       -0.5868  -23.1430  -46.8586 H         1 UNK         0.0600 
    146 H146       -0.4487  -20.3782  -48.1780 H         1 UNK         0.0600 
    147 H147        0.9136  -21.4761  -47.9648 H         1 UNK         0.0600 
    148 H148       -0.4309  -21.9310  -49.0009 H         1 UNK         0.0600 
    149 H149       -0.0472  -20.5401  -45.6842 H         1 UNK         0.3000 
    150 H150       -0.9611  -21.4549  -42.3680 H         1 UNK         0.0600 
    151 H151        1.2415  -22.6352  -42.5287 H         1 UNK         0.0600 
    152 H152        1.4136  -21.0535  -41.7830 H         1 UNK         0.0600 
    153 H153        1.8987  -21.2934  -43.4603 H         1 UNK         0.0600 
    154 H154        0.5356  -19.2433  -43.2978 H         1 UNK         0.3000 
    155 H155       -1.9990  -17.2990  -44.7666 H         1 UNK         0.0600 
    156 H156       -2.5294  -16.9539  -42.3507 H         1 UNK         0.0600 
    157 H157       -1.5277  -15.6592  -42.9856 H         1 UNK         0.0600 
    158 H158       -0.8106  -16.9152  -41.9750 H         1 UNK         0.0600 
    159 H159        0.5462  -16.4703  -44.0412 H         1 UNK         0.3000 
    160 H160        2.7372  -18.1805  -46.0988 H         1 UNK         0.0600 
    161 H161        3.1878  -16.0583  -47.3076 H         1 UNK         0.0600 
    162 H162        1.6144  -15.4246  -46.8233 H         1 UNK         0.0600 
    163 H163        1.7140  -16.7962  -47.9168 H         1 UNK         0.0600 
    164 H164        3.1380  -15.7111  -44.8482 H         1 UNK         0.3000 
    165 H165        3.0714  -15.5935  -42.1385 H         1 UNK         0.0600 
    166 H166        4.9864  -17.9060  -41.5306 H         1 UNK         0.0600 
    167 H167        4.8356  -16.4355  -40.5692 H         1 UNK         0.0600 
    168 H168        3.4787  -17.5419  -40.7074 H         1 UNK         0.0600 
    169 H169        4.7118  -14.5504  -43.1600 H         1 UNK         0.3000 
    170 H170        7.9390  -15.2001  -44.0107 H         1 UNK         0.0600 
    171 H171        5.9537  -15.0700  -46.3489 H         1 UNK         0.0600 
    172 H172        7.6442  -14.5679  -46.4062 H         1 UNK         0.0600 
    173 H173        7.2378  -16.2573  -46.1605 H         1 UNK         0.0600 
    174 H174        6.1330  -13.1220  -44.8851 H         1 UNK         0.3000 
    175 H175        5.7181  -11.4457  -41.8932 H         1 UNK         0.0600 
    176 H176        7.7596  -10.5358  -43.9939 H         1 UNK         0.0600 
    177 H177        6.8987   -9.4899  -42.8632 H         1 UNK         0.0600 
    178 H178        8.0631  -10.6596  -42.2652 H         1 UNK         0.0600 
    179 H179        5.3399  -10.5231  -44.5369 H         1 UNK         0.3000 
    180 H180        3.3534  -10.4453  -45.4675 H         1 UNK         0.0600 
    181 H181        2.6619  -13.3924  -45.9537 H         1 UNK         0.0600 
    182 H182        4.0716  -12.5677  -46.6071 H         1 UNK         0.0600 
    183 H183        2.4656  -12.0630  -47.0994 H         1 UNK         0.0600 
    184 H184        0.9679  -11.9640  -44.9274 H         1 UNK         0.3000 
    185 H185       -0.3768  -11.0322  -42.6302 H         1 UNK         0.0600 
    186 H186       -0.2099   -8.6519  -41.9994 H         1 UNK         0.0600 
    187 H187       -0.6832   -8.1502  -43.6180 H         1 UNK         0.0600 
    188 H188       -1.8288   -8.9983  -42.5821 H         1 UNK         0.0600 
    189 H189       -1.8364  -11.4937  -44.2300 H         1 UNK         0.3000 
    190 H190       -3.7638  -21.0255  -44.4008 H         1 UNK         0.3000 
    191 H191       -6.1267  -22.1421  -43.2974 H         1 UNK         0.0600 
    192 H192       -3.2090  -22.4611  -42.4143 H         1 UNK         0.0600 
    193 H193       -4.2744  -21.1314  -41.9611 H         1 UNK         0.0600 
    194 H194       -4.6245  -22.7655  -41.4164 H         1 UNK         0.0600 
    195 H195       -3.6256  -23.6137  -45.2516 H         1 UNK         0.3000 
    196 H196       -4.5773  -26.3809  -44.7458 H         1 UNK         0.0600 
    197 H197       -2.1203  -25.9403  -44.6212 H         1 UNK         0.0600 
    198 H198       -2.1363  -25.3309  -46.2717 H         1 UNK         0.0600 
    199 H199       -2.5107  -27.0203  -45.9484 H         1 UNK         0.0600 
    200 H200       -6.0701  -24.1872  -46.2630 H         1 UNK         0.3000 
    201 H201       -7.4321  -23.9608  -47.9872 H         1 UNK         0.0600 
    202 H202       -8.3616  -25.9637  -49.0928 H         1 UNK         0.0600 
    203 H203       -8.2061  -26.2532  -47.3675 H         1 UNK         0.0600 
    204 H204       -7.0469  -26.9616  -48.4910 H         1 UNK         0.0600 
    205 H205       -5.0545  -22.9938  -48.4534 H         1 UNK         0.3000 
    206 H206       -3.6466  -22.1408  -49.9440 H         1 UNK         0.0600 
    207 H207       -5.6006  -21.6272  -51.3620 H         1 UNK         0.0600 
    208 H208       -5.5278  -23.2201  -52.1079 H         1 UNK         0.0600 
    209 H209       -4.2310  -22.0676  -52.3655 H         1 UNK         0.0600 
    210 H210       -2.9126  -24.3590  -48.7170 H         1 UNK         0.3000 
    211 H211       -1.5939  -26.1519  -48.5994 H         1 UNK         0.0600 
    212 H212        0.0817  -24.5486  -49.5153 H         1 UNK         0.0600 
    213 H213        0.4230  -26.1864  -50.0510 H         1 UNK         0.0600 
    214 H214       -0.3176  -25.0400  -51.1597 H         1 UNK         0.0600 
    215 H215       -3.9631  -26.9228  -49.3410 H         1 UNK         0.3000 
    216 H216       -5.3298  -28.3126  -50.3784 H         1 UNK         0.0600 
    217 H217       -4.4844  -30.5341  -51.0538 H         1 UNK         0.0600 
    218 H218       -2.8306  -29.9392  -51.0944 H         1 UNK         0.0600 
    219 H219       -3.7034  -30.0262  -49.5649 H         1 UNK         0.0600 
    220 H220       -4.9968  -26.1159  -51.7551 H         1 UNK         0.3000 
    221 H221       -5.2553  -25.0096  -53.6188 H         1 UNK         0.0600 
    222 H222       -6.1183  -27.6458  -54.9115 H         1 UNK         0.0600 
    223 H223       -7.1528  -26.6136  -53.9240 H         1 UNK         0.0600 
    224 H224       -6.5315  -26.0263  -55.4560 H         1 UNK         0.0600 
    225 H225       -2.5509  -26.3153  -53.1843 H         1 UNK         0.3000 
    226 H226       -1.4480  -26.5267  -55.9040 H         1 UNK         0.0600 
    227 H227       -0.6187  -27.9896  -54.0370 H         1 UNK         0.0600 
    228 H228        0.6570  -27.0152  -54.7535 H         1 UNK         0.0600 
    229 H229       -0.0214  -26.5565  -53.1992 H         1 UNK         0.0600 
    230 H230       -1.7760  -24.0742  -53.3537 H         1 UNK         0.3000 
    231 H231        0.2816  -22.3078  -54.4313 H         1 UNK         0.0600 
    232 H232       -0.4901  -20.7663  -52.6762 H         1 UNK         0.0600 
    233 H233       -0.3097  -22.3718  -51.9848 H         1 UNK         0.0600 
    234 H234       -1.9124  -21.7479  -52.3664 H         1 UNK         0.0600 
    235 H235       -0.0209  -20.4840  -55.6636 H         1 UNK         0.3000 
    236 H236       -2.0605  -20.4246  -57.5878 H         1 UNK         0.0600 
    237 H237       -0.0719  -18.2418  -56.7580 H         1 UNK         0.0600 
    238 H238        0.2217  -19.5173  -57.9418 H         1 UNK         0.0600 
    239 H239       -0.9749  -18.2746  -58.2675 H         1 UNK         0.0600 
    240 H240       -2.0007  -18.9427  -54.4336 H         1 UNK         0.3000 
    241 H241       -4.1733  -17.0728  -54.9133 H         1 UNK         0.0600 
    242 H242       -4.2844  -20.5182  -54.6340 H         1 UNK         0.3800 
    243 H243       -5.9351  -20.5838  -54.0722 H         1 UNK         0.3800 
    244 H244       -4.0955  -16.6479  -52.4819 H         1 UNK         0.0800 
    245 H245       -3.0258  -18.0040  -52.2493 H         1 UNK         0.0800 
    246 H246        0.3455  -16.4397  -52.4616 H         1 UNK         0.0800 
    247 H247       -0.6236  -17.8574  -52.1669 H         1 UNK         0.0800 
@<TRIPOS>BOND
     1    1    2 1    
     2    1  127 1    
     3    1  128 1    
     4    1  129 1    
     5    2    3 2    
     6    2    4 am   BACKBONE|DICT|INTERRES
     7    4    5 1    
     8    4  130 1    
     9    5    6 1    
    10    5   65 1    
    11    5  131 1    
    12    6    7 1    
    13    6  132 1    
    14    6  133 1    
    15    7    8 1    
    16    8    9 1    
    17    8  134 1    
    18    8  135 1    
    19    9   10 ar   
    20    9   14 ar   
    21   10   11 ar   
    22   10  136 1    
    23   11   12 ar   
    24   11  126 1    
    25   12   13 ar   
    26   12  137 1    
    27   13   14 ar   
    28   13   15 1    
    29   14  138 1    
    30   15   16 1    
    31   15  139 1    
    32   15  140 1    
    33   16   17 1    
    34   17   18 1    
    35   17  141 1    
    36   17  142 1    
    37   18   19 1    
    38   18   67 1    
    39   18  143 1    
    40   19   20 am   BACKBONE|DICT|INTERRES
    41   19  144 1    
    42   20   21 2    
    43   20   22 1    
    44   22   23 1    
    45   22   24 1    
    46   22  145 1    
    47   23  146 1    
    48   23  147 1    
    49   23  148 1    
    50   24   25 am   BACKBONE|DICT|INTERRES
    51   24  149 1    
    52   25   26 2    
    53   25   27 1    
    54   27   28 1    
    55   27   29 1    
    56   27  150 1    
    57   28  151 1    
    58   28  152 1    
    59   28  153 1    
    60   29   30 am   BACKBONE|DICT|INTERRES
    61   29  154 1    
    62   30   31 2    
    63   30   32 1    
    64   32   33 1    
    65   32   34 1    
    66   32  155 1    
    67   33  156 1    
    68   33  157 1    
    69   33  158 1    
    70   34   35 am   BACKBONE|DICT|INTERRES
    71   34  159 1    
    72   35   36 2    
    73   35   37 1    
    74   37   38 1    
    75   37   39 1    
    76   37  160 1    
    77   38  161 1    
    78   38  162 1    
    79   38  163 1    
    80   39   40 am   BACKBONE|DICT|INTERRES
    81   39  164 1    
    82   40   41 2    
    83   40   42 1    
    84   42   43 1    
    85   42   44 1    
    86   42  165 1    
    87   43  166 1    
    88   43  167 1    
    89   43  168 1    
    90   44   45 am   BACKBONE|DICT|INTERRES
    91   44  169 1    
    92   45   46 2    
    93   45   47 1    
    94   47   48 1    
    95   47   49 1    
    96   47  170 1    
    97   48  171 1    
    98   48  172 1    
    99   48  173 1    
   100   49   50 am   BACKBONE|DICT|INTERRES
   101   49  174 1    
   102   50   51 2    
   103   50   52 1    
   104   52   53 1    
   105   52   54 1    
   106   52  175 1    
   107   53  176 1    
   108   53  177 1    
   109   53  178 1    
   110   54   55 am   BACKBONE|DICT|INTERRES
   111   54  179 1    
   112   55   56 2    
   113   55   57 1    
   114   57   58 1    
   115   57   59 1    
   116   57  180 1    
   117   58  181 1    
   118   58  182 1    
   119   58  183 1    
   120   59   60 am   BACKBONE|DICT|INTERRES
   121   59  184 1    
   122   60   61 2    
   123   60   62 1    
   124   62   63 1    
   125   62   64 1    
   126   62  185 1    
   127   63  186 1    
   128   63  187 1    
   129   63  188 1    
   130   64   65 am   BACKBONE|DICT|INTERRES
   131   64  189 1    
   132   65   66 2    
   133   67   68 2    
   134   67   69 am   BACKBONE|DICT|INTERRES
   135   69   70 1    
   136   69  190 1    
   137   70   71 1    
   138   70   72 1    
   139   70  191 1    
   140   71  192 1    
   141   71  193 1    
   142   71  194 1    
   143   72   73 2    
   144   72   74 am   BACKBONE|DICT|INTERRES
   145   74   75 1    
   146   74  195 1    
   147   75   76 1    
   148   75   77 1    
   149   75  196 1    
   150   76  197 1    
   151   76  198 1    
   152   76  199 1    
   153   77   78 2    
   154   77   79 am   BACKBONE|DICT|INTERRES
   155   79   80 1    
   156   79  200 1    
   157   80   81 1    
   158   80   82 1    
   159   80  201 1    
   160   81  202 1    
   161   81  203 1    
   162   81  204 1    
   163   82   83 2    
   164   82   84 am   BACKBONE|DICT|INTERRES
   165   84   85 1    
   166   84  205 1    
   167   85   86 1    
   168   85   87 1    
   169   85  206 1    
   170   86  207 1    
   171   86  208 1    
   172   86  209 1    
   173   87   88 2    
   174   87   89 am   BACKBONE|DICT|INTERRES
   175   89   90 1    
   176   89  210 1    
   177   90   91 1    
   178   90   92 1    
   179   90  211 1    
   180   91  212 1    
   181   91  213 1    
   182   91  214 1    
   183   92   93 2    
   184   92   94 am   BACKBONE|DICT|INTERRES
   185   94   95 1    
   186   94  215 1    
   187   95   96 1    
   188   95   97 1    
   189   95  216 1    
   190   96  217 1    
   191   96  218 1    
   192   96  219 1    
   193   97   98 2    
   194   97   99 am   BACKBONE|DICT|INTERRES
   195   99  100 1    
   196   99  220 1    
   197  100  101 1    
   198  100  102 1    
   199  100  221 1    
   200  101  222 1    
   201  101  223 1    
   202  101  224 1    
   203  102  103 2    
   204  102  104 am   BACKBONE|DICT|INTERRES
   205  104  105 1    
   206  104  225 1    
   207  105  106 1    
   208  105  107 1    
   209  105  226 1    
   210  106  227 1    
   211  106  228 1    
   212  106  229 1    
   213  107  108 2    
   214  107  109 am   BACKBONE|DICT|INTERRES
   215  109  110 1    
   216  109  230 1    
   217  110  111 1    
   218  110  112 1    
   219  110  231 1    
   220  111  232 1    
   221  111  233 1    
   222  111  234 1    
   223  112  113 2    
   224  112  114 am   BACKBONE|DICT|INTERRES
   225  114  115 1    
   226  114  235 1    
   227  115  116 1    
   228  115  117 1    
   229  115  236 1    
   230  116  237 1    
   231  116  238 1    
   232  116  239 1    
   233  117  118 2    
   234  117  119 am   BACKBONE|DICT|INTERRES
   235  119  120 1    
   236  119  240 1    
   237  120  121 1    
   238  120  124 1    
   239  120  241 1    
   240  121  122 am   BACKBONE|DICT|INTERRES
   241  121  123 2    
   242  122  242 1    
   243  122  243 1    
   244  124  125 1    
   245  124  244 1    
   246  124  245 1    
   247  125  126 1    
   248  126  246 1    
   249  126  247 1    
@<TRIPOS>SUBSTRUCTURE
     1 UNK         1 GROUP             0       ****    0 ROOT    
