@<TRIPOS>MOLECULE
3R540
247   249    1
SMALL
USER_CHARGES


@<TRIPOS>ATOM
      1 CA          6.3214  -15.8965  -45.7449 C.3       0 UNK        -0.1800 
      2 C           5.2392  -15.0260  -46.3657 C.2       0 UNK         0.5000 
      3 O           5.4394  -13.8219  -46.5273 O.2       0 UNK        -0.5000 
      4 N           4.0871  -15.6249  -46.6987 N.am      1 UNK        -0.5000 
      5 CA          2.9016  -14.9628  -47.2541 C.3       1 UNK         0.1400 
      6 C6          3.1355  -14.4447  -48.7014 C.3       23 UNK        -0.0398 
      7 S7          1.5686  -14.0985  -49.5683 S.3       23 UNK        -0.2404 
      8 C8          1.2773  -15.6942  -50.3886 C.3       23 UNK        -0.0205 
      9 C9         -0.1819  -15.8422  -50.7829 C.ar      23 UNK        -0.0193 
     10 C10        -0.6106  -15.5058  -52.0703 C.ar      23 UNK        -0.1150 
     11 C11        -1.9530  -15.6445  -52.4409 C.ar      23 UNK        -0.0193 
     12 C12        -2.8658  -16.1288  -51.4933 C.ar      23 UNK        -0.1150 
     13 C13        -2.4458  -16.4856  -50.2100 C.ar      23 UNK        -0.0193 
     14 C14        -1.1050  -16.3290  -49.8552 C.ar      23 UNK        -0.1150 
     15 C15        -3.4429  -17.0602  -49.2182 C.3       23 UNK        -0.0205 
     16 S16        -3.5987  -18.8613  -49.4188 S.3       23 UNK        -0.2404 
     17 C17        -2.0584  -19.4405  -48.6329 C.3       23 UNK        -0.0398 
     18 CA         -1.9836  -20.9746  -48.4333 C.3       11 UNK         0.1400 
     19 N          -0.6343  -21.3653  -48.0138 N.am      11 UNK        -0.5000 
     20 C          -0.2257  -22.5823  -47.6265 C.2       10 UNK         0.5000 
     21 O          -0.9307  -23.5910  -47.6604 O.2       10 UNK        -0.5000 
     22 CA          1.1973  -22.6774  -47.0435 C.3       10 UNK         0.1400 
     23 CB          2.1860  -23.1165  -48.1329 C.3       10 UNK        -0.1800 
     24 N           1.6842  -21.4407  -46.4151 N.am      10 UNK        -0.5000 
     25 C           1.0695  -20.7719  -45.4287 C.2       9 UNK         0.5000 
     26 O          -0.0322  -21.0882  -44.9706 O.2       9 UNK        -0.5000 
     27 CA          1.7723  -19.5038  -44.9186 C.3       9 UNK         0.1400 
     28 CB          1.4628  -18.3176  -45.8478 C.3       9 UNK        -0.1800 
     29 N           1.3140  -19.1954  -43.5655 N.am      9 UNK        -0.5000 
     30 C           1.7902  -19.7836  -42.4582 C.2       8 UNK         0.5000 
     31 O           2.7602  -20.5429  -42.4618 O.2       8 UNK        -0.5000 
     32 CA          1.0728  -19.4938  -41.1249 C.3       8 UNK         0.1400 
     33 CB          2.0299  -18.9039  -40.0751 C.3       8 UNK        -0.1800 
     34 N          -0.0740  -18.5974  -41.2928 N.am      8 UNK        -0.5000 
     35 C          -1.3446  -19.0178  -41.3643 C.2       7 UNK         0.5000 
     36 O          -1.6839  -20.1948  -41.2395 O.2       7 UNK        -0.5000 
     37 CA         -2.4258  -17.9534  -41.6246 C.3       7 UNK         0.1400 
     38 CB         -2.9030  -17.3406  -40.2994 C.3       7 UNK        -0.1800 
     39 N          -2.0028  -16.8756  -42.5170 N.am      7 UNK        -0.5000 
     40 C          -1.6392  -16.9933  -43.7992 C.2       6 UNK         0.5000 
     41 O          -1.5741  -18.0719  -44.3857 O.2       6 UNK        -0.5000 
     42 CA         -1.2594  -15.7020  -44.5584 C.3       6 UNK         0.1400 
     43 CB         -2.4838  -15.0917  -45.2635 C.3       6 UNK        -0.1800 
     44 N          -0.5451  -14.6994  -43.7553 N.am      6 UNK        -0.5000 
     45 C          -0.9619  -14.0165  -42.6774 C.2       5 UNK         0.5000 
     46 O          -2.1147  -14.0666  -42.2456 O.2       5 UNK        -0.5000 
     47 CA          0.0977  -13.1859  -41.9214 C.3       5 UNK         0.1400 
     48 CB         -0.2260  -13.0510  -40.4192 C.3       5 UNK        -0.1800 
     49 N           1.4721  -13.6698  -42.0955 N.am      5 UNK        -0.5000 
     50 C           1.9676  -14.8891  -41.8191 C.2       4 UNK         0.5000 
     51 O           1.2867  -15.8166  -41.3766 O.2       4 UNK        -0.5000 
     52 CA          3.4659  -15.1190  -42.1219 C.3       4 UNK         0.1400 
     53 CB          3.6925  -16.4140  -42.9183 C.3       4 UNK        -0.1800 
     54 N           4.0302  -14.0130  -42.8947 N.am      4 UNK        -0.5000 
     55 C           4.7752  -13.0116  -42.4096 C.2       3 UNK         0.5000 
     56 O           5.1650  -12.9496  -41.2436 O.2       3 UNK        -0.5000 
     57 CA          5.1145  -11.8671  -43.3869 C.3       3 UNK         0.1400 
     58 CB          6.5617  -11.9905  -43.8870 C.3       3 UNK        -0.1800 
     59 N           4.2004  -11.8081  -44.5343 N.am      3 UNK        -0.5000 
     60 C           2.9269  -11.3900  -44.4575 C.2       2 UNK         0.5000 
     61 O           2.4120  -10.9824  -43.4166 O.2       2 UNK        -0.5000 
     62 CA          2.0598  -11.5023  -45.7270 C.3       2 UNK         0.1400 
     63 CB          2.1188  -10.1994  -46.5372 C.3       2 UNK        -0.1800 
     64 N           2.4313  -12.6226  -46.5921 N.am      2 UNK        -0.5000 
     65 C           2.3671  -13.9162  -46.2492 C.2       1 UNK         0.5000 
     66 O           1.9527  -14.3052  -45.1555 O.2       1 UNK        -0.5000 
     67 C          -3.0724  -21.4862  -47.4632 C.2       11 UNK         0.5000 
     68 O          -4.0451  -22.0940  -47.9126 O.2       11 UNK        -0.5000 
     69 N          -2.8476  -21.2865  -46.1583 N.am      12 UNK        -0.5000 
     70 CA         -3.7250  -21.7583  -45.0929 C.3       12 UNK         0.1400 
     71 CB         -3.8848  -20.6415  -44.0529 C.3       12 UNK        -0.1800 
     72 C          -3.1740  -23.0320  -44.4328 C.2       12 UNK         0.5000 
     73 O          -3.9433  -23.9603  -44.1853 O.2       12 UNK        -0.5000 
     74 N          -1.8618  -23.0636  -44.1575 N.am      13 UNK        -0.5000 
     75 CA         -1.2056  -24.1035  -43.3602 C.3       13 UNK         0.1400 
     76 CB          0.1974  -23.6251  -42.9557 C.3       13 UNK        -0.1800 
     77 C          -1.1310  -25.4776  -44.0502 C.2       13 UNK         0.5000 
     78 O          -1.1723  -26.4969  -43.3602 O.2       13 UNK        -0.5000 
     79 N          -1.0336  -25.4841  -45.3852 N.am      14 UNK        -0.5000 
     80 CA         -1.0222  -26.6873  -46.2216 C.3       14 UNK         0.1400 
     81 CB          0.2899  -26.7195  -47.0256 C.3       14 UNK        -0.1800 
     82 C          -2.2488  -26.7392  -47.1537 C.2       14 UNK         0.5000 
     83 O          -2.3307  -27.6411  -47.9885 O.2       14 UNK        -0.5000 
     84 N          -3.1685  -25.7713  -47.0061 N.am      15 UNK        -0.5000 
     85 CA         -4.3701  -25.5449  -47.8159 C.3       15 UNK         0.1400 
     86 CB         -5.3959  -26.6761  -47.5973 C.3       15 UNK        -0.1800 
     87 C          -4.0620  -25.2921  -49.3089 C.2       15 UNK         0.5000 
     88 O          -4.8615  -25.6550  -50.1746 O.2       15 UNK        -0.5000 
     89 N          -2.9108  -24.6634  -49.5939 N.am      16 UNK        -0.5000 
     90 CA         -2.4172  -24.4015  -50.9485 C.3       16 UNK         0.1400 
     91 CB         -0.9185  -24.0669  -50.8984 C.3       16 UNK        -0.1800 
     92 C          -3.1967  -23.3133  -51.7134 C.2       16 UNK         0.5000 
     93 O          -2.9201  -23.1160  -52.8950 O.2       16 UNK        -0.5000 
     94 N          -4.1614  -22.6458  -51.0616 N.am      17 UNK        -0.5000 
     95 CA         -5.0581  -21.6358  -51.6348 C.3       17 UNK         0.1400 
     96 CB         -6.1102  -21.2549  -50.5812 C.3       17 UNK        -0.1800 
     97 C          -5.7696  -22.0873  -52.9250 C.2       17 UNK         0.5000 
     98 O          -5.8837  -21.3010  -53.8671 O.2       17 UNK        -0.5000 
     99 N          -6.2130  -23.3518  -52.9469 N.am      18 UNK        -0.5000 
    100 CA        -6.8782  -23.9774  -54.0891 C.3       18 UNK         0.1400 
    101 CB        -7.5875  -25.2563  -53.6194 C.3       18 UNK        -0.1800 
    102 C         -5.9104  -24.2889  -55.2450 C.2       18 UNK         0.5000 
    103 O         -6.2916  -24.1487  -56.4069 O.2       18 UNK        -0.5000 
    104 N         -4.6755  -24.6872  -54.9091 N.am      19 UNK        -0.5000 
    105 CA        -3.6079  -24.9856  -55.8663 C.3       19 UNK         0.1400 
    106 CB        -2.5077  -25.8006  -55.1681 C.3       19 UNK        -0.1800 
    107 C         -3.0284  -23.7075  -56.4970 C.2       19 UNK         0.5000 
    108 O         -2.7577  -23.6847  -57.6980 O.2       19 UNK        -0.5000 
    109 N         -2.8824  -22.6586  -55.6771 N.am      20 UNK        -0.5000 
    110 CA        -2.4626  -21.3179  -56.0835 C.3       20 UNK         0.1400 
    111 CB        -2.0839  -20.5209  -54.8237 C.3       20 UNK        -0.1800 
    112 C         -3.5417  -20.5585  -56.8793 C.2       20 UNK         0.5000 
    113 O         -3.2068  -19.5944  -57.5683 O.2       20 UNK        -0.5000 
    114 N         -4.8076  -20.9860  -56.7415 N.am      21 UNK        -0.5000 
    115 CA        -6.0283  -20.3430  -57.2403 C.3       21 UNK         0.1400 
    116 CB        -6.0857  -20.3811  -58.7814 C.3       21 UNK        -0.1800 
    117 C         -6.1917  -18.9263  -56.6510 C.2       21 UNK         0.5000 
    118 O         -6.4719  -17.9701  -57.3766 O.2       21 UNK        -0.5000 
    119 N         -5.9626  -18.8290  -55.3372 N.am      22 UNK        -0.5000 
    120 CA        -5.8554  -17.5797  -54.5721 C.3       22 UNK         0.1400 
    121 C         -6.6261  -17.6239  -53.2181 C.2       22 UNK         0.5000 
    122 N         -7.4226  -18.6497  -52.9423 N.am      22 UNK        -0.7600 
    123 O         -6.5323  -16.7043  -52.4112 O.2       22 UNK        -0.5000 
    124 C124       -4.3644  -17.1644  -54.4304 C.3       23 UNK        -0.0398 
    125 S125       -4.1256  -15.3598  -54.2871 S.3       23 UNK        -0.2404 
    126 C126       -2.3477  -15.2640  -53.8718 C.3       23 UNK        -0.0205 
    127 H127        6.0056  -16.9363  -45.6574 H         1 UNK         0.0600 
    128 H128        6.5678  -15.5313  -44.7478 H         1 UNK         0.0600 
    129 H129        7.2243  -15.8637  -46.3543 H         1 UNK         0.0600 
    130 H130        3.9860  -16.6138  -46.5230 H         1 UNK         0.3000 
    131 H131        2.1361  -15.7382  -47.3046 H         1 UNK         0.0600 
    132 H132        3.7669  -13.5554  -48.7191 H         1 UNK         0.0800 
    133 H133        3.6841  -15.1928  -49.2756 H         1 UNK         0.0800 
    134 H134        1.5561  -16.5121  -49.7222 H         1 UNK         0.0800 
    135 H135        1.9227  -15.7758  -51.2645 H         1 UNK         0.0800 
    136 H136        0.1061  -15.1317  -52.7883 H         1 UNK         0.1150 
    137 H137       -3.9099  -16.2486  -51.7401 H         1 UNK         0.1150 
    138 H138       -0.7767  -16.5951  -48.8603 H         1 UNK         0.1150 
    139 H139       -3.1536  -16.8204  -48.1943 H         1 UNK         0.0800 
    140 H140       -4.4215  -16.6033  -49.3740 H         1 UNK         0.0800 
    141 H141       -1.9269  -18.9229  -47.6804 H         1 UNK         0.0800 
    142 H142       -1.2334  -19.1212  -49.2707 H         1 UNK         0.0800 
    143 H143       -2.1595  -21.4485  -49.3995 H         1 UNK         0.0600 
    144 H144        0.0371  -20.6166  -47.9383 H         1 UNK         0.3000 
    145 H145        1.1765  -23.4497  -46.2726 H         1 UNK         0.0600 
    146 H146        3.1763  -23.3010  -47.7163 H         1 UNK         0.0600 
    147 H147        1.8595  -24.0419  -48.6097 H         1 UNK         0.0600 
    148 H148        2.2842  -22.3626  -48.9149 H         1 UNK         0.0600 
    149 H149        2.5774  -21.1030  -46.7439 H         1 UNK         0.3000 
    150 H150        2.8519  -19.6674  -44.9049 H         1 UNK         0.0600 
    151 H151        1.9791  -18.4274  -46.8019 H         1 UNK         0.0600 
    152 H152        1.7806  -17.3721  -45.4115 H         1 UNK         0.0600 
    153 H153        0.3983  -18.2390  -46.0676 H         1 UNK         0.0600 
    154 H154        0.4426  -18.6871  -43.4981 H         1 UNK         0.3000 
    155 H155        0.7407  -20.4612  -40.7430 H         1 UNK         0.0600 
    156 H156        2.4232  -17.9344  -40.3740 H         1 UNK         0.0600 
    157 H157        2.8814  -19.5637  -39.9047 H         1 UNK         0.0600 
    158 H158        1.5259  -18.7748  -39.1172 H         1 UNK         0.0600 
    159 H159        0.1365  -17.6087  -41.3889 H         1 UNK         0.3000 
    160 H160       -3.2756  -18.4525  -42.0934 H         1 UNK         0.0600 
    161 H161       -2.1038  -16.7894  -39.8019 H         1 UNK         0.0600 
    162 H162       -3.2484  -18.1137  -39.6118 H         1 UNK         0.0600 
    163 H163       -3.7341  -16.6534  -40.4595 H         1 UNK         0.0600 
    164 H164       -2.0542  -15.9313  -42.1457 H         1 UNK         0.3000 
    165 H165       -0.5548  -16.0003  -45.3359 H         1 UNK         0.0600 
    166 H166       -3.2436  -14.7639  -44.5538 H         1 UNK         0.0600 
    167 H167       -2.1996  -14.2339  -45.8728 H         1 UNK         0.0600 
    168 H168       -2.9528  -15.8203  -45.9254 H         1 UNK         0.0600 
    169 H169        0.4265  -14.5716  -44.0277 H         1 UNK         0.3000 
    170 H170        0.0665  -12.1877  -42.3597 H         1 UNK         0.0600 
    171 H171       -1.1874  -12.5596  -40.2653 H         1 UNK         0.0600 
    172 H172       -0.2726  -14.0237  -39.9281 H         1 UNK         0.0600 
    173 H173        0.5267  -12.4522  -39.9064 H         1 UNK         0.0600 
    174 H174        2.1115  -12.9843  -42.4752 H         1 UNK         0.3000 
    175 H175        3.9781  -15.2135  -41.1626 H         1 UNK         0.0600 
    176 H176        3.1695  -16.3928  -43.8727 H         1 UNK         0.0600 
    177 H177        4.7518  -16.5707  -43.1208 H         1 UNK         0.0600 
    178 H178        3.3416  -17.2855  -42.3701 H         1 UNK         0.0600 
    179 H179        3.7191  -13.9566  -43.8560 H         1 UNK         0.3000 
    180 H180        5.0295  -10.9286  -42.8348 H         1 UNK         0.0600 
    181 H181        6.7365  -12.9386  -44.3948 H         1 UNK         0.0600 
    182 H182        7.2653  -11.9337  -43.0556 H         1 UNK         0.0600 
    183 H183        6.8117  -11.1864  -44.5793 H         1 UNK         0.0600 
    184 H184        4.5489  -12.1811  -45.4107 H         1 UNK         0.3000 
    185 H185        1.0278  -11.6596  -45.4060 H         1 UNK         0.0600 
    186 H186        3.1249  -10.0020  -46.9094 H         1 UNK         0.0600 
    187 H187        1.4445  -10.2363  -47.3932 H         1 UNK         0.0600 
    188 H188        1.8207   -9.3458  -45.9268 H         1 UNK         0.0600 
    189 H189        2.7900  -12.3817  -47.5043 H         1 UNK         0.3000 
    190 H190       -1.9839  -20.8435  -45.8668 H         1 UNK         0.3000 
    191 H191       -4.7167  -21.9883  -45.4885 H         1 UNK         0.0600 
    192 H192       -4.5218  -20.9581  -43.2262 H         1 UNK         0.0600 
    193 H193       -4.3350  -19.7521  -44.4941 H         1 UNK         0.0600 
    194 H194       -2.9202  -20.3531  -43.6364 H         1 UNK         0.0600 
    195 H195       -1.2807  -22.2668  -44.4115 H         1 UNK         0.3000 
    196 H196       -1.7889  -24.2315  -42.4458 H         1 UNK         0.0600 
    197 H197        0.8445  -23.4918  -43.8226 H         1 UNK         0.0600 
    198 H198        0.1515  -22.6747  -42.4231 H         1 UNK         0.0600 
    199 H199        0.6805  -24.3455  -42.2946 H         1 UNK         0.0600 
    200 H200       -1.0137  -24.6042  -45.8881 H         1 UNK         0.3000 
    201 H201       -1.0618  -27.5869  -45.6046 H         1 UNK         0.0600 
    202 H202        0.3473  -25.9001  -47.7416 H         1 UNK         0.0600 
    203 H203        0.3807  -27.6493  -47.5882 H         1 UNK         0.0600 
    204 H204        1.1573  -26.6531  -46.3688 H         1 UNK         0.0600 
    205 H205       -3.0127  -25.0988  -46.2692 H         1 UNK         0.3000 
    206 H206       -4.8180  -24.6244  -47.4400 H         1 UNK         0.0600 
    207 H207       -5.5998  -26.8230  -46.5367 H         1 UNK         0.0600 
    208 H208       -6.3458  -26.4415  -48.0790 H         1 UNK         0.0600 
    209 H209       -5.0475  -27.6245  -48.0072 H         1 UNK         0.0600 
    210 H210       -2.3064  -24.3777  -48.8288 H         1 UNK         0.3000 
    211 H211       -2.5270  -25.3253  -51.5201 H         1 UNK         0.0600 
    212 H212       -0.4921  -24.0490  -51.9022 H         1 UNK         0.0600 
    213 H213       -0.3631  -24.8083  -50.3235 H         1 UNK         0.0600 
    214 H214       -0.7366  -23.0889  -50.4557 H         1 UNK         0.0600 
    215 H215       -4.2954  -22.8510  -50.0798 H         1 UNK         0.3000 
    216 H216       -4.4590  -20.7545  -51.8713 H         1 UNK         0.0600 
    217 H217       -6.7346  -22.1066  -50.3087 H         1 UNK         0.0600 
    218 H218       -6.7691  -20.4692  -50.9491 H         1 UNK         0.0600 
    219 H219       -5.6493  -20.8829  -49.6682 H         1 UNK         0.0600 
    220 H220       -6.0668  -23.9279  -52.1295 H         1 UNK         0.3000 
    221 H221       -7.6358  -23.2870  -54.4664 H         1 UNK         0.0600 
    222 H222       -8.3325  -25.0350  -52.8549 H         1 UNK         0.0600 
    223 H223       -6.8838  -25.9783  -53.2027 H         1 UNK         0.0600 
    224 H224       -8.1063  -25.7420  -54.4469 H         1 UNK         0.0600 
    225 H225       -4.4285  -24.7195  -53.9311 H         1 UNK         0.3000 
    226 H226       -4.0247  -25.5971  -56.6695 H         1 UNK         0.0600 
    227 H227       -2.0455  -25.2450  -54.3517 H         1 UNK         0.0600 
    228 H228       -2.9048  -26.7296  -54.7589 H         1 UNK         0.0600 
    229 H229       -1.7170  -26.0671  -55.8706 H         1 UNK         0.0600 
    230 H230       -3.0586  -22.7934  -54.6832 H         1 UNK         0.3000 
    231 H231       -1.5788  -21.4078  -56.7182 H         1 UNK         0.0600 
    232 H232       -2.9347  -20.4080  -54.1501 H         1 UNK         0.0600 
    233 H233       -1.7334  -19.5205  -55.0809 H         1 UNK         0.0600 
    234 H234       -1.2843  -21.0139  -54.2703 H         1 UNK         0.0600 
    235 H235       -4.9585  -21.7704  -56.1226 H         1 UNK         0.3000 
    236 H236       -6.8640  -20.9340  -56.8627 H         1 UNK         0.0600 
    237 H237       -5.9688  -21.3992  -59.1531 H         1 UNK         0.0600 
    238 H238       -7.0453  -20.0111  -59.1438 H         1 UNK         0.0600 
    239 H239       -5.3071  -19.7670  -59.2346 H         1 UNK         0.0600 
    240 H240       -5.7792  -19.6835  -54.8159 H         1 UNK         0.3000 
    241 H241       -6.3680  -16.8010  -55.1395 H         1 UNK         0.0600 
    242 H242       -7.9361  -18.6511  -52.0759 H         1 UNK         0.3800 
    243 H243       -7.5248  -19.4150  -53.5901 H         1 UNK         0.3800 
    244 H244       -3.8950  -17.6856  -53.5953 H         1 UNK         0.0800 
    245 H245       -3.8061  -17.4733  -55.3159 H         1 UNK         0.0800 
    246 H246       -2.0235  -14.2381  -54.0524 H         1 UNK         0.0800 
    247 H247       -1.7901  -15.8882  -54.5717 H         1 UNK         0.0800 
@<TRIPOS>BOND
     1    1    2 1    
     2    1  127 1    
     3    1  128 1    
     4    1  129 1    
     5    2    3 2    
     6    2    4 am   BACKBONE|DICT|INTERRES
     7    4    5 1    
     8    4  130 1    
     9    5    6 1    
    10    5   65 1    
    11    5  131 1    
    12    6    7 1    
    13    6  132 1    
    14    6  133 1    
    15    7    8 1    
    16    8    9 1    
    17    8  134 1    
    18    8  135 1    
    19    9   10 ar   
    20    9   14 ar   
    21   10   11 ar   
    22   10  136 1    
    23   11   12 ar   
    24   11  126 1    
    25   12   13 ar   
    26   12  137 1    
    27   13   14 ar   
    28   13   15 1    
    29   14  138 1    
    30   15   16 1    
    31   15  139 1    
    32   15  140 1    
    33   16   17 1    
    34   17   18 1    
    35   17  141 1    
    36   17  142 1    
    37   18   19 1    
    38   18   67 1    
    39   18  143 1    
    40   19   20 am   BACKBONE|DICT|INTERRES
    41   19  144 1    
    42   20   21 2    
    43   20   22 1    
    44   22   23 1    
    45   22   24 1    
    46   22  145 1    
    47   23  146 1    
    48   23  147 1    
    49   23  148 1    
    50   24   25 am   BACKBONE|DICT|INTERRES
    51   24  149 1    
    52   25   26 2    
    53   25   27 1    
    54   27   28 1    
    55   27   29 1    
    56   27  150 1    
    57   28  151 1    
    58   28  152 1    
    59   28  153 1    
    60   29   30 am   BACKBONE|DICT|INTERRES
    61   29  154 1    
    62   30   31 2    
    63   30   32 1    
    64   32   33 1    
    65   32   34 1    
    66   32  155 1    
    67   33  156 1    
    68   33  157 1    
    69   33  158 1    
    70   34   35 am   BACKBONE|DICT|INTERRES
    71   34  159 1    
    72   35   36 2    
    73   35   37 1    
    74   37   38 1    
    75   37   39 1    
    76   37  160 1    
    77   38  161 1    
    78   38  162 1    
    79   38  163 1    
    80   39   40 am   BACKBONE|DICT|INTERRES
    81   39  164 1    
    82   40   41 2    
    83   40   42 1    
    84   42   43 1    
    85   42   44 1    
    86   42  165 1    
    87   43  166 1    
    88   43  167 1    
    89   43  168 1    
    90   44   45 am   BACKBONE|DICT|INTERRES
    91   44  169 1    
    92   45   46 2    
    93   45   47 1    
    94   47   48 1    
    95   47   49 1    
    96   47  170 1    
    97   48  171 1    
    98   48  172 1    
    99   48  173 1    
   100   49   50 am   BACKBONE|DICT|INTERRES
   101   49  174 1    
   102   50   51 2    
   103   50   52 1    
   104   52   53 1    
   105   52   54 1    
   106   52  175 1    
   107   53  176 1    
   108   53  177 1    
   109   53  178 1    
   110   54   55 am   BACKBONE|DICT|INTERRES
   111   54  179 1    
   112   55   56 2    
   113   55   57 1    
   114   57   58 1    
   115   57   59 1    
   116   57  180 1    
   117   58  181 1    
   118   58  182 1    
   119   58  183 1    
   120   59   60 am   BACKBONE|DICT|INTERRES
   121   59  184 1    
   122   60   61 2    
   123   60   62 1    
   124   62   63 1    
   125   62   64 1    
   126   62  185 1    
   127   63  186 1    
   128   63  187 1    
   129   63  188 1    
   130   64   65 am   BACKBONE|DICT|INTERRES
   131   64  189 1    
   132   65   66 2    
   133   67   68 2    
   134   67   69 am   BACKBONE|DICT|INTERRES
   135   69   70 1    
   136   69  190 1    
   137   70   71 1    
   138   70   72 1    
   139   70  191 1    
   140   71  192 1    
   141   71  193 1    
   142   71  194 1    
   143   72   73 2    
   144   72   74 am   BACKBONE|DICT|INTERRES
   145   74   75 1    
   146   74  195 1    
   147   75   76 1    
   148   75   77 1    
   149   75  196 1    
   150   76  197 1    
   151   76  198 1    
   152   76  199 1    
   153   77   78 2    
   154   77   79 am   BACKBONE|DICT|INTERRES
   155   79   80 1    
   156   79  200 1    
   157   80   81 1    
   158   80   82 1    
   159   80  201 1    
   160   81  202 1    
   161   81  203 1    
   162   81  204 1    
   163   82   83 2    
   164   82   84 am   BACKBONE|DICT|INTERRES
   165   84   85 1    
   166   84  205 1    
   167   85   86 1    
   168   85   87 1    
   169   85  206 1    
   170   86  207 1    
   171   86  208 1    
   172   86  209 1    
   173   87   88 2    
   174   87   89 am   BACKBONE|DICT|INTERRES
   175   89   90 1    
   176   89  210 1    
   177   90   91 1    
   178   90   92 1    
   179   90  211 1    
   180   91  212 1    
   181   91  213 1    
   182   91  214 1    
   183   92   93 2    
   184   92   94 am   BACKBONE|DICT|INTERRES
   185   94   95 1    
   186   94  215 1    
   187   95   96 1    
   188   95   97 1    
   189   95  216 1    
   190   96  217 1    
   191   96  218 1    
   192   96  219 1    
   193   97   98 2    
   194   97   99 am   BACKBONE|DICT|INTERRES
   195   99  100 1    
   196   99  220 1    
   197  100  101 1    
   198  100  102 1    
   199  100  221 1    
   200  101  222 1    
   201  101  223 1    
   202  101  224 1    
   203  102  103 2    
   204  102  104 am   BACKBONE|DICT|INTERRES
   205  104  105 1    
   206  104  225 1    
   207  105  106 1    
   208  105  107 1    
   209  105  226 1    
   210  106  227 1    
   211  106  228 1    
   212  106  229 1    
   213  107  108 2    
   214  107  109 am   BACKBONE|DICT|INTERRES
   215  109  110 1    
   216  109  230 1    
   217  110  111 1    
   218  110  112 1    
   219  110  231 1    
   220  111  232 1    
   221  111  233 1    
   222  111  234 1    
   223  112  113 2    
   224  112  114 am   BACKBONE|DICT|INTERRES
   225  114  115 1    
   226  114  235 1    
   227  115  116 1    
   228  115  117 1    
   229  115  236 1    
   230  116  237 1    
   231  116  238 1    
   232  116  239 1    
   233  117  118 2    
   234  117  119 am   BACKBONE|DICT|INTERRES
   235  119  120 1    
   236  119  240 1    
   237  120  121 1    
   238  120  124 1    
   239  120  241 1    
   240  121  122 am   BACKBONE|DICT|INTERRES
   241  121  123 2    
   242  122  242 1    
   243  122  243 1    
   244  124  125 1    
   245  124  244 1    
   246  124  245 1    
   247  125  126 1    
   248  126  246 1    
   249  126  247 1    
@<TRIPOS>SUBSTRUCTURE
     1 UNK         1 GROUP             0       ****    0 ROOT    
