@<TRIPOS>MOLECULE
3R540
247   249    1
SMALL
USER_CHARGES


@<TRIPOS>ATOM
      1 CA          5.8200  -13.0062  -47.5322 C.3       0 UNK        -0.1800 
      2 C           4.5297  -13.8115  -47.5882 C.2       0 UNK         0.5000 
      3 O           4.3976  -14.8031  -46.8721 O.2       0 UNK        -0.5000 
      4 N           3.5804  -13.3833  -48.4312 N.am      1 UNK        -0.5000 
      5 CA          2.2643  -14.0138  -48.6268 C.3       1 UNK         0.1400 
      6 C6          1.5343  -13.4559  -49.8756 C.3       23 UNK        -0.0398 
      7 S7          2.5566  -13.5488  -51.3899 S.3       23 UNK        -0.2404 
      8 C8          1.5064  -14.5226  -52.5243 C.3       23 UNK        -0.0205 
      9 C9          1.2155  -15.9636  -52.1020 C.ar      23 UNK        -0.0193 
     10 C10         0.1195  -16.6146  -52.6752 C.ar      23 UNK        -0.1150 
     11 C11        -0.1887  -17.9379  -52.3429 C.ar      23 UNK        -0.0193 
     12 C12         0.5888  -18.6031  -51.3931 C.ar      23 UNK        -0.1150 
     13 C13         1.6738  -17.9597  -50.7927 C.ar      23 UNK        -0.0193 
     14 C14         2.0048  -16.6584  -51.1772 C.ar      23 UNK        -0.1150 
     15 C15         2.4616  -18.6544  -49.6944 C.3       23 UNK        -0.0205 
     16 S16         2.0697  -17.9813  -48.0431 S.3       23 UNK        -0.2404 
     17 C17         0.2524  -18.1721  -47.9423 C.3       23 UNK        -0.0398 
     18 CA         -0.1553  -19.6244  -47.6155 C.3       11 UNK         0.1400 
     19 N           0.2253  -20.0092  -46.2550 N.am      11 UNK        -0.5000 
     20 C           0.2740  -21.2746  -45.8228 C.2       10 UNK         0.5000 
     21 O           0.0237  -22.2468  -46.5355 O.2       10 UNK        -0.5000 
     22 CA          0.6181  -21.4878  -44.3383 C.3       10 UNK         0.1400 
     23 CB          2.1329  -21.3805  -44.1085 C.3       10 UNK        -0.1800 
     24 N          -0.0881  -20.5578  -43.4542 N.am      10 UNK        -0.5000 
     25 C          -1.4208  -20.5197  -43.3124 C.2       9 UNK         0.5000 
     26 O          -2.1878  -21.2835  -43.8944 O.2       9 UNK        -0.5000 
     27 CA         -2.0088  -19.4320  -42.3987 C.3       9 UNK         0.1400 
     28 CB         -1.9249  -19.8600  -40.9264 C.3       9 UNK        -0.1800 
     29 N          -1.3753  -18.1262  -42.5779 N.am      9 UNK        -0.5000 
     30 C          -1.3948  -17.4155  -43.7154 C.2       8 UNK         0.5000 
     31 O          -1.9683  -17.7799  -44.7418 O.2       8 UNK        -0.5000 
     32 CA         -0.5896  -16.1025  -43.7235 C.3       8 UNK         0.1400 
     33 CB         -1.3363  -14.9901  -42.9717 C.3       8 UNK        -0.1800 
     34 N           0.7455  -16.2657  -43.1500 N.am      8 UNK        -0.5000 
     35 C           1.6779  -17.1037  -43.6270 C.2       7 UNK         0.5000 
     36 O           1.5276  -17.8113  -44.6230 O.2       7 UNK        -0.5000 
     37 CA          2.9688  -17.2187  -42.8017 C.3       7 UNK         0.1400 
     38 CB          3.8838  -16.0054  -43.0351 C.3       7 UNK        -0.1800 
     39 N           2.6812  -17.3632  -41.3731 N.am      7 UNK        -0.5000 
     40 C           2.0991  -18.4415  -40.8267 C.2       6 UNK         0.5000 
     41 O           1.7749  -19.4415  -41.4656 O.2       6 UNK        -0.5000 
     42 CA          1.7945  -18.3793  -39.3190 C.3       6 UNK         0.1400 
     43 CB          3.0349  -18.7666  -38.5002 C.3       6 UNK        -0.1800 
     44 N           1.3229  -17.0627  -38.8901 N.am      6 UNK        -0.5000 
     45 C           0.1646  -16.5055  -39.2723 C.2       5 UNK         0.5000 
     46 O          -0.6501  -17.0556  -40.0104 O.2       5 UNK        -0.5000 
     47 CA         -0.0976  -15.0663  -38.7938 C.3       5 UNK         0.1400 
     48 CB         -0.7482  -15.0663  -37.4027 C.3       5 UNK        -0.1800 
     49 N           1.1206  -14.2529  -38.7656 N.am      5 UNK        -0.5000 
     50 C           1.8433  -13.9492  -39.8501 C.2       4 UNK         0.5000 
     51 O           1.5497  -14.3102  -40.9957 O.2       4 UNK        -0.5000 
     52 CA          3.1412  -13.1617  -39.6094 C.3       4 UNK         0.1400 
     53 CB          4.3035  -14.1264  -39.3265 C.3       4 UNK        -0.1800 
     54 N           3.4555  -12.3802  -40.7993 N.am      4 UNK        -0.5000 
     55 C           2.8998  -11.1991  -41.0919 C.2       3 UNK         0.5000 
     56 O           2.2318  -10.5296  -40.3034 O.2       3 UNK        -0.5000 
     57 CA          3.0405  -10.7544  -42.5481 C.3       3 UNK         0.1400 
     58 CB          4.5141  -10.7149  -43.0082 C.3       3 UNK        -0.1800 
     59 N           2.2488  -11.6845  -43.3498 N.am      3 UNK        -0.5000 
     60 C           1.9142  -11.5107  -44.6292 C.2       2 UNK         0.5000 
     61 O           2.2690  -10.5449  -45.3102 O.2       2 UNK        -0.5000 
     62 CA          1.0411  -12.5978  -45.2666 C.3       2 UNK         0.1400 
     63 CB         -0.4330  -12.1622  -45.3456 C.3       2 UNK        -0.1800 
     64 N           1.5870  -12.8369  -46.5922 N.am      2 UNK        -0.5000 
     65 C           1.3672  -13.8976  -47.3743 C.2       1 UNK         0.5000 
     66 O           0.5261  -14.7633  -47.1356 O.2       1 UNK        -0.5000 
     67 C          -1.6506  -19.8857  -47.8979 C.2       11 UNK         0.5000 
     68 O          -1.9838  -20.3484  -48.9905 O.2       11 UNK        -0.5000 
     69 N          -2.5215  -19.6482  -46.9055 N.am      12 UNK        -0.5000 
     70 CA         -3.9441  -19.9937  -46.9641 C.3       12 UNK         0.1400 
     71 CB         -4.6817  -19.3782  -45.7662 C.3       12 UNK        -0.1800 
     72 C          -4.1772  -21.5148  -47.0289 C.2       12 UNK         0.5000 
     73 O          -5.0177  -21.9685  -47.8061 O.2       12 UNK        -0.5000 
     74 N          -3.4015  -22.2802  -46.2484 N.am      13 UNK        -0.5000 
     75 CA         -3.3966  -23.7415  -46.2649 C.3       13 UNK         0.1400 
     76 CB         -2.5420  -24.2862  -45.1113 C.3       13 UNK        -0.1800 
     77 C          -2.9307  -24.3126  -47.6138 C.2       13 UNK         0.5000 
     78 O          -3.5366  -25.2677  -48.0908 O.2       13 UNK        -0.5000 
     79 N          -1.9095  -23.7002  -48.2313 N.am      14 UNK        -0.5000 
     80 CA         -1.4293  -24.0471  -49.5720 C.3       14 UNK         0.1400 
     81 CB         -0.1496  -23.2597  -49.8913 C.3       14 UNK        -0.1800 
     82 C          -2.4962  -23.8265  -50.6613 C.2       14 UNK         0.5000 
     83 O          -2.6687  -24.6894  -51.5263 O.2       14 UNK        -0.5000 
     84 N          -3.2218  -22.7011  -50.5733 N.am      15 UNK        -0.5000 
     85 CA         -4.3719  -22.3837  -51.4225 C.3       15 UNK         0.1400 
     86 CB         -4.8345  -20.9414  -51.1730 C.3       15 UNK        -0.1800 
     87 C          -5.5219  -23.3909  -51.2616 C.2       15 UNK         0.5000 
     88 O          -6.0423  -23.8754  -52.2658 O.2       15 UNK        -0.5000 
     89 N          -5.8606  -23.7305  -50.0118 N.am      16 UNK        -0.5000 
     90 CA         -6.8685  -24.7392  -49.6843 C.3       16 UNK         0.1400 
     91 CB         -7.1435  -24.7118  -48.1730 C.3       16 UNK        -0.1800 
     92 C          -6.4801  -26.1591  -50.1445 C.2       16 UNK         0.5000 
     93 O          -7.3414  -26.8954  -50.6276 O.2       16 UNK        -0.5000 
     94 N          -5.2003  -26.5176  -49.9787 N.am      17 UNK        -0.5000 
     95 CA         -4.6588  -27.8370  -50.2883 C.3       17 UNK         0.1400 
     96 CB         -3.3002  -28.0217  -49.5937 C.3       17 UNK        -0.1800 
     97 C          -4.5275  -28.1158  -51.7929 C.2       17 UNK         0.5000 
     98 O          -4.9403  -29.1920  -52.2297 O.2       17 UNK        -0.5000 
     99 N          -3.9262  -27.1861  -52.5515 N.am      18 UNK        -0.5000 
    100 CA        -3.5389  -27.4508  -53.9404 C.3       18 UNK         0.1400 
    101 CB        -2.1887  -28.1917  -53.9691 C.3       18 UNK        -0.1800 
    102 C         -3.4817  -26.2138  -54.8467 C.2       18 UNK         0.5000 
    103 O         -3.7854  -26.3484  -56.0333 O.2       18 UNK        -0.5000 
    104 N         -3.0704  -25.0481  -54.3243 N.am      19 UNK        -0.5000 
    105 CA        -2.8174  -23.8591  -55.1511 C.3       19 UNK         0.1400 
    106 CB        -1.8258  -22.9194  -54.4446 C.3       19 UNK        -0.1800 
    107 C         -4.0967  -23.1429  -55.6405 C.2       19 UNK         0.5000 
    108 O         -4.0091  -22.3375  -56.5681 O.2       19 UNK        -0.5000 
    109 N         -5.2551  -23.4824  -55.0530 N.am      20 UNK        -0.5000 
    110 CA        -6.6227  -23.1952  -55.4990 C.3       20 UNK         0.1400 
    111 CB        -6.9757  -24.1078  -56.6941 C.3       20 UNK        -0.1800 
    112 C         -6.8822  -21.7006  -55.7695 C.2       20 UNK         0.5000 
    113 O         -7.0495  -20.9342  -54.8188 O.2       20 UNK        -0.5000 
    114 N         -6.8788  -21.3116  -57.0540 N.am      21 UNK        -0.5000 
    115 CA        -7.0721  -19.9500  -57.5670 C.3       21 UNK         0.1400 
    116 CB        -7.0470  -19.9951  -59.1027 C.3       21 UNK        -0.1800 
    117 C         -6.0612  -18.9100  -57.0394 C.2       21 UNK         0.5000 
    118 O         -6.3299  -17.7109  -57.1248 O.2       21 UNK        -0.5000 
    119 N         -4.9424  -19.3837  -56.4763 N.am      22 UNK        -0.5000 
    120 CA        -4.0141  -18.6111  -55.6400 C.3       22 UNK         0.1400 
    121 C         -4.6796  -17.9559  -54.3892 C.2       22 UNK         0.5000 
    122 N         -5.7300  -18.5366  -53.8187 N.am      22 UNK        -0.7600 
    123 O         -4.2515  -16.8951  -53.9442 O.2       22 UNK        -0.5000 
    124 C124       -2.8169  -19.5052  -55.2308 C.3       23 UNK        -0.0398 
    125 S125       -1.3042  -18.5895  -54.8009 S.3       23 UNK        -0.2404 
    126 C126       -1.3792  -18.6381  -52.9804 C.3       23 UNK        -0.0205 
    127 H127        5.8050  -12.1665  -48.2274 H         1 UNK         0.0600 
    128 H128        6.6696  -13.6409  -47.7840 H         1 UNK         0.0600 
    129 H129        5.9723  -12.6129  -46.5270 H         1 UNK         0.0600 
    130 H130        3.7641  -12.5785  -49.0136 H         1 UNK         0.3000 
    131 H131        2.4381  -15.0788  -48.7813 H         1 UNK         0.0600 
    132 H132        0.5996  -13.9963  -50.0366 H         1 UNK         0.0800 
    133 H133        1.2578  -12.4111  -49.7233 H         1 UNK         0.0800 
    134 H134        1.9918  -14.5471  -53.5006 H         1 UNK         0.0800 
    135 H135        0.5670  -13.9847  -52.6624 H         1 UNK         0.0800 
    136 H136       -0.4953  -16.0929  -53.3957 H         1 UNK         0.1150 
    137 H137        0.3344  -19.6129  -51.1017 H         1 UNK         0.1150 
    138 H138        2.8651  -16.1871  -50.7265 H         1 UNK         0.1150 
    139 H139        2.2745  -19.7290  -49.7029 H         1 UNK         0.0800 
    140 H140        3.5292  -18.5310  -49.8812 H         1 UNK         0.0800 
    141 H141       -0.2012  -17.8254  -48.8707 H         1 UNK         0.0800 
    142 H142       -0.1169  -17.4963  -47.1687 H         1 UNK         0.0800 
    143 H143        0.3896  -20.2788  -48.2987 H         1 UNK         0.0600 
    144 H144        0.4904  -19.2582  -45.6242 H         1 UNK         0.3000 
    145 H145        0.3082  -22.4999  -44.0705 H         1 UNK         0.0600 
    146 H146        2.5012  -20.3739  -44.3082 H         1 UNK         0.0600 
    147 H147        2.3936  -21.6341  -43.0810 H         1 UNK         0.0600 
    148 H148        2.6768  -22.0655  -44.7602 H         1 UNK         0.0600 
    149 H149        0.4870  -19.9250  -42.9067 H         1 UNK         0.3000 
    150 H150       -3.0640  -19.3215  -42.6558 H         1 UNK         0.0600 
    151 H151       -2.3964  -20.8316  -40.7739 H         1 UNK         0.0600 
    152 H152       -2.4357  -19.1470  -40.2793 H         1 UNK         0.0600 
    153 H153       -0.8913  -19.9392  -40.5887 H         1 UNK         0.0600 
    154 H154       -0.9157  -17.7343  -41.7601 H         1 UNK         0.3000 
    155 H155       -0.4672  -15.7913  -44.7629 H         1 UNK         0.0600 
    156 H156       -0.7751  -14.0564  -42.9858 H         1 UNK         0.0600 
    157 H157       -2.3069  -14.7957  -43.4294 H         1 UNK         0.0600 
    158 H158       -1.5113  -15.2542  -41.9286 H         1 UNK         0.0600 
    159 H159        0.9575  -15.7216  -42.3200 H         1 UNK         0.3000 
    160 H160        3.5005  -18.1129  -43.1340 H         1 UNK         0.0600 
    161 H161        4.1313  -15.9061  -44.0931 H         1 UNK         0.0600 
    162 H162        4.8224  -16.1085  -42.4907 H         1 UNK         0.0600 
    163 H163        3.4147  -15.0725  -42.7237 H         1 UNK         0.0600 
    164 H164        2.8685  -16.5649  -40.7866 H         1 UNK         0.3000 
    165 H165        1.0064  -19.1053  -39.1085 H         1 UNK         0.0600 
    166 H166        2.8079  -18.8042  -37.4346 H         1 UNK         0.0600 
    167 H167        3.3996  -19.7535  -38.7885 H         1 UNK         0.0600 
    168 H168        3.8524  -18.0591  -38.6451 H         1 UNK         0.0600 
    169 H169        1.9302  -16.5368  -38.2797 H         1 UNK         0.3000 
    170 H170       -0.7941  -14.6054  -39.4974 H         1 UNK         0.0600 
    171 H171       -1.6681  -15.6527  -37.4029 H         1 UNK         0.0600 
    172 H172       -0.0872  -15.4926  -36.6470 H         1 UNK         0.0600 
    173 H173       -1.0093  -14.0553  -37.0896 H         1 UNK         0.0600 
    174 H174        1.4249  -13.9245  -37.8602 H         1 UNK         0.3000 
    175 H175        3.0109  -12.4978  -38.7521 H         1 UNK         0.0600 
    176 H176        4.4675  -14.8191  -40.1528 H         1 UNK         0.0600 
    177 H177        5.2328  -13.5815  -39.1596 H         1 UNK         0.0600 
    178 H178        4.1126  -14.7205  -38.4320 H         1 UNK         0.0600 
    179 H179        3.9581  -12.8660  -41.5270 H         1 UNK         0.3000 
    180 H180        2.6136   -9.7532  -42.6376 H         1 UNK         0.0600 
    181 H181        4.9509  -11.7117  -43.0743 H         1 UNK         0.0600 
    182 H182        5.1231  -10.1315  -42.3165 H         1 UNK         0.0600 
    183 H183        4.6108  -10.2484  -43.9884 H         1 UNK         0.0600 
    184 H184        1.8913  -12.4865  -42.8453 H         1 UNK         0.3000 
    185 H185        1.1229  -13.5162  -44.6810 H         1 UNK         0.0600 
    186 H186       -1.0609  -12.9550  -45.7522 H         1 UNK         0.0600 
    187 H187       -0.8213  -11.9176  -44.3564 H         1 UNK         0.0600 
    188 H188       -0.5568  -11.2799  -45.9748 H         1 UNK         0.0600 
    189 H189        2.2942  -12.1669  -46.8678 H         1 UNK         0.3000 
    190 H190       -2.1932  -19.2132  -46.0477 H         1 UNK         0.3000 
    191 H191       -4.3574  -19.5569  -47.8755 H         1 UNK         0.0600 
    192 H192       -4.2985  -19.7566  -44.8186 H         1 UNK         0.0600 
    193 H193       -5.7474  -19.6068  -45.8047 H         1 UNK         0.0600 
    194 H194       -4.5815  -18.2928  -45.7577 H         1 UNK         0.0600 
    195 H195       -2.7834  -21.8329  -45.5757 H         1 UNK         0.3000 
    196 H196       -4.4238  -24.0745  -46.1041 H         1 UNK         0.0600 
    197 H197       -2.5463  -25.3768  -45.1045 H         1 UNK         0.0600 
    198 H198       -2.9260  -23.9544  -44.1466 H         1 UNK         0.0600 
    199 H199       -1.5044  -23.9631  -45.1874 H         1 UNK         0.0600 
    200 H200       -1.4168  -22.9602  -47.7413 H         1 UNK         0.3000 
    201 H201       -1.1785  -25.1097  -49.5672 H         1 UNK         0.0600 
    202 H202        0.6259  -23.4503  -49.1492 H         1 UNK         0.0600 
    203 H203       -0.3286  -22.1853  -49.9182 H         1 UNK         0.0600 
    204 H204        0.2516  -23.5480  -50.8637 H         1 UNK         0.0600 
    205 H205       -2.9898  -22.0309  -49.8484 H         1 UNK         0.3000 
    206 H206       -4.0592  -22.4425  -52.4620 H         1 UNK         0.0600 
    207 H207       -4.0383  -20.2294  -51.3921 H         1 UNK         0.0600 
    208 H208       -5.6807  -20.6904  -51.8137 H         1 UNK         0.0600 
    209 H209       -5.1477  -20.7851  -50.1416 H         1 UNK         0.0600 
    210 H210       -5.4088  -23.2582  -49.2337 H         1 UNK         0.3000 
    211 H211       -7.7913  -24.4658  -50.2001 H         1 UNK         0.0600 
    212 H212       -6.2534  -24.9661  -47.5973 H         1 UNK         0.0600 
    213 H213       -7.9233  -25.4256  -47.9050 H         1 UNK         0.0600 
    214 H214       -7.4788  -23.7257  -47.8509 H         1 UNK         0.0600 
    215 H215       -4.5729  -25.8767  -49.4987 H         1 UNK         0.3000 
    216 H216       -5.3417  -28.5825  -49.8750 H         1 UNK         0.0600 
    217 H217       -2.8705  -28.9974  -49.8241 H         1 UNK         0.0600 
    218 H218       -3.4011  -27.9615  -48.5100 H         1 UNK         0.0600 
    219 H219       -2.5814  -27.2635  -49.9067 H         1 UNK         0.0600 
    220 H220       -3.6164  -26.3156  -52.1303 H         1 UNK         0.3000 
    221 H221       -4.2879  -28.1025  -54.3961 H         1 UNK         0.0600 
    222 H222       -1.4057  -27.6119  -53.4788 H         1 UNK         0.0600 
    223 H223       -2.2537  -29.1575  -53.4679 H         1 UNK         0.0600 
    224 H224       -1.8652  -28.3825  -54.9933 H         1 UNK         0.0600 
    225 H225       -2.8400  -24.9796  -53.3362 H         1 UNK         0.3000 
    226 H226       -2.3099  -24.1985  -56.0569 H         1 UNK         0.0600 
    227 H227       -0.9218  -23.4552  -54.1548 H         1 UNK         0.0600 
    228 H228       -1.5145  -22.1154  -55.1110 H         1 UNK         0.0600 
    229 H229       -2.2332  -22.4609  -53.5489 H         1 UNK         0.0600 
    230 H230       -5.2068  -24.0723  -54.2311 H         1 UNK         0.3000 
    231 H231       -7.2819  -23.4702  -54.6746 H         1 UNK         0.0600 
    232 H232       -7.9924  -23.9255  -57.0451 H         1 UNK         0.0600 
    233 H233       -6.9203  -25.1579  -56.4062 H         1 UNK         0.0600 
    234 H234       -6.2983  -23.9668  -57.5371 H         1 UNK         0.0600 
    235 H235       -6.6880  -22.0179  -57.7497 H         1 UNK         0.3000 
    236 H236       -8.0630  -19.6208  -57.2488 H         1 UNK         0.0600 
    237 H237       -7.2218  -19.0056  -59.5273 H         1 UNK         0.0600 
    238 H238       -7.8229  -20.6547  -59.4919 H         1 UNK         0.0600 
    239 H239       -6.0852  -20.3480  -59.4773 H         1 UNK         0.0600 
    240 H240       -4.7956  -20.3869  -56.4942 H         1 UNK         0.3000 
    241 H241       -3.6400  -17.7991  -56.2661 H         1 UNK         0.0600 
    242 H242       -6.1612  -18.0946  -53.0234 H         1 UNK         0.3800 
    243 H243       -6.1326  -19.3913  -54.1946 H         1 UNK         0.3800 
    244 H244       -3.0939  -20.1875  -54.4254 H         1 UNK         0.0800 
    245 H245       -2.5366  -20.1398  -56.0723 H         1 UNK         0.0800 
    246 H246       -2.2920  -18.1565  -52.6304 H         1 UNK         0.0800 
    247 H247       -1.4321  -19.6788  -52.6555 H         1 UNK         0.0800 
@<TRIPOS>BOND
     1    1    2 1    
     2    1  127 1    
     3    1  128 1    
     4    1  129 1    
     5    2    3 2    
     6    2    4 am   BACKBONE|DICT|INTERRES
     7    4    5 1    
     8    4  130 1    
     9    5    6 1    
    10    5   65 1    
    11    5  131 1    
    12    6    7 1    
    13    6  132 1    
    14    6  133 1    
    15    7    8 1    
    16    8    9 1    
    17    8  134 1    
    18    8  135 1    
    19    9   10 ar   
    20    9   14 ar   
    21   10   11 ar   
    22   10  136 1    
    23   11   12 ar   
    24   11  126 1    
    25   12   13 ar   
    26   12  137 1    
    27   13   14 ar   
    28   13   15 1    
    29   14  138 1    
    30   15   16 1    
    31   15  139 1    
    32   15  140 1    
    33   16   17 1    
    34   17   18 1    
    35   17  141 1    
    36   17  142 1    
    37   18   19 1    
    38   18   67 1    
    39   18  143 1    
    40   19   20 am   BACKBONE|DICT|INTERRES
    41   19  144 1    
    42   20   21 2    
    43   20   22 1    
    44   22   23 1    
    45   22   24 1    
    46   22  145 1    
    47   23  146 1    
    48   23  147 1    
    49   23  148 1    
    50   24   25 am   BACKBONE|DICT|INTERRES
    51   24  149 1    
    52   25   26 2    
    53   25   27 1    
    54   27   28 1    
    55   27   29 1    
    56   27  150 1    
    57   28  151 1    
    58   28  152 1    
    59   28  153 1    
    60   29   30 am   BACKBONE|DICT|INTERRES
    61   29  154 1    
    62   30   31 2    
    63   30   32 1    
    64   32   33 1    
    65   32   34 1    
    66   32  155 1    
    67   33  156 1    
    68   33  157 1    
    69   33  158 1    
    70   34   35 am   BACKBONE|DICT|INTERRES
    71   34  159 1    
    72   35   36 2    
    73   35   37 1    
    74   37   38 1    
    75   37   39 1    
    76   37  160 1    
    77   38  161 1    
    78   38  162 1    
    79   38  163 1    
    80   39   40 am   BACKBONE|DICT|INTERRES
    81   39  164 1    
    82   40   41 2    
    83   40   42 1    
    84   42   43 1    
    85   42   44 1    
    86   42  165 1    
    87   43  166 1    
    88   43  167 1    
    89   43  168 1    
    90   44   45 am   BACKBONE|DICT|INTERRES
    91   44  169 1    
    92   45   46 2    
    93   45   47 1    
    94   47   48 1    
    95   47   49 1    
    96   47  170 1    
    97   48  171 1    
    98   48  172 1    
    99   48  173 1    
   100   49   50 am   BACKBONE|DICT|INTERRES
   101   49  174 1    
   102   50   51 2    
   103   50   52 1    
   104   52   53 1    
   105   52   54 1    
   106   52  175 1    
   107   53  176 1    
   108   53  177 1    
   109   53  178 1    
   110   54   55 am   BACKBONE|DICT|INTERRES
   111   54  179 1    
   112   55   56 2    
   113   55   57 1    
   114   57   58 1    
   115   57   59 1    
   116   57  180 1    
   117   58  181 1    
   118   58  182 1    
   119   58  183 1    
   120   59   60 am   BACKBONE|DICT|INTERRES
   121   59  184 1    
   122   60   61 2    
   123   60   62 1    
   124   62   63 1    
   125   62   64 1    
   126   62  185 1    
   127   63  186 1    
   128   63  187 1    
   129   63  188 1    
   130   64   65 am   BACKBONE|DICT|INTERRES
   131   64  189 1    
   132   65   66 2    
   133   67   68 2    
   134   67   69 am   BACKBONE|DICT|INTERRES
   135   69   70 1    
   136   69  190 1    
   137   70   71 1    
   138   70   72 1    
   139   70  191 1    
   140   71  192 1    
   141   71  193 1    
   142   71  194 1    
   143   72   73 2    
   144   72   74 am   BACKBONE|DICT|INTERRES
   145   74   75 1    
   146   74  195 1    
   147   75   76 1    
   148   75   77 1    
   149   75  196 1    
   150   76  197 1    
   151   76  198 1    
   152   76  199 1    
   153   77   78 2    
   154   77   79 am   BACKBONE|DICT|INTERRES
   155   79   80 1    
   156   79  200 1    
   157   80   81 1    
   158   80   82 1    
   159   80  201 1    
   160   81  202 1    
   161   81  203 1    
   162   81  204 1    
   163   82   83 2    
   164   82   84 am   BACKBONE|DICT|INTERRES
   165   84   85 1    
   166   84  205 1    
   167   85   86 1    
   168   85   87 1    
   169   85  206 1    
   170   86  207 1    
   171   86  208 1    
   172   86  209 1    
   173   87   88 2    
   174   87   89 am   BACKBONE|DICT|INTERRES
   175   89   90 1    
   176   89  210 1    
   177   90   91 1    
   178   90   92 1    
   179   90  211 1    
   180   91  212 1    
   181   91  213 1    
   182   91  214 1    
   183   92   93 2    
   184   92   94 am   BACKBONE|DICT|INTERRES
   185   94   95 1    
   186   94  215 1    
   187   95   96 1    
   188   95   97 1    
   189   95  216 1    
   190   96  217 1    
   191   96  218 1    
   192   96  219 1    
   193   97   98 2    
   194   97   99 am   BACKBONE|DICT|INTERRES
   195   99  100 1    
   196   99  220 1    
   197  100  101 1    
   198  100  102 1    
   199  100  221 1    
   200  101  222 1    
   201  101  223 1    
   202  101  224 1    
   203  102  103 2    
   204  102  104 am   BACKBONE|DICT|INTERRES
   205  104  105 1    
   206  104  225 1    
   207  105  106 1    
   208  105  107 1    
   209  105  226 1    
   210  106  227 1    
   211  106  228 1    
   212  106  229 1    
   213  107  108 2    
   214  107  109 am   BACKBONE|DICT|INTERRES
   215  109  110 1    
   216  109  230 1    
   217  110  111 1    
   218  110  112 1    
   219  110  231 1    
   220  111  232 1    
   221  111  233 1    
   222  111  234 1    
   223  112  113 2    
   224  112  114 am   BACKBONE|DICT|INTERRES
   225  114  115 1    
   226  114  235 1    
   227  115  116 1    
   228  115  117 1    
   229  115  236 1    
   230  116  237 1    
   231  116  238 1    
   232  116  239 1    
   233  117  118 2    
   234  117  119 am   BACKBONE|DICT|INTERRES
   235  119  120 1    
   236  119  240 1    
   237  120  121 1    
   238  120  124 1    
   239  120  241 1    
   240  121  122 am   BACKBONE|DICT|INTERRES
   241  121  123 2    
   242  122  242 1    
   243  122  243 1    
   244  124  125 1    
   245  124  244 1    
   246  124  245 1    
   247  125  126 1    
   248  126  246 1    
   249  126  247 1    
@<TRIPOS>SUBSTRUCTURE
     1 UNK         1 GROUP             0       ****    0 ROOT    
