@<TRIPOS>MOLECULE
3R540
247   249    1
SMALL
USER_CHARGES


@<TRIPOS>ATOM
      1 CA         -1.5879  -10.0456  -44.5757 C.3       0 UNK        -0.1800 
      2 C          -0.9043  -11.1026  -45.4291 C.2       0 UNK         0.5000 
      3 O          -0.1118  -11.8865  -44.9082 O.2       0 UNK        -0.5000 
      4 N          -1.1931  -11.1256  -46.7377 N.am      1 UNK        -0.5000 
      5 CA         -0.6539  -12.0841  -47.7154 C.3       1 UNK         0.1400 
      6 C6         -1.1613  -13.5317  -47.4550 C.3       23 UNK        -0.0398 
      7 S7         -1.4522  -14.4768  -48.9897 S.3       23 UNK        -0.2404 
      8 C8         -0.2838  -15.8502  -48.7735 C.3       23 UNK        -0.0205 
      9 C9         -0.4697  -16.9216  -49.8351 C.ar      23 UNK        -0.0193 
     10 C10         0.3692  -16.9604  -50.9515 C.ar      23 UNK        -0.1150 
     11 C11         0.2086  -17.9488  -51.9271 C.ar      23 UNK        -0.0193 
     12 C12        -0.8036  -18.9031  -51.7800 C.ar      23 UNK        -0.1150 
     13 C13        -1.6414  -18.8826  -50.6603 C.ar      23 UNK        -0.0193 
     14 C14        -1.4706  -17.8874  -49.6929 C.ar      23 UNK        -0.1150 
     15 C15        -2.7301  -19.9348  -50.4960 C.3       23 UNK        -0.0205 
     16 S16        -2.0502  -21.5532  -50.0116 S.3       23 UNK        -0.2404 
     17 C17        -1.4158  -21.1727  -48.3463 C.3       23 UNK        -0.0398 
     18 CA         -1.0424  -22.4318  -47.5289 C.3       11 UNK         0.1400 
     19 N          -0.1439  -22.1025  -46.4189 N.am      11 UNK        -0.5000 
     20 C           0.4794  -22.9950  -45.6376 C.2       10 UNK         0.5000 
     21 O           0.3884  -24.2120  -45.7861 O.2       10 UNK        -0.5000 
     22 CA          1.2979  -22.4404  -44.4575 C.3       10 UNK         0.1400 
     23 CB          2.6604  -21.9135  -44.9299 C.3       10 UNK        -0.1800 
     24 N           0.5823  -21.3947  -43.7249 N.am      10 UNK        -0.5000 
     25 C          -0.5652  -21.5942  -43.0592 C.2       9 UNK         0.5000 
     26 O          -1.1063  -22.6942  -42.9464 O.2       9 UNK        -0.5000 
     27 CA         -1.2511  -20.3507  -42.4649 C.3       9 UNK         0.1400 
     28 CB         -0.6062  -19.9533  -41.1289 C.3       9 UNK        -0.1800 
     29 N          -1.2276  -19.2087  -43.3782 N.am      9 UNK        -0.5000 
     30 C          -1.8212  -19.1778  -44.5798 C.2       8 UNK         0.5000 
     31 O          -2.5093  -20.0923  -45.0302 O.2       8 UNK        -0.5000 
     32 CA         -1.5376  -17.9481  -45.4570 C.3       8 UNK         0.1400 
     33 CB         -2.4125  -16.7522  -45.0537 C.3       8 UNK        -0.1800 
     34 N          -0.1240  -17.5733  -45.4192 N.am      8 UNK        -0.5000 
     35 C           0.8594  -18.3144  -45.9502 C.2       7 UNK         0.5000 
     36 O           0.6679  -19.3705  -46.5481 O.2       7 UNK        -0.5000 
     37 CA          2.2983  -17.8104  -45.7574 C.3       7 UNK         0.1400 
     38 CB          2.6963  -16.8741  -46.9070 C.3       7 UNK        -0.1800 
     39 N           2.4860  -17.1350  -44.4725 N.am      7 UNK        -0.5000 
     40 C           2.4712  -17.7609  -43.2872 C.2       6 UNK         0.5000 
     41 O           2.3279  -18.9771  -43.1577 O.2       6 UNK        -0.5000 
     42 CA          2.5726  -16.8626  -42.0405 C.3       6 UNK         0.1400 
     43 CB          4.0267  -16.4406  -41.7852 C.3       6 UNK        -0.1800 
     44 N           1.7241  -15.6695  -42.1267 N.am      6 UNK        -0.5000 
     45 C           0.3862  -15.6975  -42.2033 C.2       5 UNK         0.5000 
     46 O          -0.2573  -16.7456  -42.2506 O.2       5 UNK        -0.5000 
     47 CA         -0.3808  -14.3640  -42.2945 C.3       5 UNK         0.1400 
     48 CB         -1.3318  -14.1750  -41.0969 C.3       5 UNK        -0.1800 
     49 N           0.4449  -13.1733  -42.5196 N.am      5 UNK        -0.5000 
     50 C           1.2760  -12.5402  -41.6823 C.2       4 UNK         0.5000 
     51 O           1.5397  -12.9246  -40.5423 O.2       4 UNK        -0.5000 
     52 CA          1.9412  -11.2790  -42.2691 C.3       4 UNK         0.1400 
     53 CB          2.8395  -10.5298  -41.2623 C.3       4 UNK        -0.1800 
     54 N           2.6623  -11.5822  -43.5117 N.am      4 UNK        -0.5000 
     55 C           3.7284  -12.3835  -43.6535 C.2       3 UNK         0.5000 
     56 O           4.2802  -12.9560  -42.7134 O.2       3 UNK        -0.5000 
     57 CA          4.2599  -12.6247  -45.0810 C.3       3 UNK         0.1400 
     58 CB          4.2992  -14.1271  -45.3908 C.3       3 UNK        -0.1800 
     59 N           3.4746  -11.9715  -46.1296 N.am      3 UNK        -0.5000 
     60 C           3.6544  -10.7273  -46.5822 C.2       2 UNK         0.5000 
     61 O           4.4617   -9.9380  -46.0911 O.2       2 UNK        -0.5000 
     62 CA          2.7915  -10.2784  -47.7813 C.3       2 UNK         0.1400 
     63 CB          3.4701  -10.6476  -49.1140 C.3       2 UNK        -0.1800 
     64 N           1.3919  -10.7315  -47.7526 N.am      2 UNK        -0.5000 
     65 C           0.8868  -11.9727  -47.8484 C.2       1 UNK         0.5000 
     66 O           1.5801  -12.9828  -47.9781 O.2       1 UNK        -0.5000 
     67 C          -2.2917  -23.2029  -47.0525 C.2       11 UNK         0.5000 
     68 O          -2.6701  -24.1920  -47.6811 O.2       11 UNK        -0.5000 
     69 N          -2.8861  -22.7727  -45.9309 N.am      12 UNK        -0.5000 
     70 CA         -4.0125  -23.4410  -45.2779 C.3       12 UNK         0.1400 
     71 CB         -4.5424  -22.5649  -44.1339 C.3       12 UNK        -0.1800 
     72 C          -3.6703  -24.8548  -44.7749 C.2       12 UNK         0.5000 
     73 O          -4.5125  -25.7469  -44.8678 O.2       12 UNK        -0.5000 
     74 N          -2.4449  -25.0408  -44.2707 N.am      13 UNK        -0.5000 
     75 CA         -1.9381  -26.3289  -43.8076 C.3       13 UNK         0.1400 
     76 CB         -0.7332  -26.1003  -42.8808 C.3       13 UNK        -0.1800 
     77 C          -1.5694  -27.2710  -44.9682 C.2       13 UNK         0.5000 
     78 O          -2.0119  -28.4204  -44.9808 O.2       13 UNK        -0.5000 
     79 N          -0.7424  -26.7834  -45.9017 N.am      14 UNK        -0.5000 
     80 CA         -0.1018  -27.6023  -46.9311 C.3       14 UNK         0.1400 
     81 CB          1.2335  -26.9532  -47.3276 C.3       14 UNK        -0.1800 
     82 C          -0.9661  -27.8263  -48.1819 C.2       14 UNK         0.5000 
     83 O          -0.8746  -28.8976  -48.7833 O.2       14 UNK        -0.5000 
     84 N          -1.7553  -26.8186  -48.5735 N.am      15 UNK        -0.5000 
     85 CA         -2.4873  -26.7856  -49.8430 C.3       15 UNK         0.1400 
     86 CB         -1.8847  -25.6759  -50.7251 C.3       15 UNK        -0.1800 
     87 C          -3.9984  -26.5773  -49.6485 C.2       15 UNK         0.5000 
     88 O          -4.6970  -26.3268  -50.6308 O.2       15 UNK        -0.5000 
     89 N          -4.4816  -26.6339  -48.3968 N.am      16 UNK        -0.5000 
     90 CA         -5.8727  -26.4013  -47.9772 C.3       16 UNK         0.1400 
     91 CB         -6.7854  -27.5312  -48.4985 C.3       16 UNK        -0.1800 
     92 C          -6.4097  -24.9978  -48.3469 C.2       16 UNK         0.5000 
     93 O          -7.6237  -24.8151  -48.4467 O.2       16 UNK        -0.5000 
     94 N          -5.4918  -24.0444  -48.5752 N.am      17 UNK        -0.5000 
     95 CA         -5.7083  -22.6963  -49.1103 C.3       17 UNK         0.1400 
     96 CB         -6.4915  -21.8214  -48.1100 C.3       17 UNK        -0.1800 
     97 C          -6.3176  -22.6784  -50.5326 C.2       17 UNK         0.5000 
     98 O          -6.9066  -21.6716  -50.9286 O.2       17 UNK        -0.5000 
     99 N          -6.1678  -23.7798  -51.2860 N.am      18 UNK        -0.5000 
    100 CA        -6.7517  -23.9584  -52.6182 C.3       18 UNK         0.1400 
    101 CB        -6.8060  -25.4577  -52.9476 C.3       18 UNK        -0.1800 
    102 C         -6.0073  -23.1926  -53.7276 C.2       18 UNK         0.5000 
    103 O         -6.5798  -22.9759  -54.7972 O.2       18 UNK        -0.5000 
    104 N         -4.7558  -22.7900  -53.4675 N.am      19 UNK        -0.5000 
    105 CA        -3.9042  -22.0186  -54.3739 C.3       19 UNK         0.1400 
    106 CB        -2.4329  -22.2225  -53.9707 C.3       19 UNK        -0.1800 
    107 C         -4.3116  -20.5309  -54.4109 C.2       19 UNK         0.5000 
    108 O         -3.5374  -19.6625  -54.0045 O.2       19 UNK        -0.5000 
    109 N         -5.5345  -20.2628  -54.8867 N.am      20 UNK        -0.5000 
    110 CA        -6.1020  -18.9287  -55.0810 C.3       20 UNK         0.1400 
    111 CB        -7.5406  -19.0619  -55.6021 C.3       20 UNK        -0.1800 
    112 C         -5.2392  -18.0966  -56.0460 C.2       20 UNK         0.5000 
    113 O         -4.9412  -18.5631  -57.1489 O.2       20 UNK        -0.5000 
    114 N         -4.7981  -16.9185  -55.5815 N.am      21 UNK        -0.5000 
    115 CA        -3.8363  -16.0209  -56.2392 C.3       21 UNK         0.1400 
    116 CB        -4.4719  -15.3677  -57.4844 C.3       21 UNK        -0.1800 
    117 C         -2.4776  -16.6965  -56.5456 C.2       21 UNK         0.5000 
    118 O         -1.8066  -16.3214  -57.5086 O.2       21 UNK        -0.5000 
    119 N         -2.1171  -17.6969  -55.7294 N.am      22 UNK        -0.5000 
    120 CA        -0.9633  -18.5966  -55.8845 C.3       22 UNK         0.1400 
    121 C         -1.0903  -19.6068  -57.0664 C.2       22 UNK         0.5000 
    122 N         -2.2584  -19.7885  -57.6736 N.am      22 UNK        -0.7600 
    123 O         -0.1196  -20.2688  -57.4229 O.2       22 UNK        -0.5000 
    124 C124        0.4132  -17.8730  -55.8563 C.3       23 UNK        -0.0398 
    125 S125        0.6305  -16.7925  -54.4000 S.3       23 UNK        -0.2404 
    126 C126        1.1427  -17.9883  -53.1264 C.3       23 UNK        -0.0205 
    127 H127       -2.2810   -9.4393  -45.1592 H         1 UNK         0.0600 
    128 H128       -0.8437   -9.3838  -44.1330 H         1 UNK         0.0600 
    129 H129       -2.1459  -10.5209  -43.7691 H         1 UNK         0.0600 
    130 H130       -1.8486  -10.4509  -47.1080 H         1 UNK         0.3000 
    131 H131       -1.0533  -11.7537  -48.6755 H         1 UNK         0.0600 
    132 H132       -2.1243  -13.4984  -46.9436 H         1 UNK         0.0800 
    133 H133       -0.4995  -14.0730  -46.7765 H         1 UNK         0.0800 
    134 H134       -0.4271  -16.2908  -47.7888 H         1 UNK         0.0800 
    135 H135        0.7347  -15.4608  -48.7995 H         1 UNK         0.0800 
    136 H136        1.1478  -16.2190  -51.0646 H         1 UNK         0.1150 
    137 H137       -0.9371  -19.6702  -52.5296 H         1 UNK         0.1150 
    138 H138       -2.1186  -17.8607  -48.8289 H         1 UNK         0.1150 
    139 H139       -3.4703  -19.6170  -49.7601 H         1 UNK         0.0800 
    140 H140       -3.2702  -20.0463  -51.4355 H         1 UNK         0.0800 
    141 H141       -2.1314  -20.5501  -47.8063 H         1 UNK         0.0800 
    142 H142       -0.5290  -20.5562  -48.4948 H         1 UNK         0.0800 
    143 H143       -0.4834  -23.1031  -48.1847 H         1 UNK         0.0600 
    144 H144        0.0288  -21.1128  -46.2616 H         1 UNK         0.3000 
    145 H145        1.4788  -23.2646  -43.7643 H         1 UNK         0.0600 
    146 H146        3.2601  -21.5615  -44.0903 H         1 UNK         0.0600 
    147 H147        2.5541  -21.0891  -45.6341 H         1 UNK         0.0600 
    148 H148        3.2286  -22.6990  -45.4296 H         1 UNK         0.0600 
    149 H149        0.9937  -20.4677  -43.7274 H         1 UNK         0.3000 
    150 H150       -2.2961  -20.6049  -42.2764 H         1 UNK         0.0600 
    151 H151       -0.6288  -20.7832  -40.4217 H         1 UNK         0.0600 
    152 H152       -1.1362  -19.1185  -40.6696 H         1 UNK         0.0600 
    153 H153        0.4352  -19.6563  -41.2559 H         1 UNK         0.0600 
    154 H154       -0.7169  -18.3876  -43.0635 H         1 UNK         0.3000 
    155 H155       -1.7879  -18.2131  -46.4858 H         1 UNK         0.0600 
    156 H156       -2.2428  -16.4518  -44.0202 H         1 UNK         0.0600 
    157 H157       -3.4705  -16.9994  -45.1496 H         1 UNK         0.0600 
    158 H158       -2.2226  -15.8899  -45.6924 H         1 UNK         0.0600 
    159 H159        0.1188  -16.7477  -44.8949 H         1 UNK         0.3000 
    160 H160        2.9592  -18.6790  -45.7874 H         1 UNK         0.0600 
    161 H161        2.1300  -15.9428  -46.8863 H         1 UNK         0.0600 
    162 H162        2.5179  -17.3448  -47.8751 H         1 UNK         0.0600 
    163 H163        3.7568  -16.6277  -46.8622 H         1 UNK         0.0600 
    164 H164        2.6009  -16.1338  -44.4876 H         1 UNK         0.3000 
    165 H165        2.2346  -17.4497  -41.1839 H         1 UNK         0.0600 
    166 H166        4.1144  -15.8707  -40.8600 H         1 UNK         0.0600 
    167 H167        4.6763  -17.3121  -41.6933 H         1 UNK         0.0600 
    168 H168        4.4173  -15.8231  -42.5942 H         1 UNK         0.0600 
    169 H169        2.1829  -14.7715  -42.0586 H         1 UNK         0.3000 
    170 H170       -1.0026  -14.4445  -43.1870 H         1 UNK         0.0600 
    171 H171       -2.0432  -14.9992  -41.0313 H         1 UNK         0.0600 
    172 H172       -0.7930  -14.1377  -40.1499 H         1 UNK         0.0600 
    173 H173       -1.9097  -13.2558  -41.1930 H         1 UNK         0.0600 
    174 H174        0.3242  -12.7526  -43.4418 H         1 UNK         0.3000 
    175 H175        1.1297  -10.6029  -42.5428 H         1 UNK         0.0600 
    176 H176        3.6557  -11.1522  -40.8950 H         1 UNK         0.0600 
    177 H177        3.2748   -9.6374  -41.7119 H         1 UNK         0.0600 
    178 H178        2.2625  -10.2080  -40.3946 H         1 UNK         0.0600 
    179 H179        2.2470  -11.2165  -44.3572 H         1 UNK         0.3000 
    180 H180        5.2833  -12.2454  -45.1129 H         1 UNK         0.0600 
    181 H181        4.6757  -14.3134  -46.3968 H         1 UNK         0.0600 
    182 H182        3.3039  -14.5616  -45.3156 H         1 UNK         0.0600 
    183 H183        4.9516  -14.6604  -44.6986 H         1 UNK         0.0600 
    184 H184        2.7942  -12.5449  -46.6219 H         1 UNK         0.3000 
    185 H185        2.7445   -9.1893  -47.7333 H         1 UNK         0.0600 
    186 H186        3.5778  -11.7260  -49.2330 H         1 UNK         0.0600 
    187 H187        2.9010  -10.2712  -49.9639 H         1 UNK         0.0600 
    188 H188        4.4691  -10.2138  -49.1743 H         1 UNK         0.0600 
    189 H189        0.7208   -9.9919  -47.5986 H         1 UNK         0.3000 
    190 H190       -2.5569  -21.9138  -45.4965 H         1 UNK         0.3000 
    191 H191       -4.8113  -23.5446  -46.0111 H         1 UNK         0.0600 
    192 H192       -4.8674  -21.5916  -44.5020 H         1 UNK         0.0600 
    193 H193       -3.7836  -22.3973  -43.3697 H         1 UNK         0.0600 
    194 H194       -5.4002  -23.0321  -43.6488 H         1 UNK         0.0600 
    195 H195       -1.8272  -24.2422  -44.1763 H         1 UNK         0.3000 
    196 H196       -2.7190  -26.8157  -43.2193 H         1 UNK         0.0600 
    197 H197       -1.0148  -25.5061  -42.0112 H         1 UNK         0.0600 
    198 H198        0.0780  -25.5787  -43.3896 H         1 UNK         0.0600 
    199 H199       -0.3366  -27.0476  -42.5136 H         1 UNK         0.0600 
    200 H200       -0.4155  -25.8213  -45.8223 H         1 UNK         0.3000 
    201 H201        0.1238  -28.5834  -46.5072 H         1 UNK         0.0600 
    202 H202        1.8836  -26.8267  -46.4617 H         1 UNK         0.0600 
    203 H203        1.0852  -25.9721  -47.7807 H         1 UNK         0.0600 
    204 H204        1.7694  -27.5702  -48.0500 H         1 UNK         0.0600 
    205 H205       -1.8025  -25.9693  -48.0191 H         1 UNK         0.3000 
    206 H206       -2.3818  -27.7318  -50.3765 H         1 UNK         0.0600 
    207 H207       -2.0116  -24.6908  -50.2757 H         1 UNK         0.0600 
    208 H208       -0.8181  -25.8351  -50.8835 H         1 UNK         0.0600 
    209 H209       -2.3557  -25.6503  -51.7086 H         1 UNK         0.0600 
    210 H210       -3.8238  -26.8153  -47.6518 H         1 UNK         0.3000 
    211 H211       -5.8849  -26.4541  -46.8899 H         1 UNK         0.0600 
    212 H212       -6.8948  -27.4967  -49.5829 H         1 UNK         0.0600 
    213 H213       -7.7846  -27.4587  -48.0677 H         1 UNK         0.0600 
    214 H214       -6.3905  -28.5114  -48.2318 H         1 UNK         0.0600 
    215 H215       -4.5181  -24.2977  -48.4342 H         1 UNK         0.3000 
    216 H216       -4.7175  -22.2567  -49.2095 H         1 UNK         0.0600 
    217 H217       -6.5407  -20.7863  -48.4497 H         1 UNK         0.0600 
    218 H218       -6.0122  -21.8115  -47.1318 H         1 UNK         0.0600 
    219 H219       -7.5159  -22.1705  -47.9802 H         1 UNK         0.0600 
    220 H220       -5.6696  -24.5792  -50.9060 H         1 UNK         0.3000 
    221 H221       -7.7770  -23.5832  -52.5947 H         1 UNK         0.0600 
    222 H222       -5.8069  -25.8847  -53.0421 H         1 UNK         0.0600 
    223 H223       -7.3371  -26.0141  -52.1748 H         1 UNK         0.0600 
    224 H224       -7.3260  -25.6318  -53.8903 H         1 UNK         0.0600 
    225 H225       -4.3764  -22.9920  -52.5546 H         1 UNK         0.3000 
    226 H226       -4.0229  -22.4105  -55.3863 H         1 UNK         0.0600 
    227 H227       -2.1583  -23.2771  -53.9991 H         1 UNK         0.0600 
    228 H228       -1.7646  -21.6959  -54.6529 H         1 UNK         0.0600 
    229 H229       -2.2337  -21.8528  -52.9657 H         1 UNK         0.0600 
    230 H230       -6.1082  -21.0503  -55.1687 H         1 UNK         0.3000 
    231 H231       -6.1317  -18.4357  -54.1072 H         1 UNK         0.0600 
    232 H232       -7.9977  -18.0813  -55.7406 H         1 UNK         0.0600 
    233 H233       -8.1645  -19.6159  -54.9004 H         1 UNK         0.0600 
    234 H234       -7.5745  -19.5793  -56.5618 H         1 UNK         0.0600 
    235 H235       -5.0789  -16.6382  -54.6519 H         1 UNK         0.3000 
    236 H236       -3.6205  -15.2262  -55.5238 H         1 UNK         0.0600 
    237 H237       -4.6546  -16.0959  -58.2750 H         1 UNK         0.0600 
    238 H238       -5.4221  -14.8933  -57.2392 H         1 UNK         0.0600 
    239 H239       -3.8224  -14.5945  -57.8963 H         1 UNK         0.0600 
    240 H240       -2.7523  -17.9666  -54.9870 H         1 UNK         0.3000 
    241 H241       -0.9943  -19.2316  -54.9994 H         1 UNK         0.0600 
    242 H242       -2.3184  -20.4500  -58.4310 H         1 UNK         0.3800 
    243 H243       -3.0827  -19.2586  -57.4102 H         1 UNK         0.3800 
    244 H244        0.5399  -17.2641  -56.7520 H         1 UNK         0.0800 
    245 H245        1.2312  -18.5948  -55.8746 H         1 UNK         0.0800 
    246 H246        2.1595  -17.7528  -52.8088 H         1 UNK         0.0800 
    247 H247        1.1817  -18.9987  -53.5357 H         1 UNK         0.0800 
@<TRIPOS>BOND
     1    1    2 1    
     2    1  127 1    
     3    1  128 1    
     4    1  129 1    
     5    2    3 2    
     6    2    4 am   BACKBONE|DICT|INTERRES
     7    4    5 1    
     8    4  130 1    
     9    5    6 1    
    10    5   65 1    
    11    5  131 1    
    12    6    7 1    
    13    6  132 1    
    14    6  133 1    
    15    7    8 1    
    16    8    9 1    
    17    8  134 1    
    18    8  135 1    
    19    9   10 ar   
    20    9   14 ar   
    21   10   11 ar   
    22   10  136 1    
    23   11   12 ar   
    24   11  126 1    
    25   12   13 ar   
    26   12  137 1    
    27   13   14 ar   
    28   13   15 1    
    29   14  138 1    
    30   15   16 1    
    31   15  139 1    
    32   15  140 1    
    33   16   17 1    
    34   17   18 1    
    35   17  141 1    
    36   17  142 1    
    37   18   19 1    
    38   18   67 1    
    39   18  143 1    
    40   19   20 am   BACKBONE|DICT|INTERRES
    41   19  144 1    
    42   20   21 2    
    43   20   22 1    
    44   22   23 1    
    45   22   24 1    
    46   22  145 1    
    47   23  146 1    
    48   23  147 1    
    49   23  148 1    
    50   24   25 am   BACKBONE|DICT|INTERRES
    51   24  149 1    
    52   25   26 2    
    53   25   27 1    
    54   27   28 1    
    55   27   29 1    
    56   27  150 1    
    57   28  151 1    
    58   28  152 1    
    59   28  153 1    
    60   29   30 am   BACKBONE|DICT|INTERRES
    61   29  154 1    
    62   30   31 2    
    63   30   32 1    
    64   32   33 1    
    65   32   34 1    
    66   32  155 1    
    67   33  156 1    
    68   33  157 1    
    69   33  158 1    
    70   34   35 am   BACKBONE|DICT|INTERRES
    71   34  159 1    
    72   35   36 2    
    73   35   37 1    
    74   37   38 1    
    75   37   39 1    
    76   37  160 1    
    77   38  161 1    
    78   38  162 1    
    79   38  163 1    
    80   39   40 am   BACKBONE|DICT|INTERRES
    81   39  164 1    
    82   40   41 2    
    83   40   42 1    
    84   42   43 1    
    85   42   44 1    
    86   42  165 1    
    87   43  166 1    
    88   43  167 1    
    89   43  168 1    
    90   44   45 am   BACKBONE|DICT|INTERRES
    91   44  169 1    
    92   45   46 2    
    93   45   47 1    
    94   47   48 1    
    95   47   49 1    
    96   47  170 1    
    97   48  171 1    
    98   48  172 1    
    99   48  173 1    
   100   49   50 am   BACKBONE|DICT|INTERRES
   101   49  174 1    
   102   50   51 2    
   103   50   52 1    
   104   52   53 1    
   105   52   54 1    
   106   52  175 1    
   107   53  176 1    
   108   53  177 1    
   109   53  178 1    
   110   54   55 am   BACKBONE|DICT|INTERRES
   111   54  179 1    
   112   55   56 2    
   113   55   57 1    
   114   57   58 1    
   115   57   59 1    
   116   57  180 1    
   117   58  181 1    
   118   58  182 1    
   119   58  183 1    
   120   59   60 am   BACKBONE|DICT|INTERRES
   121   59  184 1    
   122   60   61 2    
   123   60   62 1    
   124   62   63 1    
   125   62   64 1    
   126   62  185 1    
   127   63  186 1    
   128   63  187 1    
   129   63  188 1    
   130   64   65 am   BACKBONE|DICT|INTERRES
   131   64  189 1    
   132   65   66 2    
   133   67   68 2    
   134   67   69 am   BACKBONE|DICT|INTERRES
   135   69   70 1    
   136   69  190 1    
   137   70   71 1    
   138   70   72 1    
   139   70  191 1    
   140   71  192 1    
   141   71  193 1    
   142   71  194 1    
   143   72   73 2    
   144   72   74 am   BACKBONE|DICT|INTERRES
   145   74   75 1    
   146   74  195 1    
   147   75   76 1    
   148   75   77 1    
   149   75  196 1    
   150   76  197 1    
   151   76  198 1    
   152   76  199 1    
   153   77   78 2    
   154   77   79 am   BACKBONE|DICT|INTERRES
   155   79   80 1    
   156   79  200 1    
   157   80   81 1    
   158   80   82 1    
   159   80  201 1    
   160   81  202 1    
   161   81  203 1    
   162   81  204 1    
   163   82   83 2    
   164   82   84 am   BACKBONE|DICT|INTERRES
   165   84   85 1    
   166   84  205 1    
   167   85   86 1    
   168   85   87 1    
   169   85  206 1    
   170   86  207 1    
   171   86  208 1    
   172   86  209 1    
   173   87   88 2    
   174   87   89 am   BACKBONE|DICT|INTERRES
   175   89   90 1    
   176   89  210 1    
   177   90   91 1    
   178   90   92 1    
   179   90  211 1    
   180   91  212 1    
   181   91  213 1    
   182   91  214 1    
   183   92   93 2    
   184   92   94 am   BACKBONE|DICT|INTERRES
   185   94   95 1    
   186   94  215 1    
   187   95   96 1    
   188   95   97 1    
   189   95  216 1    
   190   96  217 1    
   191   96  218 1    
   192   96  219 1    
   193   97   98 2    
   194   97   99 am   BACKBONE|DICT|INTERRES
   195   99  100 1    
   196   99  220 1    
   197  100  101 1    
   198  100  102 1    
   199  100  221 1    
   200  101  222 1    
   201  101  223 1    
   202  101  224 1    
   203  102  103 2    
   204  102  104 am   BACKBONE|DICT|INTERRES
   205  104  105 1    
   206  104  225 1    
   207  105  106 1    
   208  105  107 1    
   209  105  226 1    
   210  106  227 1    
   211  106  228 1    
   212  106  229 1    
   213  107  108 2    
   214  107  109 am   BACKBONE|DICT|INTERRES
   215  109  110 1    
   216  109  230 1    
   217  110  111 1    
   218  110  112 1    
   219  110  231 1    
   220  111  232 1    
   221  111  233 1    
   222  111  234 1    
   223  112  113 2    
   224  112  114 am   BACKBONE|DICT|INTERRES
   225  114  115 1    
   226  114  235 1    
   227  115  116 1    
   228  115  117 1    
   229  115  236 1    
   230  116  237 1    
   231  116  238 1    
   232  116  239 1    
   233  117  118 2    
   234  117  119 am   BACKBONE|DICT|INTERRES
   235  119  120 1    
   236  119  240 1    
   237  120  121 1    
   238  120  124 1    
   239  120  241 1    
   240  121  122 am   BACKBONE|DICT|INTERRES
   241  121  123 2    
   242  122  242 1    
   243  122  243 1    
   244  124  125 1    
   245  124  244 1    
   246  124  245 1    
   247  125  126 1    
   248  126  246 1    
   249  126  247 1    
@<TRIPOS>SUBSTRUCTURE
     1 UNK         1 GROUP             0       ****    0 ROOT    
