@<TRIPOS>MOLECULE
3R540
247   249    1
SMALL
USER_CHARGES


@<TRIPOS>ATOM
      1 CA          3.0950  -18.1854  -47.9110 C.3       0 UNK        -0.1800 
      2 C           2.7717  -16.8325  -47.2955 C.2       0 UNK         0.5000 
      3 O           3.1314  -16.5827  -46.1474 O.2       0 UNK        -0.5000 
      4 N           2.1191  -15.9430  -48.0562 N.am      1 UNK        -0.5000 
      5 CA          1.6974  -14.5982  -47.6298 C.3       1 UNK         0.1400 
      6 C6          0.7160  -13.9445  -48.6335 C.3       23 UNK        -0.0398 
      7 S7          1.3431  -13.8952  -50.3511 S.3       23 UNK        -0.2404 
      8 C8         -0.1933  -13.6704  -51.3103 C.3       23 UNK        -0.0205 
      9 C9         -1.2090  -14.7805  -51.0721 C.ar      23 UNK        -0.0193 
     10 C10        -2.4866  -14.4752  -50.5962 C.ar      23 UNK        -0.1150 
     11 C11        -3.4178  -15.4896  -50.3579 C.ar      23 UNK        -0.0193 
     12 C12        -3.0529  -16.8237  -50.5672 C.ar      23 UNK        -0.1150 
     13 C13        -1.7756  -17.1427  -51.0389 C.ar      23 UNK        -0.0193 
     14 C14        -0.8695  -16.1139  -51.3131 C.ar      23 UNK        -0.1150 
     15 C15        -1.3680  -18.5956  -51.2481 C.3       23 UNK        -0.0205 
     16 S16         0.1480  -19.0242  -50.3277 S.3       23 UNK        -0.2404 
     17 C17        -0.4199  -18.9020  -48.5977 C.3       23 UNK        -0.0398 
     18 CA         -0.3228  -20.2547  -47.8526 C.3       11 UNK         0.1400 
     19 N          -0.2939  -20.0830  -46.3993 N.am      11 UNK        -0.5000 
     20 C          -0.1428  -21.0692  -45.5027 C.2       10 UNK         0.5000 
     21 O           0.0643  -22.2459  -45.7966 O.2       10 UNK        -0.5000 
     22 CA         -0.3193  -20.6803  -44.0258 C.3       10 UNK         0.1400 
     23 CB          0.9760  -20.0724  -43.4615 C.3       10 UNK        -0.1800 
     24 N          -1.4488  -19.7627  -43.8474 N.am      10 UNK        -0.5000 
     25 C          -2.7312  -20.1168  -44.0319 C.2       9 UNK         0.5000 
     26 O          -3.0900  -21.2679  -44.2776 O.2       9 UNK        -0.5000 
     27 CA         -3.7874  -18.9977  -43.9998 C.3       9 UNK         0.1400 
     28 CB         -4.3300  -18.7766  -42.5822 C.3       9 UNK        -0.1800 
     29 N          -3.2795  -17.7371  -44.5394 N.am      9 UNK        -0.5000 
     30 C          -3.0736  -17.5243  -45.8468 C.2       8 UNK         0.5000 
     31 O          -3.3127  -18.3597  -46.7184 O.2       8 UNK        -0.5000 
     32 CA         -2.4550  -16.1724  -46.2486 C.3       8 UNK         0.1400 
     33 CB         -3.5556  -15.1176  -46.4208 C.3       8 UNK        -0.1800 
     34 N          -1.4612  -15.6714  -45.2979 N.am      8 UNK        -0.5000 
     35 C          -0.3577  -16.3254  -44.9132 C.2       7 UNK         0.5000 
     36 O          -0.0441  -17.4319  -45.3501 O.2       7 UNK        -0.5000 
     37 CA          0.5358  -15.6471  -43.8556 C.3       7 UNK         0.1400 
     38 CB          0.2809  -14.1305  -43.7077 C.3       7 UNK        -0.1800 
     39 N           0.4493  -16.2942  -42.5431 N.am      7 UNK        -0.5000 
     40 C          -0.6505  -16.5169  -41.8059 C.2       6 UNK         0.5000 
     41 O          -1.7981  -16.3379  -42.2166 O.2       6 UNK        -0.5000 
     42 CA         -0.4404  -17.0088  -40.3561 C.3       6 UNK         0.1400 
     43 CB         -0.9802  -18.4334  -40.1566 C.3       6 UNK        -0.1800 
     44 N           0.9558  -16.9644  -39.9063 N.am      6 UNK        -0.5000 
     45 C           1.6138  -15.8487  -39.5590 C.2       5 UNK         0.5000 
     46 O           1.1048  -14.7284  -39.6176 O.2       5 UNK        -0.5000 
     47 CA          3.0680  -16.0079  -39.0580 C.3       5 UNK         0.1400 
     48 CB          3.5998  -17.4550  -39.1229 C.3       5 UNK        -0.1800 
     49 N           3.9821  -15.1487  -39.8085 N.am      5 UNK        -0.5000 
     50 C           4.2028  -13.8456  -39.5850 C.2       4 UNK         0.5000 
     51 O           3.6867  -13.2128  -38.6624 O.2       4 UNK        -0.5000 
     52 CA          5.1945  -13.1273  -40.5262 C.3       4 UNK         0.1400 
     53 CB          6.4432  -12.6731  -39.7520 C.3       4 UNK        -0.1800 
     54 N           5.6269  -13.9497  -41.6609 N.am      4 UNK        -0.5000 
     55 C           4.9246  -14.1321  -42.7854 C.2       3 UNK         0.5000 
     56 O           3.8164  -13.6344  -42.9921 O.2       3 UNK        -0.5000 
     57 CA          5.5530  -15.0790  -43.8233 C.3       3 UNK         0.1400 
     58 CB          5.0707  -16.5189  -43.5841 C.3       3 UNK        -0.1800 
     59 N           5.2370  -14.6793  -45.1952 N.am      3 UNK        -0.5000 
     60 C           5.7538  -13.6001  -45.8042 C.2       2 UNK         0.5000 
     61 O           6.5757  -12.8534  -45.2700 O.2       2 UNK        -0.5000 
     62 CA          5.3169  -13.3030  -47.2554 C.3       2 UNK         0.1400 
     63 CB          6.4298  -13.6925  -48.2412 C.3       2 UNK        -0.1800 
     64 N           4.0876  -13.9890  -47.6478 N.am      2 UNK        -0.5000 
     65 C           2.8559  -13.6475  -47.2479 C.2       1 UNK         0.5000 
     66 O           2.6137  -12.6428  -46.5786 O.2       1 UNK        -0.5000 
     67 C          -1.4441  -21.2177  -48.2855 C.2       11 UNK         0.5000 
     68 O          -1.1659  -22.1939  -48.9797 O.2       11 UNK        -0.5000 
     69 N          -2.6761  -20.9535  -47.8254 N.am      12 UNK        -0.5000 
     70 CA         -3.8531  -21.7790  -48.0904 C.3       12 UNK         0.1400 
     71 CB         -5.1024  -21.1074  -47.5042 C.3       12 UNK        -0.1800 
     72 C          -3.7109  -23.2217  -47.5756 C.2       12 UNK         0.5000 
     73 O          -4.0666  -24.1504  -48.3005 O.2       12 UNK        -0.5000 
     74 N          -3.1622  -23.3855  -46.3629 N.am      13 UNK        -0.5000 
     75 CA         -2.8748  -24.6838  -45.7529 C.3       13 UNK         0.1400 
     76 CB         -2.4517  -24.4916  -44.2888 C.3       13 UNK        -0.1800 
     77 C          -1.8154  -25.4849  -46.5300 C.2       13 UNK         0.5000 
     78 O          -2.0424  -26.6599  -46.8199 O.2       13 UNK        -0.5000 
     79 N          -0.7003  -24.8322  -46.8905 N.am      14 UNK        -0.5000 
     80 CA          0.3860  -25.4149  -47.6851 C.3       14 UNK         0.1400 
     81 CB          1.5651  -24.4317  -47.7369 C.3       14 UNK        -0.1800 
     82 C          -0.0551  -25.8065  -49.1082 C.2       14 UNK         0.5000 
     83 O           0.3761  -26.8382  -49.6235 O.2       14 UNK        -0.5000 
     84 N          -0.9364  -24.9904  -49.6963 N.am      15 UNK        -0.5000 
     85 CA         -1.5630  -25.2040  -50.9985 C.3       15 UNK         0.1400 
     86 CB         -2.0504  -23.8442  -51.5109 C.3       15 UNK        -0.1800 
     87 C          -2.7354  -26.2065  -50.9773 C.2       15 UNK         0.5000 
     88 O          -3.3187  -26.4597  -52.0353 O.2       15 UNK        -0.5000 
     89 N          -3.1015  -26.7072  -49.7856 N.am      16 UNK        -0.5000 
     90 CA         -4.2164  -27.6184  -49.4931 C.3       16 UNK         0.1400 
     91 CB         -3.9173  -29.0199  -50.0630 C.3       16 UNK        -0.1800 
     92 C          -5.5901  -27.0752  -49.9475 C.2       16 UNK         0.5000 
     93 O          -6.4757  -27.8551  -50.3010 O.2       16 UNK        -0.5000 
     94 N          -5.7157  -25.7393  -49.9776 N.am      17 UNK        -0.5000 
     95 CA         -6.8133  -24.9329  -50.5244 C.3       17 UNK         0.1400 
     96 CB         -8.0988  -25.1391  -49.6986 C.3       17 UNK        -0.1800 
     97 C          -7.0620  -25.1158  -52.0421 C.2       17 UNK         0.5000 
     98 O          -8.0441  -24.5780  -52.5554 O.2       17 UNK        -0.5000 
     99 N          -6.1853  -25.8512  -52.7399 N.am      18 UNK        -0.5000 
    100 CA        -6.3263  -26.2085  -54.1501 C.3       18 UNK         0.1400 
    101 CB        -5.8738  -27.6646  -54.3461 C.3       18 UNK        -0.1800 
    102 C         -5.5141  -25.2621  -55.0434 C.2       18 UNK         0.5000 
    103 O         -6.0449  -24.7463  -56.0271 O.2       18 UNK        -0.5000 
    104 N         -4.2487  -25.0310  -54.6702 N.am      19 UNK        -0.5000 
    105 CA        -3.3106  -24.1615  -55.3894 C.3       19 UNK         0.1400 
    106 CB        -1.9210  -24.8229  -55.3701 C.3       19 UNK        -0.1800 
    107 C         -3.2681  -22.7310  -54.8098 C.2       19 UNK         0.5000 
    108 O         -2.3601  -21.9654  -55.1380 O.2       19 UNK        -0.5000 
    109 N         -4.2198  -22.4049  -53.9236 N.am      20 UNK        -0.5000 
    110 CA        -4.3120  -21.1617  -53.1588 C.3       20 UNK         0.1400 
    111 CB        -5.2268  -21.4063  -51.9450 C.3       20 UNK        -0.1800 
    112 C         -4.7807  -19.9763  -54.0270 C.2       20 UNK         0.5000 
    113 O         -5.8787  -19.4512  -53.8297 O.2       20 UNK        -0.5000 
    114 N         -3.9378  -19.5827  -54.9880 N.am      21 UNK        -0.5000 
    115 CA        -4.1390  -18.4856  -55.9354 C.3       21 UNK         0.1400 
    116 CB        -3.1818  -18.6871  -57.1240 C.3       21 UNK        -0.1800 
    117 C         -3.9843  -17.0989  -55.2729 C.2       21 UNK         0.5000 
    118 O         -3.0872  -16.3322  -55.6284 O.2       21 UNK        -0.5000 
    119 N         -4.8593  -16.8175  -54.3029 N.am      22 UNK        -0.5000 
    120 CA        -4.9835  -15.5402  -53.5927 C.3       22 UNK         0.1400 
    121 C         -5.3973  -14.3774  -54.5408 C.2       22 UNK         0.5000 
    122 N         -4.7542  -13.2219  -54.4420 N.am      22 UNK        -0.7600 
    123 O         -6.3182  -14.5083  -55.3448 O.2       22 UNK        -0.5000 
    124 C124       -5.9671  -15.6918  -52.4036 C.3       23 UNK        -0.0398 
    125 S125       -5.8170  -14.3506  -51.1753 S.3       23 UNK        -0.2404 
    126 C126       -4.8160  -15.1361  -49.8733 C.3       23 UNK        -0.0205 
    127 H127        4.1659  -18.3784  -47.8497 H         1 UNK         0.0600 
    128 H128        2.8007  -18.2347  -48.9592 H         1 UNK         0.0600 
    129 H129        2.5744  -18.9752  -47.3694 H         1 UNK         0.0600 
    130 H130        1.8774  -16.1835  -49.0076 H         1 UNK         0.3000 
    131 H131        1.1402  -14.7369  -46.7047 H         1 UNK         0.0600 
    132 H132       -0.2159  -14.5096  -48.6117 H         1 UNK         0.0800 
    133 H133        0.4486  -12.9325  -48.3242 H         1 UNK         0.0800 
    134 H134        0.0543  -13.6414  -52.3721 H         1 UNK         0.0800 
    135 H135       -0.6187  -12.6957  -51.0666 H         1 UNK         0.0800 
    136 H136       -2.7646  -13.4458  -50.4175 H         1 UNK         0.1150 
    137 H137       -3.7641  -17.6124  -50.3651 H         1 UNK         0.1150 
    138 H138        0.1175  -16.3543  -51.6827 H         1 UNK         0.1150 
    139 H139       -2.1687  -19.2759  -50.9534 H         1 UNK         0.0800 
    140 H140       -1.1954  -18.7621  -52.3122 H         1 UNK         0.0800 
    141 H141       -1.4307  -18.4956  -48.5580 H         1 UNK         0.0800 
    142 H142        0.2058  -18.1587  -48.1060 H         1 UNK         0.0800 
    143 H143        0.6283  -20.7218  -48.1177 H         1 UNK         0.0600 
    144 H144       -0.3991  -19.1343  -46.0486 H         1 UNK         0.3000 
    145 H145       -0.5315  -21.5935  -43.4656 H         1 UNK         0.0600 
    146 H146        0.9029  -19.8972  -42.3904 H         1 UNK         0.0600 
    147 H147        1.8169  -20.7503  -43.6141 H         1 UNK         0.0600 
    148 H148        1.2348  -19.1285  -43.9394 H         1 UNK         0.0600 
    149 H149       -1.2288  -18.7849  -43.7262 H         1 UNK         0.3000 
    150 H150       -4.6237  -19.3242  -44.6216 H         1 UNK         0.0600 
    151 H151       -4.6778  -19.7127  -42.1433 H         1 UNK         0.0600 
    152 H152       -5.1741  -18.0870  -42.5896 H         1 UNK         0.0600 
    153 H153       -3.5711  -18.3631  -41.9223 H         1 UNK         0.0600 
    154 H154       -3.0056  -17.0259  -43.8702 H         1 UNK         0.3000 
    155 H155       -1.9584  -16.3131  -47.2111 H         1 UNK         0.0600 
    156 H156       -3.9795  -14.8175  -45.4617 H         1 UNK         0.0600 
    157 H157       -4.3749  -15.5053  -47.0260 H         1 UNK         0.0600 
    158 H158       -3.1728  -14.2249  -46.9158 H         1 UNK         0.0600 
    159 H159       -1.6638  -14.7836  -44.8622 H         1 UNK         0.3000 
    160 H160        1.5642  -15.7731  -44.1948 H         1 UNK         0.0600 
    161 H161       -0.7098  -13.9127  -43.3076 H         1 UNK         0.0600 
    162 H162        0.3796  -13.6138  -44.6630 H         1 UNK         0.0600 
    163 H163        1.0090  -13.6836  -43.0304 H         1 UNK         0.0600 
    164 H164        1.3351  -16.5156  -42.1142 H         1 UNK         0.3000 
    165 H165       -1.0210  -16.3453  -39.7116 H         1 UNK         0.0600 
    166 H166       -0.7783  -18.7955  -39.1483 H         1 UNK         0.0600 
    167 H167       -2.0604  -18.4611  -40.2879 H         1 UNK         0.0600 
    168 H168       -0.5448  -19.1407  -40.8596 H         1 UNK         0.0600 
    169 H169        1.4326  -17.8511  -39.8276 H         1 UNK         0.3000 
    170 H170        3.0747  -15.7008  -38.0102 H         1 UNK         0.0600 
    171 H171        2.9952  -18.1301  -38.5157 H         1 UNK         0.0600 
    172 H172        3.6178  -17.8398  -40.1436 H         1 UNK         0.0600 
    173 H173        4.6169  -17.5113  -38.7340 H         1 UNK         0.0600 
    174 H174        4.4503  -15.5703  -40.5953 H         1 UNK         0.3000 
    175 H175        4.6902  -12.2368  -40.9078 H         1 UNK         0.0600 
    176 H176        6.9888  -13.5206  -39.3353 H         1 UNK         0.0600 
    177 H177        7.1254  -12.1167  -40.3952 H         1 UNK         0.0600 
    178 H178        6.1747  -12.0164  -38.9234 H         1 UNK         0.0600 
    179 H179        6.5250  -14.4021  -41.5642 H         1 UNK         0.3000 
    180 H180        6.6390  -15.0586  -43.7091 H         1 UNK         0.0600 
    181 H181        3.9830  -16.5907  -43.6166 H         1 UNK         0.0600 
    182 H182        5.3927  -16.8833  -42.6081 H         1 UNK         0.0600 
    183 H183        5.4729  -17.2010  -44.3335 H         1 UNK         0.0600 
    184 H184        4.5306  -15.2322  -45.6700 H         1 UNK         0.3000 
    185 H185        5.1536  -12.2261  -47.3343 H         1 UNK         0.0600 
    186 H186        6.1614  -13.4280  -49.2642 H         1 UNK         0.0600 
    187 H187        7.3600  -13.1734  -48.0066 H         1 UNK         0.0600 
    188 H188        6.6354  -14.7633  -48.2130 H         1 UNK         0.0600 
    189 H189        4.1913  -14.8302  -48.1960 H         1 UNK         0.3000 
    190 H190       -2.8309  -20.1076  -47.2827 H         1 UNK         0.3000 
    191 H191       -3.9741  -21.8286  -49.1731 H         1 UNK         0.0600 
    192 H192       -5.0306  -21.0016  -46.4215 H         1 UNK         0.0600 
    193 H193       -5.9977  -21.6920  -47.7199 H         1 UNK         0.0600 
    194 H194       -5.2518  -20.1144  -47.9286 H         1 UNK         0.0600 
    195 H195       -2.9355  -22.5654  -45.8095 H         1 UNK         0.3000 
    196 H196       -3.7994  -25.2649  -45.7615 H         1 UNK         0.0600 
    197 H197       -1.5580  -23.8729  -44.2044 H         1 UNK         0.0600 
    198 H198       -2.2351  -25.4497  -43.8149 H         1 UNK         0.0600 
    199 H199       -3.2433  -24.0150  -43.7105 H         1 UNK         0.0600 
    200 H200       -0.5765  -23.8661  -46.5970 H         1 UNK         0.3000 
    201 H201        0.7201  -26.3232  -47.1797 H         1 UNK         0.0600 
    202 H202        1.9401  -24.2140  -46.7367 H         1 UNK         0.0600 
    203 H203        1.2791  -23.4859  -48.1990 H         1 UNK         0.0600 
    204 H204        2.3944  -24.8435  -48.3134 H         1 UNK         0.0600 
    205 H205       -1.1794  -24.1231  -49.2244 H         1 UNK         0.3000 
    206 H206       -0.8161  -25.5899  -51.6949 H         1 UNK         0.0600 
    207 H207       -1.2237  -23.1463  -51.6446 H         1 UNK         0.0600 
    208 H208       -2.5426  -23.9545  -52.4703 H         1 UNK         0.0600 
    209 H209       -2.7692  -23.3918  -50.8280 H         1 UNK         0.0600 
    210 H210       -2.5815  -26.4004  -48.9728 H         1 UNK         0.3000 
    211 H211       -4.2662  -27.7016  -48.4067 H         1 UNK         0.0600 
    212 H212       -3.9123  -29.0193  -51.1536 H         1 UNK         0.0600 
    213 H213       -4.6653  -29.7442  -49.7388 H         1 UNK         0.0600 
    214 H214       -2.9475  -29.3837  -49.7233 H         1 UNK         0.0600 
    215 H215       -4.9492  -25.2008  -49.5788 H         1 UNK         0.3000 
    216 H216       -6.5066  -23.8943  -50.3958 H         1 UNK         0.0600 
    217 H217       -8.8752  -24.4340  -49.9976 H         1 UNK         0.0600 
    218 H218       -7.9130  -24.9821  -48.6360 H         1 UNK         0.0600 
    219 H219       -8.5048  -26.1430  -49.8243 H         1 UNK         0.0600 
    220 H220       -5.3750  -26.2262  -52.2597 H         1 UNK         0.3000 
    221 H221       -7.3740  -26.1424  -54.4513 H         1 UNK         0.0600 
    222 H222       -4.8339  -27.8116  -54.0514 H         1 UNK         0.0600 
    223 H223       -6.4851  -28.3466  -53.7548 H         1 UNK         0.0600 
    224 H224       -5.9665  -27.9659  -55.3903 H         1 UNK         0.0600 
    225 H225       -3.8934  -25.4961  -53.8416 H         1 UNK         0.3000 
    226 H226       -3.6163  -24.0680  -56.4334 H         1 UNK         0.0600 
    227 H227       -1.9540  -25.8146  -55.8214 H         1 UNK         0.0600 
    228 H228       -1.1963  -24.2371  -55.9370 H         1 UNK         0.0600 
    229 H229       -1.5342  -24.9324  -54.3571 H         1 UNK         0.0600 
    230 H230       -4.9426  -23.0874  -53.7526 H         1 UNK         0.3000 
    231 H231       -3.3176  -20.9166  -52.7793 H         1 UNK         0.0600 
    232 H232       -4.8596  -22.2314  -51.3363 H         1 UNK         0.0600 
    233 H233       -6.2462  -21.6477  -52.2494 H         1 UNK         0.0600 
    234 H234       -5.2729  -20.5240  -51.3052 H         1 UNK         0.0600 
    235 H235       -3.0852  -20.1224  -55.1008 H         1 UNK         0.3000 
    236 H236       -5.1593  -18.5458  -56.3199 H         1 UNK         0.0600 
    237 H237       -3.3199  -17.9084  -57.8752 H         1 UNK         0.0600 
    238 H238       -2.1379  -18.6614  -56.8090 H         1 UNK         0.0600 
    239 H239       -3.3592  -19.6446  -57.6144 H         1 UNK         0.0600 
    240 H240       -5.5356  -17.5368  -54.0676 H         1 UNK         0.3000 
    241 H241       -3.9926  -15.3183  -53.1921 H         1 UNK         0.0600 
    242 H242       -5.0209  -12.4578  -55.0430 H         1 UNK         0.3800 
    243 H243       -4.0097  -13.0913  -53.7750 H         1 UNK         0.3800 
    244 H244       -6.9990  -15.7298  -52.7572 H         1 UNK         0.0800 
    245 H245       -5.7979  -16.6414  -51.8938 H         1 UNK         0.0800 
    246 H246       -5.3344  -16.0163  -49.4898 H         1 UNK         0.0800 
    247 H247       -4.7387  -14.4347  -49.0427 H         1 UNK         0.0800 
@<TRIPOS>BOND
     1    1    2 1    
     2    1  127 1    
     3    1  128 1    
     4    1  129 1    
     5    2    3 2    
     6    2    4 am   BACKBONE|DICT|INTERRES
     7    4    5 1    
     8    4  130 1    
     9    5    6 1    
    10    5   65 1    
    11    5  131 1    
    12    6    7 1    
    13    6  132 1    
    14    6  133 1    
    15    7    8 1    
    16    8    9 1    
    17    8  134 1    
    18    8  135 1    
    19    9   10 ar   
    20    9   14 ar   
    21   10   11 ar   
    22   10  136 1    
    23   11   12 ar   
    24   11  126 1    
    25   12   13 ar   
    26   12  137 1    
    27   13   14 ar   
    28   13   15 1    
    29   14  138 1    
    30   15   16 1    
    31   15  139 1    
    32   15  140 1    
    33   16   17 1    
    34   17   18 1    
    35   17  141 1    
    36   17  142 1    
    37   18   19 1    
    38   18   67 1    
    39   18  143 1    
    40   19   20 am   BACKBONE|DICT|INTERRES
    41   19  144 1    
    42   20   21 2    
    43   20   22 1    
    44   22   23 1    
    45   22   24 1    
    46   22  145 1    
    47   23  146 1    
    48   23  147 1    
    49   23  148 1    
    50   24   25 am   BACKBONE|DICT|INTERRES
    51   24  149 1    
    52   25   26 2    
    53   25   27 1    
    54   27   28 1    
    55   27   29 1    
    56   27  150 1    
    57   28  151 1    
    58   28  152 1    
    59   28  153 1    
    60   29   30 am   BACKBONE|DICT|INTERRES
    61   29  154 1    
    62   30   31 2    
    63   30   32 1    
    64   32   33 1    
    65   32   34 1    
    66   32  155 1    
    67   33  156 1    
    68   33  157 1    
    69   33  158 1    
    70   34   35 am   BACKBONE|DICT|INTERRES
    71   34  159 1    
    72   35   36 2    
    73   35   37 1    
    74   37   38 1    
    75   37   39 1    
    76   37  160 1    
    77   38  161 1    
    78   38  162 1    
    79   38  163 1    
    80   39   40 am   BACKBONE|DICT|INTERRES
    81   39  164 1    
    82   40   41 2    
    83   40   42 1    
    84   42   43 1    
    85   42   44 1    
    86   42  165 1    
    87   43  166 1    
    88   43  167 1    
    89   43  168 1    
    90   44   45 am   BACKBONE|DICT|INTERRES
    91   44  169 1    
    92   45   46 2    
    93   45   47 1    
    94   47   48 1    
    95   47   49 1    
    96   47  170 1    
    97   48  171 1    
    98   48  172 1    
    99   48  173 1    
   100   49   50 am   BACKBONE|DICT|INTERRES
   101   49  174 1    
   102   50   51 2    
   103   50   52 1    
   104   52   53 1    
   105   52   54 1    
   106   52  175 1    
   107   53  176 1    
   108   53  177 1    
   109   53  178 1    
   110   54   55 am   BACKBONE|DICT|INTERRES
   111   54  179 1    
   112   55   56 2    
   113   55   57 1    
   114   57   58 1    
   115   57   59 1    
   116   57  180 1    
   117   58  181 1    
   118   58  182 1    
   119   58  183 1    
   120   59   60 am   BACKBONE|DICT|INTERRES
   121   59  184 1    
   122   60   61 2    
   123   60   62 1    
   124   62   63 1    
   125   62   64 1    
   126   62  185 1    
   127   63  186 1    
   128   63  187 1    
   129   63  188 1    
   130   64   65 am   BACKBONE|DICT|INTERRES
   131   64  189 1    
   132   65   66 2    
   133   67   68 2    
   134   67   69 am   BACKBONE|DICT|INTERRES
   135   69   70 1    
   136   69  190 1    
   137   70   71 1    
   138   70   72 1    
   139   70  191 1    
   140   71  192 1    
   141   71  193 1    
   142   71  194 1    
   143   72   73 2    
   144   72   74 am   BACKBONE|DICT|INTERRES
   145   74   75 1    
   146   74  195 1    
   147   75   76 1    
   148   75   77 1    
   149   75  196 1    
   150   76  197 1    
   151   76  198 1    
   152   76  199 1    
   153   77   78 2    
   154   77   79 am   BACKBONE|DICT|INTERRES
   155   79   80 1    
   156   79  200 1    
   157   80   81 1    
   158   80   82 1    
   159   80  201 1    
   160   81  202 1    
   161   81  203 1    
   162   81  204 1    
   163   82   83 2    
   164   82   84 am   BACKBONE|DICT|INTERRES
   165   84   85 1    
   166   84  205 1    
   167   85   86 1    
   168   85   87 1    
   169   85  206 1    
   170   86  207 1    
   171   86  208 1    
   172   86  209 1    
   173   87   88 2    
   174   87   89 am   BACKBONE|DICT|INTERRES
   175   89   90 1    
   176   89  210 1    
   177   90   91 1    
   178   90   92 1    
   179   90  211 1    
   180   91  212 1    
   181   91  213 1    
   182   91  214 1    
   183   92   93 2    
   184   92   94 am   BACKBONE|DICT|INTERRES
   185   94   95 1    
   186   94  215 1    
   187   95   96 1    
   188   95   97 1    
   189   95  216 1    
   190   96  217 1    
   191   96  218 1    
   192   96  219 1    
   193   97   98 2    
   194   97   99 am   BACKBONE|DICT|INTERRES
   195   99  100 1    
   196   99  220 1    
   197  100  101 1    
   198  100  102 1    
   199  100  221 1    
   200  101  222 1    
   201  101  223 1    
   202  101  224 1    
   203  102  103 2    
   204  102  104 am   BACKBONE|DICT|INTERRES
   205  104  105 1    
   206  104  225 1    
   207  105  106 1    
   208  105  107 1    
   209  105  226 1    
   210  106  227 1    
   211  106  228 1    
   212  106  229 1    
   213  107  108 2    
   214  107  109 am   BACKBONE|DICT|INTERRES
   215  109  110 1    
   216  109  230 1    
   217  110  111 1    
   218  110  112 1    
   219  110  231 1    
   220  111  232 1    
   221  111  233 1    
   222  111  234 1    
   223  112  113 2    
   224  112  114 am   BACKBONE|DICT|INTERRES
   225  114  115 1    
   226  114  235 1    
   227  115  116 1    
   228  115  117 1    
   229  115  236 1    
   230  116  237 1    
   231  116  238 1    
   232  116  239 1    
   233  117  118 2    
   234  117  119 am   BACKBONE|DICT|INTERRES
   235  119  120 1    
   236  119  240 1    
   237  120  121 1    
   238  120  124 1    
   239  120  241 1    
   240  121  122 am   BACKBONE|DICT|INTERRES
   241  121  123 2    
   242  122  242 1    
   243  122  243 1    
   244  124  125 1    
   245  124  244 1    
   246  124  245 1    
   247  125  126 1    
   248  126  246 1    
   249  126  247 1    
@<TRIPOS>SUBSTRUCTURE
     1 UNK         1 GROUP             0       ****    0 ROOT    
