@<TRIPOS>MOLECULE
3R540
247   249    1
SMALL
USER_CHARGES


@<TRIPOS>ATOM
      1 CA          3.9942  -16.0468  -50.1920 C.3       0 UNK        -0.1800 
      2 C           3.2955  -15.3812  -49.0155 C.2       0 UNK         0.5000 
      3 O           3.3864  -15.8696  -47.8885 O.2       0 UNK        -0.5000 
      4 N           2.6004  -14.2647  -49.2671 N.am      1 UNK        -0.5000 
      5 CA          1.8453  -13.4889  -48.2763 C.3       1 UNK         0.1400 
      6 C6          0.7211  -12.6339  -48.9240 C.3       23 UNK        -0.0398 
      7 S7         -0.4051  -13.5951  -49.9944 S.3       23 UNK        -0.2404 
      8 C8         -1.4371  -14.4616  -48.7660 C.3       23 UNK        -0.0205 
      9 C9         -1.6823  -15.9136  -49.1558 C.ar      23 UNK        -0.0193 
     10 C10        -2.9858  -16.4080  -49.2776 C.ar      23 UNK        -0.1150 
     11 C11        -3.2062  -17.7498  -49.6045 C.ar      23 UNK        -0.0193 
     12 C12        -2.1144  -18.5955  -49.8077 C.ar      23 UNK        -0.1150 
     13 C13        -0.8074  -18.1168  -49.6971 C.ar      23 UNK        -0.0193 
     14 C14        -0.5998  -16.7735  -49.3707 C.ar      23 UNK        -0.1150 
     15 C15         0.3622  -19.0596  -49.9572 C.3       23 UNK        -0.0205 
     16 S16         1.7000  -18.9674  -48.7225 S.3       23 UNK        -0.2404 
     17 C17         0.8186  -19.1062  -47.1322 C.3       23 UNK        -0.0398 
     18 CA          0.3920  -20.5582  -46.7914 C.3       11 UNK         0.1400 
     19 N           0.7276  -20.9295  -45.4148 N.am      11 UNK        -0.5000 
     20 C           0.6344  -22.1688  -44.9134 C.2       10 UNK         0.5000 
     21 O           0.2886  -23.1494  -45.5734 O.2       10 UNK        -0.5000 
     22 CA          0.9273  -22.3282  -43.4098 C.3       10 UNK         0.1400 
     23 CB          2.4386  -22.3984  -43.1460 C.3       10 UNK        -0.1800 
     24 N           0.3335  -21.2566  -42.6075 N.am      10 UNK        -0.5000 
     25 C          -0.9867  -21.0497  -42.4930 C.2       9 UNK         0.5000 
     26 O          -1.8377  -21.7687  -43.0154 O.2       9 UNK        -0.5000 
     27 CA         -1.4356  -19.8083  -41.7035 C.3       9 UNK         0.1400 
     28 CB         -1.3753  -20.0762  -40.1925 C.3       9 UNK        -0.1800 
     29 N          -0.6562  -18.6138  -42.0323 N.am      9 UNK        -0.5000 
     30 C          -0.6123  -18.0467  -43.2474 C.2       8 UNK         0.5000 
     31 O          -1.2535  -18.4515  -44.2157 O.2       8 UNK        -0.5000 
     32 CA          0.3534  -16.8649  -43.4349 C.3       8 UNK         0.1400 
     33 CB         -0.2544  -15.5621  -42.8940 C.3       8 UNK        -0.1800 
     34 N           1.6521  -17.0970  -42.8077 N.am      8 UNK        -0.5000 
     35 C           2.4963  -18.0866  -43.1292 C.2       7 UNK         0.5000 
     36 O           2.2786  -18.9191  -44.0079 O.2       7 UNK        -0.5000 
     37 CA          3.7759  -18.1934  -42.2872 C.3       7 UNK         0.1400 
     38 CB          4.7955  -17.1203  -42.6984 C.3       7 UNK        -0.1800 
     39 N           3.4878  -18.0832  -40.8583 N.am      7 UNK        -0.5000 
     40 C           2.8213  -19.0047  -40.1489 C.2       6 UNK         0.5000 
     41 O           2.3974  -20.0608  -40.6202 O.2       6 UNK        -0.5000 
     42 CA          2.5580  -18.6700  -38.6698 C.3       6 UNK         0.1400 
     43 CB          3.7860  -19.0050  -37.8100 C.3       6 UNK        -0.1800 
     44 N           2.1867  -17.2684  -38.4629 N.am      6 UNK        -0.5000 
     45 C           1.0431  -16.7243  -38.9000 C.2       5 UNK         0.5000 
     46 O           0.1901  -17.3410  -39.5371 O.2       5 UNK        -0.5000 
     47 CA          0.8322  -15.2279  -38.6105 C.3       5 UNK         0.1400 
     48 CB          0.3817  -15.0149  -37.1571 C.3       5 UNK        -0.1800 
     49 N           1.9948  -14.3788  -38.8910 N.am      5 UNK        -0.5000 
     50 C           2.6235  -14.3044  -40.0709 C.2       4 UNK         0.5000 
     51 O           2.4148  -15.0694  -41.0141 O.2       4 UNK        -0.5000 
     52 CA          3.6460  -13.1713  -40.2504 C.3       4 UNK         0.1400 
     53 CB          5.0803  -13.7210  -40.2535 C.3       4 UNK        -0.1800 
     54 N           3.3829  -12.4958  -41.5194 N.am      4 UNK        -0.5000 
     55 C           2.3474  -11.6754  -41.7414 C.2       3 UNK         0.5000 
     56 O           1.6209  -11.2522  -40.8406 O.2       3 UNK        -0.5000 
     57 CA          2.0186  -11.3001  -43.2023 C.3       3 UNK         0.1400 
     58 CB          2.0613   -9.7749  -43.4278 C.3       3 UNK        -0.1800 
     59 N           2.7955  -12.0206  -44.2223 N.am      3 UNK        -0.5000 
     60 C           4.0872  -11.8719  -44.5519 C.2       2 UNK         0.5000 
     61 O           4.8581  -11.0996  -43.9828 O.2       2 UNK        -0.5000 
     62 CA          4.6230  -12.7612  -45.6923 C.3       2 UNK         0.1400 
     63 CB          5.4532  -13.9184  -45.1140 C.3       2 UNK        -0.1800 
     64 N           3.5883  -13.3256  -46.5642 N.am      2 UNK        -0.5000 
     65 C           2.8020  -12.6417  -47.4058 C.2       1 UNK         0.5000 
     66 O           2.8362  -11.4160  -47.5250 O.2       1 UNK        -0.5000 
     67 C          -1.1024  -20.7927  -47.0942 C.2       11 UNK         0.5000 
     68 O          -1.4281  -21.3836  -48.1232 O.2       11 UNK        -0.5000 
     69 N          -1.9819  -20.3676  -46.1762 N.am      12 UNK        -0.5000 
     70 CA         -3.4301  -20.5546  -46.2602 C.3       12 UNK         0.1400 
     71 CB         -4.1207  -19.7438  -45.1546 C.3       12 UNK        -0.1800 
     72 C          -3.8542  -22.0330  -46.2010 C.2       12 UNK         0.5000 
     73 O          -4.7828  -22.4172  -46.9114 O.2       12 UNK        -0.5000 
     74 N          -3.1533  -22.8383  -45.3893 N.am      13 UNK        -0.5000 
     75 CA         -3.3351  -24.2884  -45.2978 C.3       13 UNK         0.1400 
     76 CB         -2.5639  -24.8339  -44.0865 C.3       13 UNK        -0.1800 
     77 C          -2.9201  -25.0200  -46.5881 C.2       13 UNK         0.5000 
     78 O          -3.6065  -25.9566  -46.9988 O.2       13 UNK        -0.5000 
     79 N          -1.8278  -24.5646  -47.2196 N.am      14 UNK        -0.5000 
     80 CA         -1.3884  -25.0213  -48.5412 C.3       14 UNK         0.1400 
     81 CB          0.0531  -24.5493  -48.7878 C.3       14 UNK        -0.1800 
     82 C          -2.3199  -24.5409  -49.6734 C.2       14 UNK         0.5000 
     83 O          -2.4666  -25.2398  -50.6759 O.2       14 UNK        -0.5000 
     84 N          -2.9275  -23.3614  -49.4775 N.am      15 UNK        -0.5000 
     85 CA         -3.8700  -22.6600  -50.3537 C.3       15 UNK         0.1400 
     86 CB         -5.1540  -23.4902  -50.5656 C.3       15 UNK        -0.1800 
     87 C          -3.2324  -22.1692  -51.6692 C.2       15 UNK         0.5000 
     88 O          -3.9388  -21.9915  -52.6633 O.2       15 UNK        -0.5000 
     89 N          -1.9083  -21.9494  -51.6473 N.am      16 UNK        -0.5000 
     90 CA         -1.0536  -21.5713  -52.7764 C.3       16 UNK         0.1400 
     91 CB         -1.3561  -20.1257  -53.2326 C.3       16 UNK        -0.1800 
     92 C          -1.1314  -22.6223  -53.9045 C.2       16 UNK         0.5000 
     93 O          -0.6415  -23.7366  -53.7190 O.2       16 UNK        -0.5000 
     94 N          -1.7647  -22.2690  -55.0304 N.am      17 UNK        -0.5000 
     95 CA         -2.0285  -23.1539  -56.1691 C.3       17 UNK         0.1400 
     96 CB         -2.0243  -22.3189  -57.4604 C.3       17 UNK        -0.1800 
     97 C          -3.3368  -23.9653  -56.0206 C.2       17 UNK         0.5000 
     98 O          -3.7866  -24.5654  -56.9984 O.2       17 UNK        -0.5000 
     99 N          -3.9310  -23.9688  -54.8181 N.am      18 UNK        -0.5000 
    100 CA        -5.1505  -24.6739  -54.4235 C.3       18 UNK         0.1400 
    101 CB        -4.9570  -26.2054  -54.4890 C.3       18 UNK        -0.1800 
    102 C         -6.3665  -24.1437  -55.1999 C.2       18 UNK         0.5000 
    103 O         -6.6907  -22.9641  -55.0587 O.2       18 UNK        -0.5000 
    104 N         -7.0084  -24.9896  -56.0161 N.am      19 UNK        -0.5000 
    105 CA        -8.1829  -24.6535  -56.8283 C.3       19 UNK         0.1400 
    106 CB        -8.6833  -25.9262  -57.5284 C.3       19 UNK        -0.1800 
    107 C         -7.9438  -23.5294  -57.8584 C.2       19 UNK         0.5000 
    108 O         -8.8983  -22.8587  -58.2524 O.2       19 UNK        -0.5000 
    109 N         -6.6808  -23.3300  -58.2582 N.am      20 UNK        -0.5000 
    110 CA        -6.2463  -22.2481  -59.1411 C.3       20 UNK         0.1400 
    111 CB        -5.0246  -22.7315  -59.9388 C.3       20 UNK        -0.1800 
    112 C         -5.9396  -20.9328  -58.3910 C.2       20 UNK         0.5000 
    113 O         -5.6269  -19.9383  -59.0477 O.2       20 UNK        -0.5000 
    114 N         -6.0168  -20.9335  -57.0529 N.am      21 UNK        -0.5000 
    115 CA        -5.7512  -19.7826  -56.1959 C.3       21 UNK         0.1400 
    116 CB        -4.3139  -19.8641  -55.6496 C.3       21 UNK        -0.1800 
    117 C         -6.8323  -19.6861  -55.1064 C.2       21 UNK         0.5000 
    118 O         -7.9635  -19.3128  -55.4213 O.2       21 UNK        -0.5000 
    119 N         -6.4686  -19.9766  -53.8508 N.am      22 UNK        -0.5000 
    120 CA        -7.3061  -19.7573  -52.6600 C.3       22 UNK         0.1400 
    121 C         -8.4648  -20.7783  -52.4640 C.2       22 UNK         0.5000 
    122 N         -8.5172  -21.8863  -53.1910 N.am      22 UNK        -0.7600 
    123 O         -9.3423  -20.5544  -51.6345 O.2       22 UNK        -0.5000 
    124 C124       -6.4548  -19.6471  -51.3685 C.3       23 UNK        -0.0398 
    125 S125       -5.0977  -18.4330  -51.4891 S.3       23 UNK        -0.2404 
    126 C126       -4.6152  -18.3029  -49.7411 C.3       23 UNK        -0.0205 
    127 H127        3.6091  -17.0566  -50.3334 H         1 UNK         0.0600 
    128 H128        3.8440  -15.4929  -51.1189 H         1 UNK         0.0600 
    129 H129        5.0657  -16.1125  -50.0036 H         1 UNK         0.0600 
    130 H130        2.5709  -13.9038  -50.2100 H         1 UNK         0.3000 
    131 H131        1.3595  -14.1958  -47.6009 H         1 UNK         0.0600 
    132 H132        1.1525  -11.8420  -49.5389 H         1 UNK         0.0800 
    133 H133        0.1297  -12.1320  -48.1561 H         1 UNK         0.0800 
    134 H134       -2.3790  -13.9213  -48.6596 H         1 UNK         0.0800 
    135 H135       -0.9640  -14.4465  -47.7842 H         1 UNK         0.0800 
    136 H136       -3.8292  -15.7515  -49.1156 H         1 UNK         0.1150 
    137 H137       -2.2877  -19.6306  -50.0631 H         1 UNK         0.1150 
    138 H138        0.4084  -16.3948  -49.2812 H         1 UNK         0.1150 
    139 H139        0.0183  -20.0930  -50.0114 H         1 UNK         0.0800 
    140 H140        0.7822  -18.8274  -50.9363 H         1 UNK         0.0800 
    141 H141       -0.0125  -18.4003  -47.0880 H         1 UNK         0.0800 
    142 H142        1.5259  -18.7351  -46.3930 H         1 UNK         0.0800 
    143 H143        0.9535  -21.2459  -47.4275 H         1 UNK         0.0600 
    144 H144        1.0684  -20.1859  -44.8114 H         1 UNK         0.3000 
    145 H145        0.4843  -23.2721  -43.0855 H         1 UNK         0.0600 
    146 H146        2.6452  -22.5873  -42.0924 H         1 UNK         0.0600 
    147 H147        2.8974  -23.2057  -43.7181 H         1 UNK         0.0600 
    148 H148        2.9420  -21.4720  -43.4227 H         1 UNK         0.0600 
    149 H149        0.9748  -20.6344  -42.1283 H         1 UNK         0.3000 
    150 H150       -2.4755  -19.6076  -41.9689 H         1 UNK         0.0600 
    151 H151       -1.9409  -20.9712  -39.9303 H         1 UNK         0.0600 
    152 H152       -1.8025  -19.2467  -39.6291 H         1 UNK         0.0600 
    153 H153       -0.3503  -20.2215  -39.8495 H         1 UNK         0.0600 
    154 H154       -0.1305  -18.1933  -41.2713 H         1 UNK         0.3000 
    155 H155        0.5221  -16.7422  -44.5069 H         1 UNK         0.0600 
    156 H156       -0.4143  -15.6108  -41.8163 H         1 UNK         0.0600 
    157 H157       -1.2177  -15.3558  -43.3621 H         1 UNK         0.0600 
    158 H158        0.3960  -14.7107  -43.0956 H         1 UNK         0.0600 
    159 H159        1.9225  -16.4434  -42.0744 H         1 UNK         0.3000 
    160 H160        4.2201  -19.1740  -42.4713 H         1 UNK         0.0600 
    161 H161        5.7166  -17.2077  -42.1223 H         1 UNK         0.0600 
    162 H162        4.4028  -16.1140  -42.5546 H         1 UNK         0.0600 
    163 H163        5.0595  -17.2196  -43.7520 H         1 UNK         0.0600 
    164 H164        3.7402  -17.2160  -40.4081 H         1 UNK         0.3000 
    165 H165        1.7271  -19.2937  -38.3328 H         1 UNK         0.0600 
    166 H166        3.5798  -18.8495  -36.7509 H         1 UNK         0.0600 
    167 H167        4.0751  -20.0496  -37.9337 H         1 UNK         0.0600 
    168 H168        4.6472  -18.3919  -38.0785 H         1 UNK         0.0600 
    169 H169        2.8400  -16.6861  -37.9599 H         1 UNK         0.3000 
    170 H170        0.0256  -14.8877  -39.2632 H         1 UNK         0.0600 
    171 H171       -0.4912  -15.6266  -36.9246 H         1 UNK         0.0600 
    172 H172        1.1669  -15.2799  -36.4480 H         1 UNK         0.0600 
    173 H173        0.1043  -13.9760  -36.9782 H         1 UNK         0.0600 
    174 H174        2.2413  -13.7155  -38.1707 H         1 UNK         0.3000 
    175 H175        3.5470  -12.4532  -39.4336 H         1 UNK         0.0600 
    176 H176        5.2425  -14.4297  -41.0658 H         1 UNK         0.0600 
    177 H177        5.8081  -12.9169  -40.3633 H         1 UNK         0.0600 
    178 H178        5.3031  -14.2359  -39.3182 H         1 UNK         0.0600 
    179 H179        3.9150  -12.8089  -42.3166 H         1 UNK         0.3000 
    180 H180        0.9859  -11.6162  -43.3567 H         1 UNK         0.0600 
    181 H181        3.0450   -9.3570  -43.2136 H         1 UNK         0.0600 
    182 H182        1.3474   -9.2659  -42.7792 H         1 UNK         0.0600 
    183 H183        1.8033   -9.5203  -44.4559 H         1 UNK         0.0600 
    184 H184        2.2773  -12.7156  -44.7399 H         1 UNK         0.3000 
    185 H185        5.2780  -12.1406  -46.3072 H         1 UNK         0.0600 
    186 H186        5.9134  -14.5085  -45.9069 H         1 UNK         0.0600 
    187 H187        6.2581  -13.5476  -44.4779 H         1 UNK         0.0600 
    188 H188        4.8395  -14.5888  -44.5114 H         1 UNK         0.0600 
    189 H189        3.5414  -14.3391  -46.6146 H         1 UNK         0.3000 
    190 H190       -1.6421  -19.8433  -45.3726 H         1 UNK         0.3000 
    191 H191       -3.7561  -20.1579  -47.2230 H         1 UNK         0.0600 
    192 H192       -3.8038  -20.0666  -44.1625 H         1 UNK         0.0600 
    193 H193       -5.2045  -19.8536  -45.2071 H         1 UNK         0.0600 
    194 H194       -3.8964  -18.6810  -45.2483 H         1 UNK         0.0600 
    195 H195       -2.4552  -22.4278  -44.7764 H         1 UNK         0.3000 
    196 H196       -4.3974  -24.4819  -45.1353 H         1 UNK         0.0600 
    197 H197       -1.4937  -24.6455  -44.1703 H         1 UNK         0.0600 
    198 H198       -2.7012  -25.9115  -43.9891 H         1 UNK         0.0600 
    199 H199       -2.9120  -24.3770  -43.1600 H         1 UNK         0.0600 
    200 H200       -1.2788  -23.8328  -46.7812 H         1 UNK         0.3000 
    201 H201       -1.3942  -26.1132  -48.5465 H         1 UNK         0.0600 
    202 H202        0.1312  -23.4621  -48.7811 H         1 UNK         0.0600 
    203 H203        0.4182  -24.8988  -49.7543 H         1 UNK         0.0600 
    204 H204        0.7291  -24.9355  -48.0247 H         1 UNK         0.0600 
    205 H205       -2.6441  -22.8361  -48.6565 H         1 UNK         0.3000 
    206 H206       -4.1545  -21.7555  -49.8151 H         1 UNK         0.0600 
    207 H207       -5.6302  -23.7158  -49.6112 H         1 UNK         0.0600 
    208 H208       -5.8855  -22.9557  -51.1719 H         1 UNK         0.0600 
    209 H209       -4.9495  -24.4364  -51.0650 H         1 UNK         0.0600 
    210 H210       -1.4284  -22.1493  -50.7810 H         1 UNK         0.3000 
    211 H211       -0.0256  -21.5916  -52.4119 H         1 UNK         0.0600 
    212 H212       -2.3987  -19.9866  -53.5126 H         1 UNK         0.0600 
    213 H213       -0.7373  -19.8405  -54.0843 H         1 UNK         0.0600 
    214 H214       -1.1441  -19.4140  -52.4370 H         1 UNK         0.0600 
    215 H215       -2.1575  -21.3410  -55.0830 H         1 UNK         0.3000 
    216 H216       -1.2156  -23.8787  -56.2459 H         1 UNK         0.0600 
    217 H217       -2.0063  -22.9658  -58.3379 H         1 UNK         0.0600 
    218 H218       -1.1441  -21.6784  -57.5188 H         1 UNK         0.0600 
    219 H219       -2.9085  -21.6876  -57.5388 H         1 UNK         0.0600 
    220 H220       -3.5579  -23.3514  -54.1053 H         1 UNK         0.3000 
    221 H221       -5.3296  -24.4117  -53.3815 H         1 UNK         0.0600 
    222 H222       -4.7569  -26.5598  -55.5004 H         1 UNK         0.0600 
    223 H223       -4.1201  -26.5140  -53.8621 H         1 UNK         0.0600 
    224 H224       -5.8402  -26.7287  -54.1206 H         1 UNK         0.0600 
    225 H225       -6.6612  -25.9344  -56.0955 H         1 UNK         0.3000 
    226 H226       -8.9641  -24.3066  -56.1488 H         1 UNK         0.0600 
    227 H227       -8.9456  -26.6983  -56.8049 H         1 UNK         0.0600 
    228 H228       -9.5762  -25.7218  -58.1208 H         1 UNK         0.0600 
    229 H229       -7.9296  -26.3367  -58.2015 H         1 UNK         0.0600 
    230 H230       -5.9525  -23.9197  -57.8753 H         1 UNK         0.3000 
    231 H231       -7.0410  -22.0264  -59.8564 H         1 UNK         0.0600 
    232 H232       -5.2729  -23.6013  -60.5470 H         1 UNK         0.0600 
    233 H233       -4.2016  -23.0097  -59.2824 H         1 UNK         0.0600 
    234 H234       -4.6604  -21.9576  -60.6156 H         1 UNK         0.0600 
    235 H235       -6.3275  -21.7702  -56.5682 H         1 UNK         0.3000 
    236 H236       -5.8341  -18.8587  -56.7719 H         1 UNK         0.0600 
    237 H237       -4.1144  -19.0561  -54.9443 H         1 UNK         0.0600 
    238 H238       -4.1363  -20.8117  -55.1423 H         1 UNK         0.0600 
    239 H239       -3.5863  -19.7653  -56.4542 H         1 UNK         0.0600 
    240 H240       -5.5367  -20.3265  -53.6735 H         1 UNK         0.3000 
    241 H241       -7.7950  -18.7906  -52.7955 H         1 UNK         0.0600 
    242 H242       -7.7982  -22.0975  -53.8795 H         1 UNK         0.3800 
    243 H243       -9.2796  -22.5292  -53.0538 H         1 UNK         0.3800 
    244 H244       -7.0874  -19.3681  -50.5237 H         1 UNK         0.0800 
    245 H245       -6.0203  -20.6146  -51.1205 H         1 UNK         0.0800 
    246 H246       -5.3321  -17.6734  -49.2118 H         1 UNK         0.0800 
    247 H247       -4.6626  -19.2873  -49.2745 H         1 UNK         0.0800 
@<TRIPOS>BOND
     1    1    2 1    
     2    1  127 1    
     3    1  128 1    
     4    1  129 1    
     5    2    3 2    
     6    2    4 am   BACKBONE|DICT|INTERRES
     7    4    5 1    
     8    4  130 1    
     9    5    6 1    
    10    5   65 1    
    11    5  131 1    
    12    6    7 1    
    13    6  132 1    
    14    6  133 1    
    15    7    8 1    
    16    8    9 1    
    17    8  134 1    
    18    8  135 1    
    19    9   10 ar   
    20    9   14 ar   
    21   10   11 ar   
    22   10  136 1    
    23   11   12 ar   
    24   11  126 1    
    25   12   13 ar   
    26   12  137 1    
    27   13   14 ar   
    28   13   15 1    
    29   14  138 1    
    30   15   16 1    
    31   15  139 1    
    32   15  140 1    
    33   16   17 1    
    34   17   18 1    
    35   17  141 1    
    36   17  142 1    
    37   18   19 1    
    38   18   67 1    
    39   18  143 1    
    40   19   20 am   BACKBONE|DICT|INTERRES
    41   19  144 1    
    42   20   21 2    
    43   20   22 1    
    44   22   23 1    
    45   22   24 1    
    46   22  145 1    
    47   23  146 1    
    48   23  147 1    
    49   23  148 1    
    50   24   25 am   BACKBONE|DICT|INTERRES
    51   24  149 1    
    52   25   26 2    
    53   25   27 1    
    54   27   28 1    
    55   27   29 1    
    56   27  150 1    
    57   28  151 1    
    58   28  152 1    
    59   28  153 1    
    60   29   30 am   BACKBONE|DICT|INTERRES
    61   29  154 1    
    62   30   31 2    
    63   30   32 1    
    64   32   33 1    
    65   32   34 1    
    66   32  155 1    
    67   33  156 1    
    68   33  157 1    
    69   33  158 1    
    70   34   35 am   BACKBONE|DICT|INTERRES
    71   34  159 1    
    72   35   36 2    
    73   35   37 1    
    74   37   38 1    
    75   37   39 1    
    76   37  160 1    
    77   38  161 1    
    78   38  162 1    
    79   38  163 1    
    80   39   40 am   BACKBONE|DICT|INTERRES
    81   39  164 1    
    82   40   41 2    
    83   40   42 1    
    84   42   43 1    
    85   42   44 1    
    86   42  165 1    
    87   43  166 1    
    88   43  167 1    
    89   43  168 1    
    90   44   45 am   BACKBONE|DICT|INTERRES
    91   44  169 1    
    92   45   46 2    
    93   45   47 1    
    94   47   48 1    
    95   47   49 1    
    96   47  170 1    
    97   48  171 1    
    98   48  172 1    
    99   48  173 1    
   100   49   50 am   BACKBONE|DICT|INTERRES
   101   49  174 1    
   102   50   51 2    
   103   50   52 1    
   104   52   53 1    
   105   52   54 1    
   106   52  175 1    
   107   53  176 1    
   108   53  177 1    
   109   53  178 1    
   110   54   55 am   BACKBONE|DICT|INTERRES
   111   54  179 1    
   112   55   56 2    
   113   55   57 1    
   114   57   58 1    
   115   57   59 1    
   116   57  180 1    
   117   58  181 1    
   118   58  182 1    
   119   58  183 1    
   120   59   60 am   BACKBONE|DICT|INTERRES
   121   59  184 1    
   122   60   61 2    
   123   60   62 1    
   124   62   63 1    
   125   62   64 1    
   126   62  185 1    
   127   63  186 1    
   128   63  187 1    
   129   63  188 1    
   130   64   65 am   BACKBONE|DICT|INTERRES
   131   64  189 1    
   132   65   66 2    
   133   67   68 2    
   134   67   69 am   BACKBONE|DICT|INTERRES
   135   69   70 1    
   136   69  190 1    
   137   70   71 1    
   138   70   72 1    
   139   70  191 1    
   140   71  192 1    
   141   71  193 1    
   142   71  194 1    
   143   72   73 2    
   144   72   74 am   BACKBONE|DICT|INTERRES
   145   74   75 1    
   146   74  195 1    
   147   75   76 1    
   148   75   77 1    
   149   75  196 1    
   150   76  197 1    
   151   76  198 1    
   152   76  199 1    
   153   77   78 2    
   154   77   79 am   BACKBONE|DICT|INTERRES
   155   79   80 1    
   156   79  200 1    
   157   80   81 1    
   158   80   82 1    
   159   80  201 1    
   160   81  202 1    
   161   81  203 1    
   162   81  204 1    
   163   82   83 2    
   164   82   84 am   BACKBONE|DICT|INTERRES
   165   84   85 1    
   166   84  205 1    
   167   85   86 1    
   168   85   87 1    
   169   85  206 1    
   170   86  207 1    
   171   86  208 1    
   172   86  209 1    
   173   87   88 2    
   174   87   89 am   BACKBONE|DICT|INTERRES
   175   89   90 1    
   176   89  210 1    
   177   90   91 1    
   178   90   92 1    
   179   90  211 1    
   180   91  212 1    
   181   91  213 1    
   182   91  214 1    
   183   92   93 2    
   184   92   94 am   BACKBONE|DICT|INTERRES
   185   94   95 1    
   186   94  215 1    
   187   95   96 1    
   188   95   97 1    
   189   95  216 1    
   190   96  217 1    
   191   96  218 1    
   192   96  219 1    
   193   97   98 2    
   194   97   99 am   BACKBONE|DICT|INTERRES
   195   99  100 1    
   196   99  220 1    
   197  100  101 1    
   198  100  102 1    
   199  100  221 1    
   200  101  222 1    
   201  101  223 1    
   202  101  224 1    
   203  102  103 2    
   204  102  104 am   BACKBONE|DICT|INTERRES
   205  104  105 1    
   206  104  225 1    
   207  105  106 1    
   208  105  107 1    
   209  105  226 1    
   210  106  227 1    
   211  106  228 1    
   212  106  229 1    
   213  107  108 2    
   214  107  109 am   BACKBONE|DICT|INTERRES
   215  109  110 1    
   216  109  230 1    
   217  110  111 1    
   218  110  112 1    
   219  110  231 1    
   220  111  232 1    
   221  111  233 1    
   222  111  234 1    
   223  112  113 2    
   224  112  114 am   BACKBONE|DICT|INTERRES
   225  114  115 1    
   226  114  235 1    
   227  115  116 1    
   228  115  117 1    
   229  115  236 1    
   230  116  237 1    
   231  116  238 1    
   232  116  239 1    
   233  117  118 2    
   234  117  119 am   BACKBONE|DICT|INTERRES
   235  119  120 1    
   236  119  240 1    
   237  120  121 1    
   238  120  124 1    
   239  120  241 1    
   240  121  122 am   BACKBONE|DICT|INTERRES
   241  121  123 2    
   242  122  242 1    
   243  122  243 1    
   244  124  125 1    
   245  124  244 1    
   246  124  245 1    
   247  125  126 1    
   248  126  246 1    
   249  126  247 1    
@<TRIPOS>SUBSTRUCTURE
     1 UNK         1 GROUP             0       ****    0 ROOT    
