@<TRIPOS>MOLECULE
3R540
247   249    1
SMALL
USER_CHARGES


@<TRIPOS>ATOM
      1 CA          4.9714  -13.1659  -48.4090 C.3       0 UNK        -0.1800 
      2 C           3.9329  -13.6926  -47.4301 C.2       0 UNK         0.5000 
      3 O           4.1077  -13.5638  -46.2200 O.2       0 UNK        -0.5000 
      4 N           2.8386  -14.2680  -47.9441 N.am      1 UNK        -0.5000 
      5 CA          1.7405  -14.8493  -47.1592 C.3       1 UNK         0.1400 
      6 C6          0.7927  -15.7058  -48.0354 C.3       23 UNK        -0.0398 
      7 S7         -0.1323  -14.7620  -49.3005 S.3       23 UNK        -0.2404 
      8 C8          0.8908  -14.9776  -50.7904 C.3       23 UNK        -0.0205 
      9 C9          0.7598  -16.3635  -51.4041 C.ar      23 UNK        -0.0193 
     10 C10        -0.3695  -16.6854  -52.1619 C.ar      23 UNK        -0.1150 
     11 C11        -0.4633  -17.9227  -52.8038 C.ar      23 UNK        -0.0193 
     12 C12         0.5797  -18.8450  -52.6766 C.ar      23 UNK        -0.1150 
     13 C13         1.7135  -18.5378  -51.9186 C.ar      23 UNK        -0.0193 
     14 C14         1.7939  -17.2970  -51.2779 C.ar      23 UNK        -0.1150 
     15 C15         2.8816  -19.5145  -51.8547 C.3       23 UNK        -0.0205 
     16 S16         2.4660  -21.0823  -51.0271 S.3       23 UNK        -0.2404 
     17 C17         2.2839  -20.5467  -49.2927 C.3       23 UNK        -0.0398 
     18 CA          1.1939  -21.3376  -48.5271 C.3       11 UNK         0.1400 
     19 N           1.4084  -21.2437  -47.0750 N.am      11 UNK        -0.5000 
     20 C           0.6438  -21.7775  -46.1125 C.2       10 UNK         0.5000 
     21 O          -0.4548  -22.2878  -46.3276 O.2       10 UNK        -0.5000 
     22 CA          1.1912  -21.7606  -44.6714 C.3       10 UNK         0.1400 
     23 CB          2.6350  -21.2351  -44.5418 C.3       10 UNK        -0.1800 
     24 N           0.3067  -20.9702  -43.8232 N.am      10 UNK        -0.5000 
     25 C          -0.7811  -21.4383  -43.1960 C.2       9 UNK         0.5000 
     26 O          -1.0895  -22.6304  -43.1637 O.2       9 UNK        -0.5000 
     27 CA         -1.6809  -20.4167  -42.4695 C.3       9 UNK         0.1400 
     28 CB         -1.5523  -20.5767  -40.9467 C.3       9 UNK        -0.1800 
     29 N          -1.4028  -19.0234  -42.8226 N.am      9 UNK        -0.5000 
     30 C          -1.6846  -18.4504  -44.0009 C.2       8 UNK         0.5000 
     31 O          -2.2635  -19.0258  -44.9204 O.2       8 UNK        -0.5000 
     32 CA         -1.1831  -17.0078  -44.1966 C.3       8 UNK         0.1400 
     33 CB         -2.1571  -15.9967  -43.5739 C.3       8 UNK        -0.1800 
     34 N           0.1553  -16.8148  -43.6364 N.am      8 UNK        -0.5000 
     35 C           1.2683  -17.3827  -44.1210 C.2       7 UNK         0.5000 
     36 O           1.2894  -18.0773  -45.1375 O.2       7 UNK        -0.5000 
     37 CA          2.5617  -17.1870  -43.3087 C.3       7 UNK         0.1400 
     38 CB          3.2995  -15.9033  -43.7203 C.3       7 UNK        -0.1800 
     39 N           2.2896  -17.1551  -41.8717 N.am      7 UNK        -0.5000 
     40 C           2.0576  -18.2434  -41.1234 C.2       6 UNK         0.5000 
     41 O           2.1026  -19.3927  -41.5592 O.2       6 UNK        -0.5000 
     42 CA          1.6924  -18.0112  -39.6442 C.3       6 UNK         0.1400 
     43 CB          2.9586  -17.9931  -38.7751 C.3       6 UNK        -0.1800 
     44 N           0.9448  -16.7721  -39.4265 N.am      6 UNK        -0.5000 
     45 C          -0.2968  -16.5414  -39.8763 C.2       5 UNK         0.5000 
     46 O          -0.9674  -17.3752  -40.4819 O.2       5 UNK        -0.5000 
     47 CA         -0.8546  -15.1196  -39.6698 C.3       5 UNK         0.1400 
     48 CB         -1.5844  -15.0162  -38.3227 C.3       5 UNK        -0.1800 
     49 N           0.1800  -14.0827  -39.7457 N.am      5 UNK        -0.5000 
     50 C           0.9253  -13.8368  -40.8308 C.2       4 UNK         0.5000 
     51 O           0.8022  -14.4445  -41.8968 O.2       4 UNK        -0.5000 
     52 CA          2.0442  -12.8035  -40.6697 C.3       4 UNK         0.1400 
     53 CB          3.2587  -13.4437  -39.9682 C.3       4 UNK        -0.1800 
     54 N           2.4324  -12.3070  -41.9855 N.am      4 UNK        -0.5000 
     55 C           3.1321  -11.1891  -42.2096 C.2       3 UNK         0.5000 
     56 O           3.5180  -10.4365  -41.3136 O.2       3 UNK        -0.5000 
     57 CA          3.4716  -10.8449  -43.6720 C.3       3 UNK         0.1400 
     58 CB          4.8785  -11.3536  -44.0206 C.3       3 UNK        -0.1800 
     59 N           2.5112  -11.3564  -44.6550 N.am      3 UNK        -0.5000 
     60 C           1.2585  -10.8935  -44.7964 C.2       2 UNK         0.5000 
     61 O           0.7654  -10.0475  -44.0490 O.2       2 UNK        -0.5000 
     62 CA          0.4168  -11.4155  -45.9802 C.3       2 UNK         0.1400 
     63 CB          0.1545  -10.2887  -46.9927 C.3       2 UNK        -0.1800 
     64 N           1.0358  -12.5333  -46.6903 N.am      2 UNK        -0.5000 
     65 C           0.9741  -13.8132  -46.3021 C.2       1 UNK         0.5000 
     66 O           0.3633  -14.1840  -45.3032 O.2       1 UNK        -0.5000 
     67 C          -0.2239  -20.9496  -49.0059 C.2       11 UNK         0.5000 
     68 O          -0.7655  -21.6056  -49.8949 O.2       11 UNK        -0.5000 
     69 N          -0.8153  -19.9200  -48.3869 N.am      12 UNK        -0.5000 
     70 CA         -2.1439  -19.4231  -48.7424 C.3       12 UNK         0.1400 
     71 CB         -2.2625  -17.9481  -48.3327 C.3       12 UNK        -0.1800 
     72 C          -3.3141  -20.2695  -48.1970 C.2       12 UNK         0.5000 
     73 O          -4.4592  -19.9622  -48.5284 O.2       12 UNK        -0.5000 
     74 N          -3.0346  -21.3101  -47.3996 N.am      13 UNK        -0.5000 
     75 CA         -4.0337  -22.2301  -46.8526 C.3       13 UNK         0.1400 
     76 CB         -4.1378  -22.0252  -45.3344 C.3       13 UNK        -0.1800 
     77 C          -3.7045  -23.6953  -47.1823 C.2       13 UNK         0.5000 
     78 O          -4.6113  -24.4489  -47.5426 O.2       13 UNK        -0.5000 
     79 N          -2.4258  -24.0789  -47.0706 N.am      14 UNK        -0.5000 
     80 CA         -1.9148  -25.4273  -47.3210 C.3       14 UNK         0.1400 
     81 CB         -0.4160  -25.4633  -46.9854 C.3       14 UNK        -0.1800 
     82 C          -2.1463  -25.8970  -48.7677 C.2       14 UNK         0.5000 
     83 O          -2.1059  -25.0813  -49.6907 O.2       14 UNK        -0.5000 
     84 N          -2.3800  -27.2077  -48.9290 N.am      15 UNK        -0.5000 
     85 CA         -2.6602  -27.9005  -50.1943 C.3       15 UNK         0.1400 
     86 CB         -1.4043  -27.9189  -51.0918 C.3       15 UNK        -0.1800 
     87 C          -3.9076  -27.3465  -50.9170 C.2       15 UNK         0.5000 
     88 O          -3.8976  -27.2024  -52.1396 O.2       15 UNK        -0.5000 
     89 N          -4.9475  -27.0210  -50.1315 N.am      16 UNK        -0.5000 
     90 CA         -6.1915  -26.3597  -50.5441 C.3       16 UNK         0.1400 
     91 CB         -7.0325  -27.2809  -51.4533 C.3       16 UNK        -0.1800 
     92 C          -5.9130  -24.9774  -51.1685 C.2       16 UNK         0.5000 
     93 O          -6.3346  -24.7037  -52.2940 O.2       16 UNK        -0.5000 
     94 N          -5.1557  -24.1566  -50.4249 N.am      17 UNK        -0.5000 
     95 CA         -4.6375  -22.8388  -50.8017 C.3       17 UNK         0.1400 
     96 CB         -5.7823  -21.8102  -50.8579 C.3       17 UNK        -0.1800 
     97 C          -3.8118  -22.9028  -52.0994 C.2       17 UNK         0.5000 
     98 O          -4.1880  -22.2979  -53.1064 O.2       17 UNK        -0.5000 
     99 N          -2.7509  -23.7229  -52.0615 N.am      18 UNK        -0.5000 
    100 CA        -1.7879  -24.0168  -53.1311 C.3       18 UNK         0.1400 
    101 CB        -0.9287  -22.7679  -53.4199 C.3       18 UNK        -0.1800 
    102 C         -2.4144  -24.5933  -54.4218 C.2       18 UNK         0.5000 
    103 O         -1.7719  -24.5646  -55.4727 O.2       18 UNK        -0.5000 
    104 N         -3.6695  -25.0609  -54.3316 N.am      19 UNK        -0.5000 
    105 CA        -4.5882  -25.3991  -55.4235 C.3       19 UNK         0.1400 
    106 CB        -4.0996  -26.6486  -56.1839 C.3       19 UNK        -0.1800 
    107 C         -4.8886  -24.2031  -56.3599 C.2       19 UNK         0.5000 
    108 O         -5.3048  -24.4100  -57.5013 O.2       19 UNK        -0.5000 
    109 N         -4.6663  -22.9772  -55.8663 N.am      20 UNK        -0.5000 
    110 CA        -4.7556  -21.7228  -56.6109 C.3       20 UNK         0.1400 
    111 CB        -3.4035  -21.0001  -56.4924 C.3       20 UNK        -0.1800 
    112 C         -5.8898  -20.8177  -56.0997 C.2       20 UNK         0.5000 
    113 O         -6.2155  -19.8422  -56.7774 O.2       20 UNK        -0.5000 
    114 N         -6.4671  -21.1478  -54.9324 N.am      21 UNK        -0.5000 
    115 CA        -7.5179  -20.4067  -54.2254 C.3       21 UNK         0.1400 
    116 CB        -8.8339  -20.3991  -55.0321 C.3       21 UNK        -0.1800 
    117 C         -7.0418  -18.9988  -53.8109 C.2       21 UNK         0.5000 
    118 O         -7.6594  -17.9956  -54.1723 O.2       21 UNK        -0.5000 
    119 N         -5.9221  -18.9675  -53.0768 N.am      22 UNK        -0.5000 
    120 CA        -5.2086  -17.7602  -52.6181 C.3       22 UNK         0.1400 
    121 C         -6.0239  -16.7813  -51.7209 C.2       22 UNK         0.5000 
    122 N         -7.1026  -17.2089  -51.0764 N.am      22 UNK        -0.7600 
    123 O         -5.6656  -15.6126  -51.6069 O.2       22 UNK        -0.5000 
    124 C124       -3.8762  -18.1147  -51.9057 C.3       23 UNK        -0.0398 
    125 S125       -2.8524  -19.3156  -52.8203 S.3       23 UNK        -0.2404 
    126 C126       -1.6627  -18.2483  -53.6789 C.3       23 UNK        -0.0205 
    127 H127        4.6748  -13.3330  -49.4447 H         1 UNK         0.0600 
    128 H128        5.9270  -13.6632  -48.2434 H         1 UNK         0.0600 
    129 H129        5.1136  -12.0951  -48.2633 H         1 UNK         0.0600 
    130 H130        2.7372  -14.3252  -48.9459 H         1 UNK         0.3000 
    131 H131        2.2028  -15.5361  -46.4498 H         1 UNK         0.0600 
    132 H132        1.3543  -16.5071  -48.5159 H         1 UNK         0.0800 
    133 H133        0.0670  -16.2118  -47.3971 H         1 UNK         0.0800 
    134 H134        0.5803  -14.2364  -51.5284 H         1 UNK         0.0800 
    135 H135        1.9333  -14.7523  -50.5672 H         1 UNK         0.0800 
    136 H136       -1.1629  -15.9595  -52.2716 H         1 UNK         0.1150 
    137 H137        0.5160  -19.7987  -53.1821 H         1 UNK         0.1150 
    138 H138        2.6779  -17.0435  -50.7099 H         1 UNK         0.1150 
    139 H139        3.2054  -19.7356  -52.8726 H         1 UNK         0.0800 
    140 H140        3.7411  -19.0647  -51.3551 H         1 UNK         0.0800 
    141 H141        2.0887  -19.4742  -49.2420 H         1 UNK         0.0800 
    142 H142        3.2561  -20.6948  -48.8208 H         1 UNK         0.0800 
    143 H143        1.3192  -22.3962  -48.7652 H         1 UNK         0.0600 
    144 H144        2.2740  -20.8107  -46.7880 H         1 UNK         0.3000 
    145 H145        1.1937  -22.7964  -44.3261 H         1 UNK         0.0600 
    146 H146        2.9673  -21.2729  -43.5041 H         1 UNK         0.0600 
    147 H147        3.3296  -21.8466  -45.1190 H         1 UNK         0.0600 
    148 H148        2.7370  -20.2046  -44.8783 H         1 UNK         0.0600 
    149 H149        0.4749  -19.9746  -43.8058 H         1 UNK         0.3000 
    150 H150       -2.7128  -20.6371  -42.7500 H         1 UNK         0.0600 
    151 H151       -1.7903  -21.5949  -40.6364 H         1 UNK         0.0600 
    152 H152       -2.2354  -19.9097  -40.4205 H         1 UNK         0.0600 
    153 H153       -0.5399  -20.3571  -40.6064 H         1 UNK         0.0600 
    154 H154       -0.9925  -18.4492  -42.0916 H         1 UNK         0.3000 
    155 H155       -1.1293  -16.8086  -45.2681 H         1 UNK         0.0600 
    156 H156       -3.1412  -16.0707  -44.0380 H         1 UNK         0.0600 
    157 H157       -1.8063  -14.9739  -43.7135 H         1 UNK         0.0600 
    158 H158       -2.2863  -16.1631  -42.5049 H         1 UNK         0.0600 
    159 H159        0.2386  -16.1768  -42.8530 H         1 UNK         0.3000 
    160 H160        3.2217  -18.0318  -43.5170 H         1 UNK         0.0600 
    161 H161        2.6497  -15.0285  -43.6949 H         1 UNK         0.0600 
    162 H162        3.6899  -15.9919  -44.7339 H         1 UNK         0.0600 
    163 H163        4.1504  -15.7066  -43.0682 H         1 UNK         0.0600 
    164 H164        2.1705  -16.2422  -41.4571 H         1 UNK         0.3000 
    165 H165        1.0670  -18.8462  -39.3213 H         1 UNK         0.0600 
    166 H166        2.7100  -17.9057  -37.7173 H         1 UNK         0.0600 
    167 H167        3.5296  -18.9144  -38.8984 H         1 UNK         0.0600 
    168 H168        3.6153  -17.1622  -39.0364 H         1 UNK         0.0600 
    169 H169        1.4215  -16.0332  -38.9316 H         1 UNK         0.3000 
    170 H170       -1.5773  -14.9294  -40.4659 H         1 UNK         0.0600 
    171 H171       -2.3744  -15.7649  -38.2489 H         1 UNK         0.0600 
    172 H172       -0.9059  -15.1707  -37.4829 H         1 UNK         0.0600 
    173 H173       -2.0527  -14.0392  -38.2018 H         1 UNK         0.0600 
    174 H174        0.3452  -13.5496  -38.9039 H         1 UNK         0.3000 
    175 H175        1.6635  -11.9735  -40.0709 H         1 UNK         0.0600 
    176 H176        3.6748  -14.2630  -40.5561 H         1 UNK         0.0600 
    177 H177        4.0537  -12.7166  -39.8032 H         1 UNK         0.0600 
    178 H178        2.9865  -13.8442  -38.9911 H         1 UNK         0.0600 
    179 H179        2.0986  -12.8615  -42.7644 H         1 UNK         0.3000 
    180 H180        3.4810   -9.7560  -43.7549 H         1 UNK         0.0600 
    181 H181        4.9474  -12.4379  -43.9245 H         1 UNK         0.0600 
    182 H182        5.6265  -10.9191  -43.3562 H         1 UNK         0.0600 
    183 H183        5.1560  -11.0873  -45.0406 H         1 UNK         0.0600 
    184 H184        2.8516  -12.0701  -45.2888 H         1 UNK         0.3000 
    185 H185       -0.5453  -11.7390  -45.5771 H         1 UNK         0.0600 
    186 H186       -0.4831  -10.6318  -47.8078 H         1 UNK         0.0600 
    187 H187       -0.3517   -9.4457  -46.5206 H         1 UNK         0.0600 
    188 H188        1.0823   -9.9135  -47.4264 H         1 UNK         0.0600 
    189 H189        1.5599  -12.3100  -47.5234 H         1 UNK         0.3000 
    190 H190       -0.3414  -19.4657  -47.6195 H         1 UNK         0.3000 
    191 H191       -2.2282  -19.4579  -49.8296 H         1 UNK         0.0600 
    192 H192       -2.0888  -17.8074  -47.2674 H         1 UNK         0.0600 
    193 H193       -1.5425  -17.3420  -48.8801 H         1 UNK         0.0600 
    194 H194       -3.2517  -17.5495  -48.5608 H         1 UNK         0.0600 
    195 H195       -2.0662  -21.4983  -47.1621 H         1 UNK         0.3000 
    196 H196       -5.0158  -22.0273  -47.2847 H         1 UNK         0.0600 
    197 H197       -4.8861  -22.6881  -44.8986 H         1 UNK         0.0600 
    198 H198       -4.4260  -21.0016  -45.0943 H         1 UNK         0.0600 
    199 H199       -3.1884  -22.2286  -44.8404 H         1 UNK         0.0600 
    200 H200       -1.7290  -23.3965  -46.7774 H         1 UNK         0.3000 
    201 H201       -2.4396  -26.1054  -46.6452 H         1 UNK         0.0600 
    202 H202       -0.2368  -25.1778  -45.9485 H         1 UNK         0.0600 
    203 H203        0.1519  -24.7840  -47.6228 H         1 UNK         0.0600 
    204 H204       -0.0053  -26.4642  -47.1230 H         1 UNK         0.0600 
    205 H205       -2.3895  -27.7954  -48.1067 H         1 UNK         0.3000 
    206 H206       -2.8948  -28.9342  -49.9368 H         1 UNK         0.0600 
    207 H207       -0.5476  -28.3345  -50.5616 H         1 UNK         0.0600 
    208 H208       -1.5654  -28.5335  -51.9782 H         1 UNK         0.0600 
    209 H209       -1.1342  -26.9195  -51.4327 H         1 UNK         0.0600 
    210 H210       -4.8395  -27.1584  -49.1363 H         1 UNK         0.3000 
    211 H211       -6.7667  -26.1788  -49.6348 H         1 UNK         0.0600 
    212 H212       -6.5410  -27.4748  -52.4071 H         1 UNK         0.0600 
    213 H213       -8.0007  -26.8296  -51.6730 H         1 UNK         0.0600 
    214 H214       -7.2230  -28.2406  -50.9734 H         1 UNK         0.0600 
    215 H215       -4.8608  -24.4864  -49.5109 H         1 UNK         0.3000 
    216 H216       -3.9487  -22.5327  -50.0145 H         1 UNK         0.0600 
    217 H217       -5.3928  -20.8129  -51.0576 H         1 UNK         0.0600 
    218 H218       -6.3125  -21.7629  -49.9068 H         1 UNK         0.0600 
    219 H219       -6.5073  -22.0513  -51.6339 H         1 UNK         0.0600 
    220 H220       -2.5559  -24.1984  -51.1798 H         1 UNK         0.3000 
    221 H221       -1.1292  -24.7921  -52.7390 H         1 UNK         0.0600 
    222 H222       -1.5186  -21.9687  -53.8693 H         1 UNK         0.0600 
    223 H223       -0.4797  -22.3766  -52.5069 H         1 UNK         0.0600 
    224 H224       -0.1128  -22.9980  -54.1055 H         1 UNK         0.0600 
    225 H225       -4.0863  -25.0795  -53.4094 H         1 UNK         0.3000 
    226 H226       -5.5355  -25.6529  -54.9460 H         1 UNK         0.0600 
    227 H227       -3.8933  -27.4697  -55.4971 H         1 UNK         0.0600 
    228 H228       -4.8549  -26.9983  -56.8884 H         1 UNK         0.0600 
    229 H229       -3.1910  -26.4487  -56.7521 H         1 UNK         0.0600 
    230 H230       -4.3485  -22.8929  -54.9034 H         1 UNK         0.3000 
    231 H231       -4.9484  -21.9171  -57.6677 H         1 UNK         0.0600 
    232 H232       -3.1641  -20.7695  -55.4540 H         1 UNK         0.0600 
    233 H233       -3.4076  -20.0605  -57.0461 H         1 UNK         0.0600 
    234 H234       -2.5942  -21.6113  -56.8922 H         1 UNK         0.0600 
    235 H235       -6.0866  -21.9451  -54.4398 H         1 UNK         0.3000 
    236 H236       -7.7144  -20.9509  -53.3017 H         1 UNK         0.0600 
    237 H237       -9.1464  -21.4124  -55.2842 H         1 UNK         0.0600 
    238 H238       -9.6397  -19.9453  -54.4541 H         1 UNK         0.0600 
    239 H239       -8.7441  -19.8354  -55.9609 H         1 UNK         0.0600 
    240 H240       -5.4480  -19.8405  -52.8915 H         1 UNK         0.3000 
    241 H241       -4.9570  -17.2006  -53.5208 H         1 UNK         0.0600 
    242 H242       -7.6237  -16.5661  -50.5012 H         1 UNK         0.3800 
    243 H243       -7.4088  -18.1640  -51.1642 H         1 UNK         0.3800 
    244 H244       -3.2892  -17.2161  -51.7091 H         1 UNK         0.0800 
    245 H245       -4.0921  -18.5514  -50.9302 H         1 UNK         0.0800 
    246 H246       -2.1577  -17.3388  -54.0224 H         1 UNK         0.0800 
    247 H247       -1.3217  -18.7645  -54.5775 H         1 UNK         0.0800 
@<TRIPOS>BOND
     1    1    2 1    
     2    1  127 1    
     3    1  128 1    
     4    1  129 1    
     5    2    3 2    
     6    2    4 am   BACKBONE|DICT|INTERRES
     7    4    5 1    
     8    4  130 1    
     9    5    6 1    
    10    5   65 1    
    11    5  131 1    
    12    6    7 1    
    13    6  132 1    
    14    6  133 1    
    15    7    8 1    
    16    8    9 1    
    17    8  134 1    
    18    8  135 1    
    19    9   10 ar   
    20    9   14 ar   
    21   10   11 ar   
    22   10  136 1    
    23   11   12 ar   
    24   11  126 1    
    25   12   13 ar   
    26   12  137 1    
    27   13   14 ar   
    28   13   15 1    
    29   14  138 1    
    30   15   16 1    
    31   15  139 1    
    32   15  140 1    
    33   16   17 1    
    34   17   18 1    
    35   17  141 1    
    36   17  142 1    
    37   18   19 1    
    38   18   67 1    
    39   18  143 1    
    40   19   20 am   BACKBONE|DICT|INTERRES
    41   19  144 1    
    42   20   21 2    
    43   20   22 1    
    44   22   23 1    
    45   22   24 1    
    46   22  145 1    
    47   23  146 1    
    48   23  147 1    
    49   23  148 1    
    50   24   25 am   BACKBONE|DICT|INTERRES
    51   24  149 1    
    52   25   26 2    
    53   25   27 1    
    54   27   28 1    
    55   27   29 1    
    56   27  150 1    
    57   28  151 1    
    58   28  152 1    
    59   28  153 1    
    60   29   30 am   BACKBONE|DICT|INTERRES
    61   29  154 1    
    62   30   31 2    
    63   30   32 1    
    64   32   33 1    
    65   32   34 1    
    66   32  155 1    
    67   33  156 1    
    68   33  157 1    
    69   33  158 1    
    70   34   35 am   BACKBONE|DICT|INTERRES
    71   34  159 1    
    72   35   36 2    
    73   35   37 1    
    74   37   38 1    
    75   37   39 1    
    76   37  160 1    
    77   38  161 1    
    78   38  162 1    
    79   38  163 1    
    80   39   40 am   BACKBONE|DICT|INTERRES
    81   39  164 1    
    82   40   41 2    
    83   40   42 1    
    84   42   43 1    
    85   42   44 1    
    86   42  165 1    
    87   43  166 1    
    88   43  167 1    
    89   43  168 1    
    90   44   45 am   BACKBONE|DICT|INTERRES
    91   44  169 1    
    92   45   46 2    
    93   45   47 1    
    94   47   48 1    
    95   47   49 1    
    96   47  170 1    
    97   48  171 1    
    98   48  172 1    
    99   48  173 1    
   100   49   50 am   BACKBONE|DICT|INTERRES
   101   49  174 1    
   102   50   51 2    
   103   50   52 1    
   104   52   53 1    
   105   52   54 1    
   106   52  175 1    
   107   53  176 1    
   108   53  177 1    
   109   53  178 1    
   110   54   55 am   BACKBONE|DICT|INTERRES
   111   54  179 1    
   112   55   56 2    
   113   55   57 1    
   114   57   58 1    
   115   57   59 1    
   116   57  180 1    
   117   58  181 1    
   118   58  182 1    
   119   58  183 1    
   120   59   60 am   BACKBONE|DICT|INTERRES
   121   59  184 1    
   122   60   61 2    
   123   60   62 1    
   124   62   63 1    
   125   62   64 1    
   126   62  185 1    
   127   63  186 1    
   128   63  187 1    
   129   63  188 1    
   130   64   65 am   BACKBONE|DICT|INTERRES
   131   64  189 1    
   132   65   66 2    
   133   67   68 2    
   134   67   69 am   BACKBONE|DICT|INTERRES
   135   69   70 1    
   136   69  190 1    
   137   70   71 1    
   138   70   72 1    
   139   70  191 1    
   140   71  192 1    
   141   71  193 1    
   142   71  194 1    
   143   72   73 2    
   144   72   74 am   BACKBONE|DICT|INTERRES
   145   74   75 1    
   146   74  195 1    
   147   75   76 1    
   148   75   77 1    
   149   75  196 1    
   150   76  197 1    
   151   76  198 1    
   152   76  199 1    
   153   77   78 2    
   154   77   79 am   BACKBONE|DICT|INTERRES
   155   79   80 1    
   156   79  200 1    
   157   80   81 1    
   158   80   82 1    
   159   80  201 1    
   160   81  202 1    
   161   81  203 1    
   162   81  204 1    
   163   82   83 2    
   164   82   84 am   BACKBONE|DICT|INTERRES
   165   84   85 1    
   166   84  205 1    
   167   85   86 1    
   168   85   87 1    
   169   85  206 1    
   170   86  207 1    
   171   86  208 1    
   172   86  209 1    
   173   87   88 2    
   174   87   89 am   BACKBONE|DICT|INTERRES
   175   89   90 1    
   176   89  210 1    
   177   90   91 1    
   178   90   92 1    
   179   90  211 1    
   180   91  212 1    
   181   91  213 1    
   182   91  214 1    
   183   92   93 2    
   184   92   94 am   BACKBONE|DICT|INTERRES
   185   94   95 1    
   186   94  215 1    
   187   95   96 1    
   188   95   97 1    
   189   95  216 1    
   190   96  217 1    
   191   96  218 1    
   192   96  219 1    
   193   97   98 2    
   194   97   99 am   BACKBONE|DICT|INTERRES
   195   99  100 1    
   196   99  220 1    
   197  100  101 1    
   198  100  102 1    
   199  100  221 1    
   200  101  222 1    
   201  101  223 1    
   202  101  224 1    
   203  102  103 2    
   204  102  104 am   BACKBONE|DICT|INTERRES
   205  104  105 1    
   206  104  225 1    
   207  105  106 1    
   208  105  107 1    
   209  105  226 1    
   210  106  227 1    
   211  106  228 1    
   212  106  229 1    
   213  107  108 2    
   214  107  109 am   BACKBONE|DICT|INTERRES
   215  109  110 1    
   216  109  230 1    
   217  110  111 1    
   218  110  112 1    
   219  110  231 1    
   220  111  232 1    
   221  111  233 1    
   222  111  234 1    
   223  112  113 2    
   224  112  114 am   BACKBONE|DICT|INTERRES
   225  114  115 1    
   226  114  235 1    
   227  115  116 1    
   228  115  117 1    
   229  115  236 1    
   230  116  237 1    
   231  116  238 1    
   232  116  239 1    
   233  117  118 2    
   234  117  119 am   BACKBONE|DICT|INTERRES
   235  119  120 1    
   236  119  240 1    
   237  120  121 1    
   238  120  124 1    
   239  120  241 1    
   240  121  122 am   BACKBONE|DICT|INTERRES
   241  121  123 2    
   242  122  242 1    
   243  122  243 1    
   244  124  125 1    
   245  124  244 1    
   246  124  245 1    
   247  125  126 1    
   248  126  246 1    
   249  126  247 1    
@<TRIPOS>SUBSTRUCTURE
     1 UNK         1 GROUP             0       ****    0 ROOT    
